MODEL 1
REMARK VINA RESULT:      -8.3      0.000      0.000
REMARK  Name = 
REMARK  4 active torsions:
REMARK  status: ('A' for Active; 'I' for Inactive)
REMARK    1  A    between atoms: C_2  and  C_3
REMARK    2  A    between atoms: C_6  and  C_7
REMARK    3  A    between atoms: C_9  and  C_10
REMARK    4  A    between atoms: C_15  and  C_16
REMARK                            x       y       z     vdW  Elec       q    Type
REMARK                         _______ _______ _______ _____ _____    ______ ____
ROOT
ATOM      1  C   UNL     1       4.405   4.075  17.766  0.00  0.00    +0.000 A 
ATOM      2  C   UNL     1       4.622   3.998  16.381  0.00  0.00    +0.000 A 
ATOM      3  C   UNL     1       5.823   4.437  15.799  0.00  0.00    +0.000 A 
ATOM      4  C   UNL     1       6.818   4.979  16.625  0.00  0.00    +0.000 A 
ATOM      5  C   UNL     1       6.640   5.053  18.013  0.00  0.00    +0.000 A 
ATOM      6  C   UNL     1       5.431   4.596  18.570  0.00  0.00    +0.000 A 
ENDROOT
BRANCH   1  10
ATOM      7  C   UNL     1       1.858   3.031  20.039  0.00  0.00    +0.000 A 
ATOM      8  C   UNL     1       1.072   2.951  18.908  0.00  0.00    +0.000 A 
ATOM      9  C   UNL     1       1.893   3.332  17.821  0.00  0.00    +0.000 A 
ATOM     10  C   UNL     1       3.139   3.622  18.341  0.00  0.00    +0.000 A 
ATOM     11  O   UNL     1       3.117   3.436  19.698  0.00  0.00    +0.000 OA
BRANCH   7  13
ATOM     12  O   UNL     1       2.329   3.003  22.358  0.00  0.00    +0.000 OA
ATOM     13  C   UNL     1       1.565   2.774  21.423  0.00  0.00    +0.000 C 
ENDBRANCH   7  13
ENDBRANCH   1  10
BRANCH   3  14
ATOM     14  C   UNL     1       6.057   4.317  14.311  0.00  0.00    +0.000 C 
ATOM     15  F   UNL     1       6.955   5.219  13.827  0.00  0.00    +0.000 F 
ATOM     16  F   UNL     1       6.527   3.091  13.955  0.00  0.00    +0.000 F 
ATOM     17  F   UNL     1       4.915   4.506  13.594  0.00  0.00    +0.000 F 
ENDBRANCH   3  14
BRANCH   5  18
ATOM     18  C   UNL     1       7.725   5.596  18.913  0.00  0.00    +0.000 C 
ATOM     19  F   UNL     1       8.195   6.812  18.519  0.00  0.00    +0.000 F 
ATOM     20  F   UNL     1       7.305   5.757  20.199  0.00  0.00    +0.000 F 
ATOM     21  F   UNL     1       8.810   4.777  18.971  0.00  0.00    +0.000 F 
ENDBRANCH   5  18
TORSDOF 4
ENDMDL
MODEL 2
REMARK VINA RESULT:      -8.2      0.088      1.161
REMARK  Name = 
REMARK  4 active torsions:
REMARK  status: ('A' for Active; 'I' for Inactive)
REMARK    1  A    between atoms: C_2  and  C_3
REMARK    2  A    between atoms: C_6  and  C_7
REMARK    3  A    between atoms: C_9  and  C_10
REMARK    4  A    between atoms: C_15  and  C_16
REMARK                            x       y       z     vdW  Elec       q    Type
REMARK                         _______ _______ _______ _____ _____    ______ ____
ROOT
ATOM      1  C   UNL     1       4.406   4.143  17.749  0.00  0.00    +0.000 A 
ATOM      2  C   UNL     1       4.625   4.052  16.366  0.00  0.00    +0.000 A 
ATOM      3  C   UNL     1       5.836   4.467  15.785  0.00  0.00    +0.000 A 
ATOM      4  C   UNL     1       6.838   4.997  16.611  0.00  0.00    +0.000 A 
ATOM      5  C   UNL     1       6.656   5.084  17.998  0.00  0.00    +0.000 A 
ATOM      6  C   UNL     1       5.438   4.652  18.553  0.00  0.00    +0.000 A 
ENDROOT
BRANCH   1  10
ATOM      7  C   UNL     1       1.848   3.102  20.013  0.00  0.00    +0.000 A 
ATOM      8  C   UNL     1       1.044   3.104  18.892  0.00  0.00    +0.000 A 
ATOM      9  C   UNL     1       1.866   3.499  17.809  0.00  0.00    +0.000 A 
ATOM     10  C   UNL     1       3.130   3.716  18.324  0.00  0.00    +0.000 A 
ATOM     11  O   UNL     1       3.118   3.471  19.671  0.00  0.00    +0.000 OA
BRANCH   7  13
ATOM     12  O   UNL     1       2.396   2.778  22.292  0.00  0.00    +0.000 OA
ATOM     13  C   UNL     1       1.563   2.796  21.388  0.00  0.00    +0.000 C 
ENDBRANCH   7  13
ENDBRANCH   1  10
BRANCH   3  14
ATOM     14  C   UNL     1       6.074   4.331  14.299  0.00  0.00    +0.000 C 
ATOM     15  F   UNL     1       4.956   4.536  13.549  0.00  0.00    +0.000 F 
ATOM     16  F   UNL     1       7.003   5.212  13.838  0.00  0.00    +0.000 F 
ATOM     17  F   UNL     1       6.528   3.093  13.962  0.00  0.00    +0.000 F 
ENDBRANCH   3  14
BRANCH   5  18
ATOM     18  C   UNL     1       7.747   5.615  18.898  0.00  0.00    +0.000 C 
ATOM     19  F   UNL     1       7.345   5.793  20.187  0.00  0.00    +0.000 F 
ATOM     20  F   UNL     1       8.827   4.788  18.954  0.00  0.00    +0.000 F 
ATOM     21  F   UNL     1       8.218   6.824  18.485  0.00  0.00    +0.000 F 
ENDBRANCH   5  18
TORSDOF 4
ENDMDL
MODEL 3
REMARK VINA RESULT:      -8.2      0.126      3.826
REMARK  Name = 
REMARK  4 active torsions:
REMARK  status: ('A' for Active; 'I' for Inactive)
REMARK    1  A    between atoms: C_2  and  C_3
REMARK    2  A    between atoms: C_6  and  C_7
REMARK    3  A    between atoms: C_9  and  C_10
REMARK    4  A    between atoms: C_15  and  C_16
REMARK                            x       y       z     vdW  Elec       q    Type
REMARK                         _______ _______ _______ _____ _____    ______ ____
ROOT
ATOM      1  C   UNL     1       4.384   4.153  17.750  0.00  0.00    +0.000 A 
ATOM      2  C   UNL     1       5.416   4.649  18.562  0.00  0.00    +0.000 A 
ATOM      3  C   UNL     1       6.657   5.028  18.023  0.00  0.00    +0.000 A 
ATOM      4  C   UNL     1       6.868   4.892  16.644  0.00  0.00    +0.000 A 
ATOM      5  C   UNL     1       5.851   4.418  15.804  0.00  0.00    +0.000 A 
ATOM      6  C   UNL     1       4.616   4.055  16.369  0.00  0.00    +0.000 A 
ENDROOT
BRANCH   1  10
ATOM      7  C   UNL     1       1.834   3.170  20.048  0.00  0.00    +0.000 A 
ATOM      8  C   UNL     1       1.017   3.183  18.936  0.00  0.00    +0.000 A 
ATOM      9  C   UNL     1       1.833   3.559  17.842  0.00  0.00    +0.000 A 
ATOM     10  C   UNL     1       3.107   3.753  18.341  0.00  0.00    +0.000 A 
ATOM     11  O   UNL     1       3.106   3.514  19.689  0.00  0.00    +0.000 OA
BRANCH   7  13
ATOM     12  O   UNL     1       2.415   2.669  22.286  0.00  0.00    +0.000 OA
ATOM     13  C   UNL     1       1.560   2.875  21.427  0.00  0.00    +0.000 C 
ENDBRANCH   7  13
ENDBRANCH   1  10
BRANCH   3  14
ATOM     14  C   UNL     1       7.748   5.593  18.903  0.00  0.00    +0.000 C 
ATOM     15  F   UNL     1       7.355   5.802  20.190  0.00  0.00    +0.000 F 
ATOM     16  F   UNL     1       8.837   4.779  18.970  0.00  0.00    +0.000 F 
ATOM     17  F   UNL     1       8.204   6.794  18.452  0.00  0.00    +0.000 F 
ENDBRANCH   3  14
BRANCH   5  18
ATOM     18  C   UNL     1       6.058   4.308  14.311  0.00  0.00    +0.000 C 
ATOM     19  F   UNL     1       6.526   3.091  13.919  0.00  0.00    +0.000 F 
ATOM     20  F   UNL     1       4.909   4.511  13.609  0.00  0.00    +0.000 F 
ATOM     21  F   UNL     1       6.953   5.220  13.843  0.00  0.00    +0.000 F 
ENDBRANCH   5  18
TORSDOF 4
ENDMDL
MODEL 4
REMARK VINA RESULT:      -8.2      0.140      3.837
REMARK  Name = 
REMARK  4 active torsions:
REMARK  status: ('A' for Active; 'I' for Inactive)
REMARK    1  A    between atoms: C_2  and  C_3
REMARK    2  A    between atoms: C_6  and  C_7
REMARK    3  A    between atoms: C_9  and  C_10
REMARK    4  A    between atoms: C_15  and  C_16
REMARK                            x       y       z     vdW  Elec       q    Type
REMARK                         _______ _______ _______ _____ _____    ______ ____
ROOT
ATOM      1  C   UNL     1       4.402   4.168  17.768  0.00  0.00    +0.000 A 
ATOM      2  C   UNL     1       5.428   4.670  18.585  0.00  0.00    +0.000 A 
ATOM      3  C   UNL     1       6.672   5.049  18.053  0.00  0.00    +0.000 A 
ATOM      4  C   UNL     1       6.893   4.905  16.675  0.00  0.00    +0.000 A 
ATOM      5  C   UNL     1       5.883   4.425  15.831  0.00  0.00    +0.000 A 
ATOM      6  C   UNL     1       4.644   4.062  16.389  0.00  0.00    +0.000 A 
ENDROOT
BRANCH   1  10
ATOM      7  C   UNL     1       1.847   3.154  20.046  0.00  0.00    +0.000 A 
ATOM      8  C   UNL     1       1.026   3.212  18.938  0.00  0.00    +0.000 A 
ATOM      9  C   UNL     1       1.844   3.609  17.853  0.00  0.00    +0.000 A 
ATOM     10  C   UNL     1       3.122   3.769  18.352  0.00  0.00    +0.000 A 
ATOM     11  O   UNL     1       3.123   3.489  19.693  0.00  0.00    +0.000 OA
BRANCH   7  13
ATOM     12  O   UNL     1       2.428   2.670  22.288  0.00  0.00    +0.000 OA
ATOM     13  C   UNL     1       1.574   2.821  21.417  0.00  0.00    +0.000 C 
ENDBRANCH   7  13
ENDBRANCH   1  10
BRANCH   3  14
ATOM     14  C   UNL     1       7.756   5.620  18.937  0.00  0.00    +0.000 C 
ATOM     15  F   UNL     1       8.217   6.831  18.520  0.00  0.00    +0.000 F 
ATOM     16  F   UNL     1       7.342   5.796  20.221  0.00  0.00    +0.000 F 
ATOM     17  F   UNL     1       8.848   4.808  19.002  0.00  0.00    +0.000 F 
ENDBRANCH   3  14
BRANCH   5  18
ATOM     18  C   UNL     1       6.100   4.307  14.340  0.00  0.00    +0.000 C 
ATOM     19  F   UNL     1       7.066   5.143  13.868  0.00  0.00    +0.000 F 
ATOM     20  F   UNL     1       6.475   3.053  13.964  0.00  0.00    +0.000 F 
ATOM     21  F   UNL     1       4.977   4.595  13.628  0.00  0.00    +0.000 F 
ENDBRANCH   5  18
TORSDOF 4
ENDMDL
MODEL 5
REMARK VINA RESULT:      -7.7      4.554      6.659
REMARK  Name = 
REMARK  4 active torsions:
REMARK  status: ('A' for Active; 'I' for Inactive)
REMARK    1  A    between atoms: C_2  and  C_3
REMARK    2  A    between atoms: C_6  and  C_7
REMARK    3  A    between atoms: C_9  and  C_10
REMARK    4  A    between atoms: C_15  and  C_16
REMARK                            x       y       z     vdW  Elec       q    Type
REMARK                         _______ _______ _______ _____ _____    ______ ____
ROOT
ATOM      1  C   UNL     1       3.234   5.869  18.750  0.00  0.00    +0.000 A 
ATOM      2  C   UNL     1       2.785   4.591  19.118  0.00  0.00    +0.000 A 
ATOM      3  C   UNL     1       1.803   4.414  20.107  0.00  0.00    +0.000 A 
ATOM      4  C   UNL     1       1.275   5.544  20.749  0.00  0.00    +0.000 A 
ATOM      5  C   UNL     1       1.689   6.834  20.390  0.00  0.00    +0.000 A 
ATOM      6  C   UNL     1       2.667   6.982  19.390  0.00  0.00    +0.000 A 
ENDROOT
BRANCH   1  10
ATOM      7  C   UNL     1       6.092   5.366  16.668  0.00  0.00    +0.000 A 
ATOM      8  C   UNL     1       5.678   6.529  16.052  0.00  0.00    +0.000 A 
ATOM      9  C   UNL     1       4.508   6.948  16.729  0.00  0.00    +0.000 A 
ATOM     10  C   UNL     1       4.268   6.022  17.726  0.00  0.00    +0.000 A 
ATOM     11  O   UNL     1       5.238   5.056  17.689  0.00  0.00    +0.000 OA
BRANCH   7  13
ATOM     12  O   UNL     1       8.096   4.232  17.214  0.00  0.00    +0.000 OA
ATOM     13  C   UNL     1       7.205   4.494  16.409  0.00  0.00    +0.000 C 
ENDBRANCH   7  13
ENDBRANCH   1  10
BRANCH   3  14
ATOM     14  C   UNL     1       1.303   3.035  20.470  0.00  0.00    +0.000 C 
ATOM     15  F   UNL     1       0.945   2.913  21.778  0.00  0.00    +0.000 F 
ATOM     16  F   UNL     1       0.210   2.670  19.746  0.00  0.00    +0.000 F 
ATOM     17  F   UNL     1       2.241   2.073  20.248  0.00  0.00    +0.000 F 
ENDBRANCH   3  14
BRANCH   5  18
ATOM     18  C   UNL     1       1.094   8.057  21.048  0.00  0.00    +0.000 C 
ATOM     19  F   UNL     1       1.066   9.149  20.234  0.00  0.00    +0.000 F 
ATOM     20  F   UNL     1      -0.191   7.859  21.452  0.00  0.00    +0.000 F 
ATOM     21  F   UNL     1       1.784   8.438  22.158  0.00  0.00    +0.000 F 
ENDBRANCH   5  18
TORSDOF 4
ENDMDL
MODEL 6
REMARK VINA RESULT:      -7.7      4.263      5.049
REMARK  Name = 
REMARK  4 active torsions:
REMARK  status: ('A' for Active; 'I' for Inactive)
REMARK    1  A    between atoms: C_2  and  C_3
REMARK    2  A    between atoms: C_6  and  C_7
REMARK    3  A    between atoms: C_9  and  C_10
REMARK    4  A    between atoms: C_15  and  C_16
REMARK                            x       y       z     vdW  Elec       q    Type
REMARK                         _______ _______ _______ _____ _____    ______ ____
ROOT
ATOM      1  C   UNL     1       2.890   6.508  18.005  0.00  0.00    +0.000 A 
ATOM      2  C   UNL     1       2.271   5.278  18.278  0.00  0.00    +0.000 A 
ATOM      3  C   UNL     1       2.844   4.060  17.872  0.00  0.00    +0.000 A 
ATOM      4  C   UNL     1       4.054   4.083  17.164  0.00  0.00    +0.000 A 
ATOM      5  C   UNL     1       4.706   5.293  16.891  0.00  0.00    +0.000 A 
ATOM      6  C   UNL     1       4.115   6.496  17.318  0.00  0.00    +0.000 A 
ENDROOT
BRANCH   1  10
ATOM      7  C   UNL     1       1.296   9.058  19.928  0.00  0.00    +0.000 A 
ATOM      8  C   UNL     1       1.375   9.795  18.764  0.00  0.00    +0.000 A 
ATOM      9  C   UNL     1       1.998   8.963  17.804  0.00  0.00    +0.000 A 
ATOM     10  C   UNL     1       2.264   7.760  18.428  0.00  0.00    +0.000 A 
ATOM     11  O   UNL     1       1.833   7.819  19.727  0.00  0.00    +0.000 OA
BRANCH   7  13
ATOM     12  O   UNL     1       1.258  10.215  21.993  0.00  0.00    +0.000 OA
ATOM     13  C   UNL     1       0.774   9.383  21.227  0.00  0.00    +0.000 C 
ENDBRANCH   7  13
ENDBRANCH   1  10
BRANCH   3  14
ATOM     14  C   UNL     1       2.185   2.741  18.203  0.00  0.00    +0.000 C 
ATOM     15  F   UNL     1       0.829   2.819  18.299  0.00  0.00    +0.000 F 
ATOM     16  F   UNL     1       2.442   1.783  17.271  0.00  0.00    +0.000 F 
ATOM     17  F   UNL     1       2.615   2.236  19.392  0.00  0.00    +0.000 F 
ENDBRANCH   3  14
BRANCH   5  18
ATOM     18  C   UNL     1       6.031   5.322  16.166  0.00  0.00    +0.000 C 
ATOM     19  F   UNL     1       6.905   6.236  16.672  0.00  0.00    +0.000 F 
ATOM     20  F   UNL     1       6.676   4.123  16.210  0.00  0.00    +0.000 F 
ATOM     21  F   UNL     1       5.894   5.628  14.847  0.00  0.00    +0.000 F 
ENDBRANCH   5  18
TORSDOF 4
ENDMDL
MODEL 7
REMARK VINA RESULT:      -7.7      4.310      5.036
REMARK  Name = 
REMARK  4 active torsions:
REMARK  status: ('A' for Active; 'I' for Inactive)
REMARK    1  A    between atoms: C_2  and  C_3
REMARK    2  A    between atoms: C_6  and  C_7
REMARK    3  A    between atoms: C_9  and  C_10
REMARK    4  A    between atoms: C_15  and  C_16
REMARK                            x       y       z     vdW  Elec       q    Type
REMARK                         _______ _______ _______ _____ _____    ______ ____
ROOT
ATOM      1  C   UNL     1       2.896   6.518  18.024  0.00  0.00    +0.000 A 
ATOM      2  C   UNL     1       2.267   5.289  18.279  0.00  0.00    +0.000 A 
ATOM      3  C   UNL     1       2.852   4.071  17.894  0.00  0.00    +0.000 A 
ATOM      4  C   UNL     1       4.085   4.091  17.225  0.00  0.00    +0.000 A 
ATOM      5  C   UNL     1       4.746   5.301  16.972  0.00  0.00    +0.000 A 
ATOM      6  C   UNL     1       4.142   6.505  17.378  0.00  0.00    +0.000 A 
ENDROOT
BRANCH   1  10
ATOM      7  C   UNL     1       1.314   9.103  19.912  0.00  0.00    +0.000 A 
ATOM      8  C   UNL     1       1.334   9.798  18.720  0.00  0.00    +0.000 A 
ATOM      9  C   UNL     1       1.940   8.945  17.767  0.00  0.00    +0.000 A 
ATOM     10  C   UNL     1       2.256   7.771  18.424  0.00  0.00    +0.000 A 
ATOM     11  O   UNL     1       1.872   7.869  19.735  0.00  0.00    +0.000 OA
BRANCH   7  13
ATOM     12  O   UNL     1       1.161  10.477  21.832  0.00  0.00    +0.000 OA
ATOM     13  C   UNL     1       0.833   9.465  21.217  0.00  0.00    +0.000 C 
ENDBRANCH   7  13
ENDBRANCH   1  10
BRANCH   3  14
ATOM     14  C   UNL     1       2.182   2.753  18.205  0.00  0.00    +0.000 C 
ATOM     15  F   UNL     1       2.581   2.205  19.386  0.00  0.00    +0.000 F 
ATOM     16  F   UNL     1       0.828   2.861  18.278  0.00  0.00    +0.000 F 
ATOM     17  F   UNL     1       2.434   1.811  17.254  0.00  0.00    +0.000 F 
ENDBRANCH   3  14
BRANCH   5  18
ATOM     18  C   UNL     1       6.093   5.328  16.290  0.00  0.00    +0.000 C 
ATOM     19  F   UNL     1       6.011   5.329  14.930  0.00  0.00    +0.000 F 
ATOM     20  F   UNL     1       6.825   6.427  16.621  0.00  0.00    +0.000 F 
ATOM     21  F   UNL     1       6.861   4.252  16.615  0.00  0.00    +0.000 F 
ENDBRANCH   5  18
TORSDOF 4
ENDMDL
MODEL 8
REMARK VINA RESULT:      -7.7      4.300      5.045
REMARK  Name = 
REMARK  4 active torsions:
REMARK  status: ('A' for Active; 'I' for Inactive)
REMARK    1  A    between atoms: C_2  and  C_3
REMARK    2  A    between atoms: C_6  and  C_7
REMARK    3  A    between atoms: C_9  and  C_10
REMARK    4  A    between atoms: C_15  and  C_16
REMARK                            x       y       z     vdW  Elec       q    Type
REMARK                         _______ _______ _______ _____ _____    ______ ____
ROOT
ATOM      1  C   UNL     1       2.910   6.552  18.011  0.00  0.00    +0.000 A 
ATOM      2  C   UNL     1       2.281   5.322  18.262  0.00  0.00    +0.000 A 
ATOM      3  C   UNL     1       2.870   4.104  17.882  0.00  0.00    +0.000 A 
ATOM      4  C   UNL     1       4.107   4.126  17.223  0.00  0.00    +0.000 A 
ATOM      5  C   UNL     1       4.769   5.337  16.974  0.00  0.00    +0.000 A 
ATOM      6  C   UNL     1       4.161   6.540  17.374  0.00  0.00    +0.000 A 
ENDROOT
BRANCH   1  10
ATOM      7  C   UNL     1       1.282   9.124  19.878  0.00  0.00    +0.000 A 
ATOM      8  C   UNL     1       1.348   9.834  18.697  0.00  0.00    +0.000 A 
ATOM      9  C   UNL     1       1.980   8.989  17.755  0.00  0.00    +0.000 A 
ATOM     10  C   UNL     1       2.266   7.804  18.406  0.00  0.00    +0.000 A 
ATOM     11  O   UNL     1       1.836   7.888  19.704  0.00  0.00    +0.000 OA
BRANCH   7  13
ATOM     12  O   UNL     1       1.236  10.323  21.918  0.00  0.00    +0.000 OA
ATOM     13  C   UNL     1       0.758   9.471  21.171  0.00  0.00    +0.000 C 
ENDBRANCH   7  13
ENDBRANCH   1  10
BRANCH   3  14
ATOM     14  C   UNL     1       2.200   2.786  18.189  0.00  0.00    +0.000 C 
ATOM     15  F   UNL     1       2.426   1.828  17.247  0.00  0.00    +0.000 F 
ATOM     16  F   UNL     1       2.612   2.254  19.372  0.00  0.00    +0.000 F 
ATOM     17  F   UNL     1       0.846   2.906  18.281  0.00  0.00    +0.000 F 
ENDBRANCH   3  14
BRANCH   5  18
ATOM     18  C   UNL     1       6.122   5.365  16.302  0.00  0.00    +0.000 C 
ATOM     19  F   UNL     1       6.894   4.282  16.598  0.00  0.00    +0.000 F 
ATOM     20  F   UNL     1       6.030   5.398  14.944  0.00  0.00    +0.000 F 
ATOM     21  F   UNL     1       6.856   6.454  16.658  0.00  0.00    +0.000 F 
ENDBRANCH   5  18
TORSDOF 4
ENDMDL
MODEL 9
REMARK VINA RESULT:      -7.7      3.891      4.692
REMARK  Name = 
REMARK  4 active torsions:
REMARK  status: ('A' for Active; 'I' for Inactive)
REMARK    1  A    between atoms: C_2  and  C_3
REMARK    2  A    between atoms: C_6  and  C_7
REMARK    3  A    between atoms: C_9  and  C_10
REMARK    4  A    between atoms: C_15  and  C_16
REMARK                            x       y       z     vdW  Elec       q    Type
REMARK                         _______ _______ _______ _____ _____    ______ ____
ROOT
ATOM      1  C   UNL     1       3.320   6.015  18.169  0.00  0.00    +0.000 A 
ATOM      2  C   UNL     1       4.562   6.170  17.533  0.00  0.00    +0.000 A 
ATOM      3  C   UNL     1       5.308   5.061  17.098  0.00  0.00    +0.000 A 
ATOM      4  C   UNL     1       4.801   3.773  17.321  0.00  0.00    +0.000 A 
ATOM      5  C   UNL     1       3.555   3.586  17.937  0.00  0.00    +0.000 A 
ATOM      6  C   UNL     1       2.826   4.714  18.354  0.00  0.00    +0.000 A 
ENDROOT
BRANCH   1  10
ATOM      7  C   UNL     1       1.576   8.394  20.181  0.00  0.00    +0.000 A 
ATOM      8  C   UNL     1       1.456   9.100  19.002  0.00  0.00    +0.000 A 
ATOM      9  C   UNL     1       2.097   8.327  18.004  0.00  0.00    +0.000 A 
ATOM     10  C   UNL     1       2.573   7.188  18.624  0.00  0.00    +0.000 A 
ATOM     11  O   UNL     1       2.252   7.229  19.955  0.00  0.00    +0.000 OA
BRANCH   7  13
ATOM     12  O   UNL     1       1.367   9.730  22.124  0.00  0.00    +0.000 OA
ATOM     13  C   UNL     1       1.131   8.688  21.516  0.00  0.00    +0.000 C 
ENDBRANCH   7  13
ENDBRANCH   1  10
BRANCH   3  14
ATOM     14  C   UNL     1       6.627   5.242  16.384  0.00  0.00    +0.000 C 
ATOM     15  F   UNL     1       7.551   4.292  16.698  0.00  0.00    +0.000 F 
ATOM     16  F   UNL     1       6.496   5.204  15.029  0.00  0.00    +0.000 F 
ATOM     17  F   UNL     1       7.208   6.439  16.672  0.00  0.00    +0.000 F 
ENDBRANCH   3  14
BRANCH   5  18
ATOM     18  C   UNL     1       2.985   2.203  18.143  0.00  0.00    +0.000 C 
ATOM     19  F   UNL     1       2.075   1.847  17.193  0.00  0.00    +0.000 F 
ATOM     20  F   UNL     1       3.942   1.235  18.124  0.00  0.00    +0.000 F 
ATOM     21  F   UNL     1       2.344   2.078  19.337  0.00  0.00    +0.000 F 
ENDBRANCH   5  18
TORSDOF 4
ENDMDL
