MODEL 1
REMARK VINA RESULT:      -5.7      0.000      0.000
REMARK  Name = 
REMARK  2 active torsions:
REMARK  status: ('A' for Active; 'I' for Inactive)
REMARK    1  A    between atoms: C_1  and  N_2
REMARK    2  A    between atoms: C_7  and  O_8
REMARK                            x       y       z     vdW  Elec       q    Type
REMARK                         _______ _______ _______ _____ _____    ______ ____
ROOT
ATOM      1  C   UNL     1       6.269   5.177  15.359  0.00  0.00    +0.000 C 
ATOM      2  N   UNL     1       5.008   5.077  16.089  0.00  0.00    +0.000 NA
ATOM      3  C   UNL     1       4.949   6.060  17.178  0.00  0.00    +0.000 C 
ATOM      4  C   UNL     1       3.536   6.094  17.778  0.00  0.00    +0.000 C 
ATOM      5  C   UNL     1       3.026   4.717  18.123  0.00  0.00    +0.000 A 
ATOM      6  C   UNL     1       1.921   4.569  18.973  0.00  0.00    +0.000 A 
ATOM      7  C   UNL     1       1.446   3.295  19.269  0.00  0.00    +0.000 A 
ATOM      8  C   UNL     1       2.048   2.167  18.730  0.00  0.00    +0.000 A 
ATOM      9  C   UNL     1       3.137   2.308  17.869  0.00  0.00    +0.000 A 
ATOM     10  C   UNL     1       3.626   3.583  17.543  0.00  0.00    +0.000 A 
ATOM     11  C   UNL     1       4.833   3.718  16.635  0.00  0.00    +0.000 C 
ENDROOT
BRANCH   7  12
ATOM     12  O   UNL     1       0.379   3.112  20.099  0.00  0.00    +0.000 OA
ATOM     13  H   UNL     1       0.645   2.509  20.813  0.00  0.00    +0.000 HD
ENDBRANCH   7  12
TORSDOF 1
ENDMDL
MODEL 2
REMARK VINA RESULT:      -5.7      2.844      4.945
REMARK  Name = 
REMARK  2 active torsions:
REMARK  status: ('A' for Active; 'I' for Inactive)
REMARK    1  A    between atoms: C_1  and  N_2
REMARK    2  A    between atoms: C_7  and  O_8
REMARK                            x       y       z     vdW  Elec       q    Type
REMARK                         _______ _______ _______ _____ _____    ______ ____
ROOT
ATOM      1  C   UNL     1       0.928   3.745  20.191  0.00  0.00    +0.000 C 
ATOM      2  N   UNL     1       1.757   3.858  18.993  0.00  0.00    +0.000 NA
ATOM      3  C   UNL     1       2.707   2.742  18.901  0.00  0.00    +0.000 C 
ATOM      4  C   UNL     1       3.399   2.755  17.532  0.00  0.00    +0.000 C 
ATOM      5  C   UNL     1       3.962   4.111  17.186  0.00  0.00    +0.000 A 
ATOM      6  C   UNL     1       4.904   4.240  16.156  0.00  0.00    +0.000 A 
ATOM      7  C   UNL     1       5.402   5.498  15.832  0.00  0.00    +0.000 A 
ATOM      8  C   UNL     1       4.974   6.630  16.511  0.00  0.00    +0.000 A 
ATOM      9  C   UNL     1       4.023   6.511  17.526  0.00  0.00    +0.000 A 
ATOM     10  C   UNL     1       3.496   5.255  17.862  0.00  0.00    +0.000 A 
ATOM     11  C   UNL     1       2.491   5.137  18.991  0.00  0.00    +0.000 C 
ENDROOT
BRANCH   7  12
ATOM     12  O   UNL     1       6.326   5.661  14.841  0.00  0.00    +0.000 OA
ATOM     13  H   UNL     1       6.559   6.603  14.790  0.00  0.00    +0.000 HD
ENDBRANCH   7  12
TORSDOF 1
ENDMDL
MODEL 3
REMARK VINA RESULT:      -5.7      3.069      4.891
REMARK  Name = 
REMARK  2 active torsions:
REMARK  status: ('A' for Active; 'I' for Inactive)
REMARK    1  A    between atoms: C_1  and  N_2
REMARK    2  A    between atoms: C_7  and  O_8
REMARK                            x       y       z     vdW  Elec       q    Type
REMARK                         _______ _______ _______ _____ _____    ______ ____
ROOT
ATOM      1  C   UNL     1       1.074   3.661  20.320  0.00  0.00    +0.000 C 
ATOM      2  N   UNL     1       2.033   3.952  19.258  0.00  0.00    +0.000 NA
ATOM      3  C   UNL     1       2.118   2.840  18.303  0.00  0.00    +0.000 C 
ATOM      4  C   UNL     1       2.948   3.259  17.082  0.00  0.00    +0.000 C 
ATOM      5  C   UNL     1       4.267   3.877  17.470  0.00  0.00    +0.000 A 
ATOM      6  C   UNL     1       5.289   4.012  16.519  0.00  0.00    +0.000 A 
ATOM      7  C   UNL     1       6.495   4.602  16.882  0.00  0.00    +0.000 A 
ATOM      8  C   UNL     1       6.700   5.066  18.174  0.00  0.00    +0.000 A 
ATOM      9  C   UNL     1       5.682   4.952  19.121  0.00  0.00    +0.000 A 
ATOM     10  C   UNL     1       4.451   4.373  18.775  0.00  0.00    +0.000 A 
ATOM     11  C   UNL     1       3.367   4.223  19.825  0.00  0.00    +0.000 C 
ENDROOT
BRANCH   7  12
ATOM     12  O   UNL     1       7.514   4.741  15.987  0.00  0.00    +0.000 OA
ATOM     13  H   UNL     1       7.489   3.989  15.373  0.00  0.00    +0.000 HD
ENDBRANCH   7  12
TORSDOF 1
ENDMDL
MODEL 4
REMARK VINA RESULT:      -5.6      1.277      1.320
REMARK  Name = 
REMARK  2 active torsions:
REMARK  status: ('A' for Active; 'I' for Inactive)
REMARK    1  A    between atoms: C_1  and  N_2
REMARK    2  A    between atoms: C_7  and  O_8
REMARK                            x       y       z     vdW  Elec       q    Type
REMARK                         _______ _______ _______ _____ _____    ______ ____
ROOT
ATOM      1  C   UNL     1       6.987   4.910  15.997  0.00  0.00    +0.000 C 
ATOM      2  N   UNL     1       5.881   5.003  16.946  0.00  0.00    +0.000 NA
ATOM      3  C   UNL     1       6.353   4.830  18.326  0.00  0.00    +0.000 C 
ATOM      4  C   UNL     1       5.224   5.160  19.311  0.00  0.00    +0.000 C 
ATOM      5  C   UNL     1       3.940   4.444  18.974  0.00  0.00    +0.000 A 
ATOM      6  C   UNL     1       2.915   4.351  19.926  0.00  0.00    +0.000 A 
ATOM      7  C   UNL     1       1.727   3.705  19.598  0.00  0.00    +0.000 A 
ATOM      8  C   UNL     1       1.539   3.156  18.337  0.00  0.00    +0.000 A 
ATOM      9  C   UNL     1       2.549   3.260  17.379  0.00  0.00    +0.000 A 
ATOM     10  C   UNL     1       3.751   3.919  17.682  0.00  0.00    +0.000 A 
ATOM     11  C   UNL     1       4.852   3.992  16.641  0.00  0.00    +0.000 C 
ENDROOT
BRANCH   7  12
ATOM     12  O   UNL     1       0.711   3.588  20.501  0.00  0.00    +0.000 OA
ATOM     13  H   UNL     1      -0.069   3.236  20.042  0.00  0.00    +0.000 HD
ENDBRANCH   7  12
TORSDOF 1
ENDMDL
MODEL 5
REMARK VINA RESULT:      -5.6      1.669      2.332
REMARK  Name = 
REMARK  2 active torsions:
REMARK  status: ('A' for Active; 'I' for Inactive)
REMARK    1  A    between atoms: C_1  and  N_2
REMARK    2  A    between atoms: C_7  and  O_8
REMARK                            x       y       z     vdW  Elec       q    Type
REMARK                         _______ _______ _______ _____ _____    ______ ____
ROOT
ATOM      1  C   UNL     1       7.381   5.519  18.664  0.00  0.00    +0.000 C 
ATOM      2  N   UNL     1       6.230   4.644  18.469  0.00  0.00    +0.000 NA
ATOM      3  C   UNL     1       5.750   4.703  17.082  0.00  0.00    +0.000 C 
ATOM      4  C   UNL     1       4.698   3.612  16.844  0.00  0.00    +0.000 C 
ATOM      5  C   UNL     1       3.620   3.613  17.899  0.00  0.00    +0.000 A 
ATOM      6  C   UNL     1       2.416   2.931  17.676  0.00  0.00    +0.000 A 
ATOM      7  C   UNL     1       1.436   2.922  18.665  0.00  0.00    +0.000 A 
ATOM      8  C   UNL     1       1.637   3.575  19.873  0.00  0.00    +0.000 A 
ATOM      9  C   UNL     1       2.841   4.241  20.108  0.00  0.00    +0.000 A 
ATOM     10  C   UNL     1       3.850   4.253  19.132  0.00  0.00    +0.000 A 
ATOM     11  C   UNL     1       5.137   5.011  19.389  0.00  0.00    +0.000 C 
ENDROOT
BRANCH   7  12
ATOM     12  O   UNL     1       0.249   2.276  18.480  0.00  0.00    +0.000 OA
ATOM     13  H   UNL     1      -0.303   2.417  19.266  0.00  0.00    +0.000 HD
ENDBRANCH   7  12
TORSDOF 1
ENDMDL
MODEL 6
REMARK VINA RESULT:      -5.6      2.937      4.522
REMARK  Name = 
REMARK  2 active torsions:
REMARK  status: ('A' for Active; 'I' for Inactive)
REMARK    1  A    between atoms: C_1  and  N_2
REMARK    2  A    between atoms: C_7  and  O_8
REMARK                            x       y       z     vdW  Elec       q    Type
REMARK                         _______ _______ _______ _____ _____    ______ ____
ROOT
ATOM      1  C   UNL     1       1.797   2.990  21.474  0.00  0.00    +0.000 C 
ATOM      2  N   UNL     1       2.581   3.893  20.636  0.00  0.00    +0.000 NA
ATOM      3  C   UNL     1       1.834   5.123  20.344  0.00  0.00    +0.000 C 
ATOM      4  C   UNL     1       2.755   6.146  19.665  0.00  0.00    +0.000 C 
ATOM      5  C   UNL     1       3.506   5.556  18.498  0.00  0.00    +0.000 A 
ATOM      6  C   UNL     1       4.125   6.396  17.561  0.00  0.00    +0.000 A 
ATOM      7  C   UNL     1       4.833   5.841  16.500  0.00  0.00    +0.000 A 
ATOM      8  C   UNL     1       4.940   4.464  16.358  0.00  0.00    +0.000 A 
ATOM      9  C   UNL     1       4.342   3.622  17.296  0.00  0.00    +0.000 A 
ATOM     10  C   UNL     1       3.635   4.158  18.383  0.00  0.00    +0.000 A 
ATOM     11  C   UNL     1       2.960   3.230  19.374  0.00  0.00    +0.000 C 
ENDROOT
BRANCH   7  12
ATOM     12  O   UNL     1       5.440   6.627  15.564  0.00  0.00    +0.000 OA
ATOM     13  H   UNL     1       6.339   6.290  15.417  0.00  0.00    +0.000 HD
ENDBRANCH   7  12
TORSDOF 1
ENDMDL
MODEL 7
REMARK VINA RESULT:      -5.6      3.121      5.130
REMARK  Name = 
REMARK  2 active torsions:
REMARK  status: ('A' for Active; 'I' for Inactive)
REMARK    1  A    between atoms: C_1  and  N_2
REMARK    2  A    between atoms: C_7  and  O_8
REMARK                            x       y       z     vdW  Elec       q    Type
REMARK                         _______ _______ _______ _____ _____    ______ ____
ROOT
ATOM      1  C   UNL     1       2.213   4.817  20.458  0.00  0.00    +0.000 C 
ATOM      2  N   UNL     1       2.921   4.890  19.183  0.00  0.00    +0.000 NA
ATOM      3  C   UNL     1       2.985   3.572  18.538  0.00  0.00    +0.000 C 
ATOM      4  C   UNL     1       3.522   3.714  17.108  0.00  0.00    +0.000 C 
ATOM      5  C   UNL     1       4.794   4.522  17.050  0.00  0.00    +0.000 A 
ATOM      6  C   UNL     1       5.604   4.479  15.906  0.00  0.00    +0.000 A 
ATOM      7  C   UNL     1       6.765   5.244  15.855  0.00  0.00    +0.000 A 
ATOM      8  C   UNL     1       7.131   6.055  16.920  0.00  0.00    +0.000 A 
ATOM      9  C   UNL     1       6.320   6.116  18.055  0.00  0.00    +0.000 A 
ATOM     10  C   UNL     1       5.137   5.365  18.124  0.00  0.00    +0.000 A 
ATOM     11  C   UNL     1       4.286   5.415  19.378  0.00  0.00    +0.000 C 
ENDROOT
BRANCH   7  12
ATOM     12  O   UNL     1       7.582   5.221  14.763  0.00  0.00    +0.000 OA
ATOM     13  H   UNL     1       8.494   5.076  15.064  0.00  0.00    +0.000 HD
ENDBRANCH   7  12
TORSDOF 1
ENDMDL
MODEL 8
REMARK VINA RESULT:      -5.5      1.148      2.209
REMARK  Name = 
REMARK  2 active torsions:
REMARK  status: ('A' for Active; 'I' for Inactive)
REMARK    1  A    between atoms: C_1  and  N_2
REMARK    2  A    between atoms: C_7  and  O_8
REMARK                            x       y       z     vdW  Elec       q    Type
REMARK                         _______ _______ _______ _____ _____    ______ ____
ROOT
ATOM      1  C   UNL     1       6.375   7.128  17.227  0.00  0.00    +0.000 C 
ATOM      2  N   UNL     1       5.587   5.914  17.421  0.00  0.00    +0.000 NA
ATOM      3  C   UNL     1       5.339   5.234  16.143  0.00  0.00    +0.000 C 
ATOM      4  C   UNL     1       4.717   3.854  16.395  0.00  0.00    +0.000 C 
ATOM      5  C   UNL     1       3.534   3.920  17.329  0.00  0.00    +0.000 A 
ATOM      6  C   UNL     1       2.643   2.841  17.414  0.00  0.00    +0.000 A 
ATOM      7  C   UNL     1       1.567   2.904  18.294  0.00  0.00    +0.000 A 
ATOM      8  C   UNL     1       1.366   4.020  19.095  0.00  0.00    +0.000 A 
ATOM      9  C   UNL     1       2.260   5.090  19.029  0.00  0.00    +0.000 A 
ATOM     10  C   UNL     1       3.361   5.044  18.160  0.00  0.00    +0.000 A 
ATOM     11  C   UNL     1       4.302   6.230  18.073  0.00  0.00    +0.000 C 
ENDROOT
BRANCH   7  12
ATOM     12  O   UNL     1       0.675   1.878  18.397  0.00  0.00    +0.000 OA
ATOM     13  H   UNL     1       1.149   1.089  18.706  0.00  0.00    +0.000 HD
ENDBRANCH   7  12
TORSDOF 1
ENDMDL
MODEL 9
REMARK VINA RESULT:      -5.5      3.357      5.072
REMARK  Name = 
REMARK  2 active torsions:
REMARK  status: ('A' for Active; 'I' for Inactive)
REMARK    1  A    between atoms: C_1  and  N_2
REMARK    2  A    between atoms: C_7  and  O_8
REMARK                            x       y       z     vdW  Elec       q    Type
REMARK                         _______ _______ _______ _____ _____    ______ ____
ROOT
ATOM      1  C   UNL     1       3.171   3.303  19.928  0.00  0.00    +0.000 C 
ATOM      2  N   UNL     1       4.318   3.705  19.119  0.00  0.00    +0.000 NA
ATOM      3  C   UNL     1       4.675   5.108  19.369  0.00  0.00    +0.000 C 
ATOM      4  C   UNL     1       6.012   5.438  18.692  0.00  0.00    +0.000 C 
ATOM      5  C   UNL     1       6.043   5.013  17.245  0.00  0.00    +0.000 A 
ATOM      6  C   UNL     1       7.026   5.520  16.384  0.00  0.00    +0.000 A 
ATOM      7  C   UNL     1       7.057   5.106  15.055  0.00  0.00    +0.000 A 
ATOM      8  C   UNL     1       6.130   4.192  14.572  0.00  0.00    +0.000 A 
ATOM      9  C   UNL     1       5.160   3.670  15.429  0.00  0.00    +0.000 A 
ATOM     10  C   UNL     1       5.117   4.061  16.776  0.00  0.00    +0.000 A 
ATOM     11  C   UNL     1       4.034   3.513  17.685  0.00  0.00    +0.000 C 
ENDROOT
BRANCH   7  12
ATOM     12  O   UNL     1       7.993   5.584  14.186  0.00  0.00    +0.000 OA
ATOM     13  H   UNL     1       8.865   5.266  14.468  0.00  0.00    +0.000 HD
ENDBRANCH   7  12
TORSDOF 1
ENDMDL
