MODEL 1
REMARK VINA RESULT:      -8.6      0.000      0.000
REMARK  Name = 
REMARK  7 active torsions:
REMARK  status: ('A' for Active; 'I' for Inactive)
REMARK    1  A    between atoms: C_2  and  C_15
REMARK    2  A    between atoms: N_3  and  CA_4
REMARK    3  A    between atoms: CA_4  and  CB_5
REMARK    4  A    between atoms: CA_4  and  C_12
REMARK    5  A    between atoms: CB_5  and  CG_6
REMARK    6  A    between atoms: C_12  and  OXT_14
REMARK    7  A    between atoms: C_20  and  C_21
REMARK                            x       y       z     vdW  Elec       q    Type
REMARK                         _______ _______ _______ _____ _____    ______ ____
ROOT
ATOM      1  O   UNK A   0       1.880   9.057  18.662  0.00  0.00    +0.000 OA
ATOM      2  C   UNK A   0       1.719   8.306  19.620  0.00  0.00    +0.000 C 
ATOM      3  N   PHE A   1       1.047   8.687  20.756  0.00  0.00    +0.000 N 
ATOM      4  H   PHE A   1       1.034   8.103  21.585  0.00  0.00    +0.000 HD
ENDROOT
BRANCH   2   5
ATOM      5  C   UNK A   0       2.292   6.931  19.593  0.00  0.00    +0.000 A 
ATOM      6  C   UNK A   0       1.774   5.999  20.492  0.00  0.00    +0.000 A 
ATOM      7  C   UNK A   0       2.315   4.720  20.550  0.00  0.00    +0.000 A 
ATOM      8  C   UNK A   0       3.391   4.359  19.725  0.00  0.00    +0.000 A 
ATOM      9 CL   UNK A   0       4.030   2.774  20.031  0.00  0.00    +0.000 Cl
ATOM     10  C   UNK A   0       3.931   5.265  18.778  0.00  0.00    +0.000 A 
ATOM     11  C   UNK A   0       3.351   6.562  18.745  0.00  0.00    +0.000 A 
BRANCH  10  12
ATOM     12  C   UNK A   0       5.053   4.945  17.840  0.00  0.00    +0.000 A 
ATOM     13  C   UNK A   0       6.391   4.882  18.286  0.00  0.00    +0.000 A 
ATOM     14  C   UNK A   0       7.453   4.609  17.414  0.00  0.00    +0.000 A 
ATOM     15  C   UNK A   0       7.204   4.352  16.071  0.00  0.00    +0.000 A 
ATOM     16  C   UNK A   0       5.898   4.401  15.604  0.00  0.00    +0.000 A 
ATOM     17 CL   UNK A   0       5.568   4.058  13.949  0.00  0.00    +0.000 Cl
ATOM     18  C   UNK A   0       4.846   4.725  16.465  0.00  0.00    +0.000 A 
ENDBRANCH  10  12
ENDBRANCH   2   5
BRANCH   3  19
ATOM     19  CA  PHE A   1       0.469  10.030  20.885  0.00  0.00    +0.000 C 
BRANCH  19  20
ATOM     20  C   PHE A   1       0.326  10.326  22.379  0.00  0.00    +0.000 C 
ATOM     21  O   PHE A   1       0.748   9.575  23.257  0.00  0.00    +0.000 OA
BRANCH  20  22
ATOM     22  OXT PHE A   1      -0.315  11.477  22.672  0.00  0.00    +0.000 OA
ATOM     23  HXT PHE A   1      -0.103  12.227  22.087  0.00  0.00    +0.000 HD
ENDBRANCH  20  22
ENDBRANCH  19  20
BRANCH  19  24
ATOM     24  CB  PHE A   1      -0.885  10.095  20.165  0.00  0.00    +0.000 C 
BRANCH  24  25
ATOM     25  CG  PHE A   1      -0.896  10.939  18.869  0.00  0.00    +0.000 C 
ATOM     26  CD1 PHE A   1      -1.366  10.152  17.635  0.00  0.00    +0.000 C 
ATOM     27  CE1 PHE A   1      -2.855   9.826  17.680  0.00  0.00    +0.000 C 
ATOM     28  CZ  PHE A   1      -3.690  11.092  17.839  0.00  0.00    +0.000 C 
ATOM     29  CE2 PHE A   1      -3.257  11.919  19.047  0.00  0.00    +0.000 C 
ATOM     30  CD2 PHE A   1      -1.757  12.207  19.034  0.00  0.00    +0.000 C 
ENDBRANCH  24  25
ENDBRANCH  19  24
ENDBRANCH   3  19
TORSDOF 7
ENDMDL
MODEL 2
REMARK VINA RESULT:      -8.0      1.769      3.605
REMARK  Name = 
REMARK  7 active torsions:
REMARK  status: ('A' for Active; 'I' for Inactive)
REMARK    1  A    between atoms: C_2  and  C_15
REMARK    2  A    between atoms: N_3  and  CA_4
REMARK    3  A    between atoms: CA_4  and  CB_5
REMARK    4  A    between atoms: CA_4  and  C_12
REMARK    5  A    between atoms: CB_5  and  CG_6
REMARK    6  A    between atoms: C_12  and  OXT_14
REMARK    7  A    between atoms: C_20  and  C_21
REMARK                            x       y       z     vdW  Elec       q    Type
REMARK                         _______ _______ _______ _____ _____    ______ ____
ROOT
ATOM      1  O   UNK A   0       2.181  10.088  17.444  0.00  0.00    +0.000 OA
ATOM      2  C   UNK A   0       2.102   9.125  18.200  0.00  0.00    +0.000 C 
ATOM      3  N   PHE A   1       1.364   9.150  19.358  0.00  0.00    +0.000 N 
ATOM      4  H   PHE A   1       1.412   8.395  20.034  0.00  0.00    +0.000 HD
ENDROOT
BRANCH   2   5
ATOM      5  C   UNK A   0       2.853   7.875  17.895  0.00  0.00    +0.000 A 
ATOM      6  C   UNK A   0       3.989   7.984  17.094  0.00  0.00    +0.000 A 
ATOM      7  C   UNK A   0       4.691   6.841  16.729  0.00  0.00    +0.000 A 
ATOM      8  C   UNK A   0       4.257   5.572  17.143  0.00  0.00    +0.000 A 
ATOM      9 CL   UNK A   0       5.166   4.250  16.479  0.00  0.00    +0.000 Cl
ATOM     10  C   UNK A   0       3.123   5.415  17.980  0.00  0.00    +0.000 A 
ATOM     11  C   UNK A   0       2.434   6.607  18.335  0.00  0.00    +0.000 A 
BRANCH  10  12
ATOM     12  C   UNK A   0       2.619   4.103  18.492  0.00  0.00    +0.000 A 
ATOM     13  C   UNK A   0       2.461   2.990  17.636  0.00  0.00    +0.000 A 
ATOM     14  C   UNK A   0       1.967   1.763  18.097  0.00  0.00    +0.000 A 
ATOM     15  C   UNK A   0       1.648   1.599  19.440  0.00  0.00    +0.000 A 
ATOM     16  C   UNK A   0       1.797   2.673  20.306  0.00  0.00    +0.000 A 
ATOM     17 CL   UNK A   0       1.435   2.481  21.978  0.00  0.00    +0.000 Cl
ATOM     18  C   UNK A   0       2.242   3.912  19.834  0.00  0.00    +0.000 A 
ENDBRANCH  10  12
ENDBRANCH   2   5
BRANCH   3  19
ATOM     19  CA  PHE A   1       0.610  10.346  19.756  0.00  0.00    +0.000 C 
BRANCH  19  20
ATOM     20  C   PHE A   1       0.775  10.510  21.268  0.00  0.00    +0.000 C 
ATOM     21  O   PHE A   1       0.647  11.589  21.845  0.00  0.00    +0.000 OA
BRANCH  20  22
ATOM     22  OXT PHE A   1       1.088   9.379  21.933  0.00  0.00    +0.000 OA
ATOM     23  HXT PHE A   1       0.645   8.574  21.607  0.00  0.00    +0.000 HD
ENDBRANCH  20  22
ENDBRANCH  19  20
BRANCH  19  24
ATOM     24  CB  PHE A   1      -0.867  10.194  19.363  0.00  0.00    +0.000 C 
BRANCH  24  25
ATOM     25  CG  PHE A   1      -1.255  10.854  18.019  0.00  0.00    +0.000 C 
ATOM     26  CD1 PHE A   1      -1.963   9.890  17.053  0.00  0.00    +0.000 C 
ATOM     27  CE1 PHE A   1      -3.370   9.526  17.517  0.00  0.00    +0.000 C 
ATOM     28  CZ  PHE A   1      -4.221  10.773  17.725  0.00  0.00    +0.000 C 
ATOM     29  CE2 PHE A   1      -3.557  11.770  18.671  0.00  0.00    +0.000 C 
ATOM     30  CD2 PHE A   1      -2.130  12.103  18.241  0.00  0.00    +0.000 C 
ENDBRANCH  24  25
ENDBRANCH  19  24
ENDBRANCH   3  19
TORSDOF 7
ENDMDL
MODEL 3
REMARK VINA RESULT:      -8.0      3.865      8.831
REMARK  Name = 
REMARK  7 active torsions:
REMARK  status: ('A' for Active; 'I' for Inactive)
REMARK    1  A    between atoms: C_2  and  C_15
REMARK    2  A    between atoms: N_3  and  CA_4
REMARK    3  A    between atoms: CA_4  and  CB_5
REMARK    4  A    between atoms: CA_4  and  C_12
REMARK    5  A    between atoms: CB_5  and  CG_6
REMARK    6  A    between atoms: C_12  and  OXT_14
REMARK    7  A    between atoms: C_20  and  C_21
REMARK                            x       y       z     vdW  Elec       q    Type
REMARK                         _______ _______ _______ _____ _____    ______ ____
ROOT
ATOM      1  O   UNK A   0       3.305   5.676  19.893  0.00  0.00    +0.000 OA
ATOM      2  C   UNK A   0       2.918   6.163  18.835  0.00  0.00    +0.000 C 
ATOM      3  N   PHE A   1       3.025   5.507  17.633  0.00  0.00    +0.000 N 
ATOM      4  H   PHE A   1       2.820   5.972  16.755  0.00  0.00    +0.000 HD
ENDROOT
BRANCH   2   5
ATOM      5  C   UNK A   0       2.333   7.533  18.816  0.00  0.00    +0.000 A 
ATOM      6  C   UNK A   0       2.600   8.334  17.706  0.00  0.00    +0.000 A 
ATOM      7  C   UNK A   0       2.129   9.641  17.666  0.00  0.00    +0.000 A 
ATOM      8  C   UNK A   0       1.402  10.174  18.741  0.00  0.00    +0.000 A 
ATOM      9 CL   UNK A   0       1.018  11.859  18.584  0.00  0.00    +0.000 Cl
ATOM     10  C   UNK A   0       1.084   9.388  19.878  0.00  0.00    +0.000 A 
ATOM     11  C   UNK A   0       1.580   8.056  19.882  0.00  0.00    +0.000 A 
BRANCH  10  12
ATOM     12  C   UNK A   0       0.284   9.871  21.047  0.00  0.00    +0.000 A 
ATOM     13  C   UNK A   0       0.383   9.253  22.314  0.00  0.00    +0.000 A 
ATOM     14  C   UNK A   0      -0.378   9.679  23.409  0.00  0.00    +0.000 A 
ATOM     15  C   UNK A   0      -1.238  10.764  23.283  0.00  0.00    +0.000 A 
ATOM     16  C   UNK A   0      -1.354  11.394  22.051  0.00  0.00    +0.000 A 
ATOM     17 CL   UNK A   0      -2.392  12.757  21.883  0.00  0.00    +0.000 Cl
ATOM     18  C   UNK A   0      -0.631  10.935  20.946  0.00  0.00    +0.000 A 
ENDBRANCH  10  12
ENDBRANCH   2   5
BRANCH   3  19
ATOM     19  CA  PHE A   1       3.610   4.163  17.548  0.00  0.00    +0.000 C 
BRANCH  19  20
ATOM     20  C   PHE A   1       2.708   3.218  18.343  0.00  0.00    +0.000 C 
ATOM     21  O   PHE A   1       1.581   2.893  17.972  0.00  0.00    +0.000 OA
BRANCH  20  22
ATOM     22  OXT PHE A   1       3.233   2.770  19.502  0.00  0.00    +0.000 OA
ATOM     23  HXT PHE A   1       4.124   3.109  19.709  0.00  0.00    +0.000 HD
ENDBRANCH  20  22
ENDBRANCH  19  20
BRANCH  19  24
ATOM     24  CB  PHE A   1       5.042   4.174  18.101  0.00  0.00    +0.000 C 
BRANCH  24  25
ATOM     25  CG  PHE A   1       6.144   4.463  17.055  0.00  0.00    +0.000 C 
ATOM     26  CD1 PHE A   1       5.883   5.736  16.234  0.00  0.00    +0.000 C 
ATOM     27  CE1 PHE A   1       6.046   7.008  17.060  0.00  0.00    +0.000 C 
ATOM     28  CZ  PHE A   1       7.428   7.075  17.700  0.00  0.00    +0.000 C 
ATOM     29  CE2 PHE A   1       7.743   5.827  18.520  0.00  0.00    +0.000 C 
ATOM     30  CD2 PHE A   1       7.534   4.546  17.715  0.00  0.00    +0.000 C 
ENDBRANCH  24  25
ENDBRANCH  19  24
ENDBRANCH   3  19
TORSDOF 7
ENDMDL
MODEL 4
REMARK VINA RESULT:      -7.9      3.862      8.699
REMARK  Name = 
REMARK  7 active torsions:
REMARK  status: ('A' for Active; 'I' for Inactive)
REMARK    1  A    between atoms: C_2  and  C_15
REMARK    2  A    between atoms: N_3  and  CA_4
REMARK    3  A    between atoms: CA_4  and  CB_5
REMARK    4  A    between atoms: CA_4  and  C_12
REMARK    5  A    between atoms: CB_5  and  CG_6
REMARK    6  A    between atoms: C_12  and  OXT_14
REMARK    7  A    between atoms: C_20  and  C_21
REMARK                            x       y       z     vdW  Elec       q    Type
REMARK                         _______ _______ _______ _____ _____    ______ ____
ROOT
ATOM      1  O   UNK A   0       3.021   7.652  17.196  0.00  0.00    +0.000 OA
ATOM      2  C   UNK A   0       2.672   7.175  18.272  0.00  0.00    +0.000 C 
ATOM      3  N   PHE A   1       2.852   5.850  18.589  0.00  0.00    +0.000 N 
ATOM      4  H   PHE A   1       2.445   5.445  19.425  0.00  0.00    +0.000 HD
ENDROOT
BRANCH   2   5
ATOM      5  C   UNK A   0       1.996   8.034  19.284  0.00  0.00    +0.000 A 
ATOM      6  C   UNK A   0       1.747   7.479  20.539  0.00  0.00    +0.000 A 
ATOM      7  C   UNK A   0       1.064   8.217  21.499  0.00  0.00    +0.000 A 
ATOM      8  C   UNK A   0       0.604   9.511  21.213  0.00  0.00    +0.000 A 
ATOM      9 CL   UNK A   0      -0.350  10.229  22.474  0.00  0.00    +0.000 Cl
ATOM     10  C   UNK A   0       0.858  10.126  19.961  0.00  0.00    +0.000 A 
ATOM     11  C   UNK A   0       1.561   9.342  19.006  0.00  0.00    +0.000 A 
BRANCH  10  12
ATOM     12  C   UNK A   0       0.433  11.513  19.593  0.00  0.00    +0.000 A 
ATOM     13  C   UNK A   0      -0.929  11.847  19.429  0.00  0.00    +0.000 A 
ATOM     14  C   UNK A   0      -1.339  13.135  19.060  0.00  0.00    +0.000 A 
ATOM     15  C   UNK A   0      -0.398  14.142  18.880  0.00  0.00    +0.000 A 
ATOM     16  C   UNK A   0       0.948  13.845  19.039  0.00  0.00    +0.000 A 
ATOM     17 CL   UNK A   0       2.126  15.086  18.847  0.00  0.00    +0.000 Cl
ATOM     18  C   UNK A   0       1.358  12.546  19.356  0.00  0.00    +0.000 A 
ENDBRANCH  10  12
ENDBRANCH   2   5
BRANCH   3  19
ATOM     19  CA  PHE A   1       3.486   4.920  17.646  0.00  0.00    +0.000 C 
BRANCH  19  20
ATOM     20  C   PHE A   1       2.567   3.705  17.511  0.00  0.00    +0.000 C 
ATOM     21  O   PHE A   1       2.974   2.545  17.558  0.00  0.00    +0.000 OA
BRANCH  20  22
ATOM     22  OXT PHE A   1       1.264   3.995  17.322  0.00  0.00    +0.000 OA
ATOM     23  HXT PHE A   1       1.091   4.850  16.884  0.00  0.00    +0.000 HD
ENDBRANCH  20  22
ENDBRANCH  19  20
BRANCH  19  24
ATOM     24  CB  PHE A   1       4.879   4.520  18.155  0.00  0.00    +0.000 C 
BRANCH  24  25
ATOM     25  CG  PHE A   1       6.020   4.674  17.122  0.00  0.00    +0.000 C 
ATOM     26  CD1 PHE A   1       5.946   5.987  16.328  0.00  0.00    +0.000 C 
ATOM     27  CE1 PHE A   1       6.278   7.207  17.182  0.00  0.00    +0.000 C 
ATOM     28  CZ  PHE A   1       7.650   7.067  17.832  0.00  0.00    +0.000 C 
ATOM     29  CE2 PHE A   1       7.780   5.771  18.627  0.00  0.00    +0.000 C 
ATOM     30  CD2 PHE A   1       7.402   4.548  17.792  0.00  0.00    +0.000 C 
ENDBRANCH  24  25
ENDBRANCH  19  24
ENDBRANCH   3  19
TORSDOF 7
ENDMDL
MODEL 5
REMARK VINA RESULT:      -7.8      4.016      8.886
REMARK  Name = 
REMARK  7 active torsions:
REMARK  status: ('A' for Active; 'I' for Inactive)
REMARK    1  A    between atoms: C_2  and  C_15
REMARK    2  A    between atoms: N_3  and  CA_4
REMARK    3  A    between atoms: CA_4  and  CB_5
REMARK    4  A    between atoms: CA_4  and  C_12
REMARK    5  A    between atoms: CB_5  and  CG_6
REMARK    6  A    between atoms: C_12  and  OXT_14
REMARK    7  A    between atoms: C_20  and  C_21
REMARK                            x       y       z     vdW  Elec       q    Type
REMARK                         _______ _______ _______ _____ _____    ______ ____
ROOT
ATOM      1  O   UNK A   0       2.039   5.829  20.025  0.00  0.00    +0.000 OA
ATOM      2  C   UNK A   0       2.585   6.626  19.268  0.00  0.00    +0.000 C 
ATOM      3  N   PHE A   1       3.720   6.316  18.558  0.00  0.00    +0.000 N 
ATOM      4  H   PHE A   1       4.230   7.022  18.039  0.00  0.00    +0.000 HD
ENDROOT
BRANCH   2   5
ATOM      5  C   UNK A   0       2.039   8.003  19.115  0.00  0.00    +0.000 A 
ATOM      6  C   UNK A   0       2.418   8.726  17.984  0.00  0.00    +0.000 A 
ATOM      7  C   UNK A   0       1.985  10.037  17.824  0.00  0.00    +0.000 A 
ATOM      8  C   UNK A   0       1.183  10.651  18.797  0.00  0.00    +0.000 A 
ATOM      9 CL   UNK A   0       0.856  12.331  18.505  0.00  0.00    +0.000 Cl
ATOM     10  C   UNK A   0       0.750   9.946  19.949  0.00  0.00    +0.000 A 
ATOM     11  C   UNK A   0       1.211   8.607  20.078  0.00  0.00    +0.000 A 
BRANCH  10  12
ATOM     12  C   UNK A   0      -0.133  10.517  21.013  0.00  0.00    +0.000 A 
ATOM     13  C   UNK A   0      -0.182   9.958  22.310  0.00  0.00    +0.000 A 
ATOM     14  C   UNK A   0      -1.023  10.467  23.307  0.00  0.00    +0.000 A 
ATOM     15  C   UNK A   0      -1.816  11.579  23.050  0.00  0.00    +0.000 A 
ATOM     16  C   UNK A   0      -1.786  12.154  21.787  0.00  0.00    +0.000 A 
ATOM     17 CL   UNK A   0      -2.740  13.549  21.459  0.00  0.00    +0.000 Cl
ATOM     18  C   UNK A   0      -0.985  11.612  20.778  0.00  0.00    +0.000 A 
ENDBRANCH  10  12
ENDBRANCH   2   5
BRANCH   3  19
ATOM     19  CA  PHE A   1       4.346   4.992  18.663  0.00  0.00    +0.000 C 
BRANCH  19  20
ATOM     20  C   PHE A   1       5.806   5.139  18.230  0.00  0.00    +0.000 C 
ATOM     21  O   PHE A   1       6.227   6.110  17.603  0.00  0.00    +0.000 OA
BRANCH  20  22
ATOM     22  OXT PHE A   1       6.609   4.112  18.576  0.00  0.00    +0.000 OA
ATOM     23  HXT PHE A   1       7.554   4.339  18.661  0.00  0.00    +0.000 HD
ENDBRANCH  20  22
ENDBRANCH  19  20
BRANCH  19  24
ATOM     24  CB  PHE A   1       3.596   3.981  17.783  0.00  0.00    +0.000 C 
BRANCH  24  25
ATOM     25  CG  PHE A   1       3.542   2.541  18.344  0.00  0.00    +0.000 C 
ATOM     26  CD1 PHE A   1       3.855   2.464  19.847  0.00  0.00    +0.000 C 
ATOM     27  CE1 PHE A   1       2.746   3.061  20.708  0.00  0.00    +0.000 C 
ATOM     28  CZ  PHE A   1       1.406   2.393  20.419  0.00  0.00    +0.000 C 
ATOM     29  CE2 PHE A   1       1.051   2.433  18.935  0.00  0.00    +0.000 C 
ATOM     30  CD2 PHE A   1       2.178   1.882  18.063  0.00  0.00    +0.000 C 
ENDBRANCH  24  25
ENDBRANCH  19  24
ENDBRANCH   3  19
TORSDOF 7
ENDMDL
MODEL 6
REMARK VINA RESULT:      -7.7      3.902      8.927
REMARK  Name = 
REMARK  7 active torsions:
REMARK  status: ('A' for Active; 'I' for Inactive)
REMARK    1  A    between atoms: C_2  and  C_15
REMARK    2  A    between atoms: N_3  and  CA_4
REMARK    3  A    between atoms: CA_4  and  CB_5
REMARK    4  A    between atoms: CA_4  and  C_12
REMARK    5  A    between atoms: CB_5  and  CG_6
REMARK    6  A    between atoms: C_12  and  OXT_14
REMARK    7  A    between atoms: C_20  and  C_21
REMARK                            x       y       z     vdW  Elec       q    Type
REMARK                         _______ _______ _______ _____ _____    ______ ____
ROOT
ATOM      1  O   UNK A   0       2.435   8.419  17.671  0.00  0.00    +0.000 OA
ATOM      2  C   UNK A   0       2.180   7.854  18.730  0.00  0.00    +0.000 C 
ATOM      3  N   PHE A   1       2.478   6.532  18.956  0.00  0.00    +0.000 N 
ATOM      4  H   PHE A   1       2.147   6.048  19.784  0.00  0.00    +0.000 HD
ENDROOT
BRANCH   2   5
ATOM      5  C   UNK A   0       1.491   8.596  19.823  0.00  0.00    +0.000 A 
ATOM      6  C   UNK A   0       1.281   7.923  21.027  0.00  0.00    +0.000 A 
ATOM      7  C   UNK A   0       0.590   8.549  22.057  0.00  0.00    +0.000 A 
ATOM      8  C   UNK A   0       0.082   9.847  21.895  0.00  0.00    +0.000 A 
ATOM      9 CL   UNK A   0      -0.875  10.416  23.227  0.00  0.00    +0.000 Cl
ATOM     10  C   UNK A   0       0.296  10.579  20.699  0.00  0.00    +0.000 A 
ATOM     11  C   UNK A   0       1.009   9.908  19.669  0.00  0.00    +0.000 A 
BRANCH  10  12
ATOM     12  C   UNK A   0      -0.181  11.977  20.463  0.00  0.00    +0.000 A 
ATOM     13  C   UNK A   0      -1.557  12.277  20.346  0.00  0.00    +0.000 A 
ATOM     14  C   UNK A   0      -2.015  13.578  20.099  0.00  0.00    +0.000 A 
ATOM     15  C   UNK A   0      -1.111  14.629  19.998  0.00  0.00    +0.000 A 
ATOM     16  C   UNK A   0       0.247  14.366  20.113  0.00  0.00    +0.000 A 
ATOM     17 CL   UNK A   0       1.380  15.660  20.018  0.00  0.00    +0.000 Cl
ATOM     18  C   UNK A   0       0.705  13.059  20.307  0.00  0.00    +0.000 A 
ENDBRANCH  10  12
ENDBRANCH   2   5
BRANCH   3  19
ATOM     19  CA  PHE A   1       3.134   5.713  17.930  0.00  0.00    +0.000 C 
BRANCH  19  20
ATOM     20  C   PHE A   1       2.407   4.368  17.882  0.00  0.00    +0.000 C 
ATOM     21  O   PHE A   1       2.707   3.468  17.099  0.00  0.00    +0.000 OA
BRANCH  20  22
ATOM     22  OXT PHE A   1       1.393   4.237  18.762  0.00  0.00    +0.000 OA
ATOM     23  HXT PHE A   1       1.604   3.716  19.559  0.00  0.00    +0.000 HD
ENDBRANCH  20  22
ENDBRANCH  19  20
BRANCH  19  24
ATOM     24  CB  PHE A   1       4.622   5.538  18.264  0.00  0.00    +0.000 C 
BRANCH  24  25
ATOM     25  CG  PHE A   1       5.588   6.393  17.411  0.00  0.00    +0.000 C 
ATOM     26  CD1 PHE A   1       7.059   5.969  17.551  0.00  0.00    +0.000 C 
ATOM     27  CE1 PHE A   1       7.344   4.622  16.895  0.00  0.00    +0.000 C 
ATOM     28  CZ  PHE A   1       6.942   4.629  15.424  0.00  0.00    +0.000 C 
ATOM     29  CE2 PHE A   1       5.489   5.055  15.228  0.00  0.00    +0.000 C 
ATOM     30  CD2 PHE A   1       5.183   6.380  15.924  0.00  0.00    +0.000 C 
ENDBRANCH  24  25
ENDBRANCH  19  24
ENDBRANCH   3  19
TORSDOF 7
ENDMDL
MODEL 7
REMARK VINA RESULT:      -7.7      3.871      8.837
REMARK  Name = 
REMARK  7 active torsions:
REMARK  status: ('A' for Active; 'I' for Inactive)
REMARK    1  A    between atoms: C_2  and  C_15
REMARK    2  A    between atoms: N_3  and  CA_4
REMARK    3  A    between atoms: CA_4  and  CB_5
REMARK    4  A    between atoms: CA_4  and  C_12
REMARK    5  A    between atoms: CB_5  and  CG_6
REMARK    6  A    between atoms: C_12  and  OXT_14
REMARK    7  A    between atoms: C_20  and  C_21
REMARK                            x       y       z     vdW  Elec       q    Type
REMARK                         _______ _______ _______ _____ _____    ______ ____
ROOT
ATOM      1  O   UNK A   0       2.896   7.923  17.498  0.00  0.00    +0.000 OA
ATOM      2  C   UNK A   0       2.524   7.353  18.520  0.00  0.00    +0.000 C 
ATOM      3  N   PHE A   1       2.694   6.005  18.721  0.00  0.00    +0.000 N 
ATOM      4  H   PHE A   1       2.269   5.529  19.510  0.00  0.00    +0.000 HD
ENDROOT
BRANCH   2   5
ATOM      5  C   UNK A   0       1.830   8.122  19.591  0.00  0.00    +0.000 A 
ATOM      6  C   UNK A   0       1.687   7.510  20.836  0.00  0.00    +0.000 A 
ATOM      7  C   UNK A   0       0.994   8.160  21.851  0.00  0.00    +0.000 A 
ATOM      8  C   UNK A   0       0.419   9.420  21.632  0.00  0.00    +0.000 A 
ATOM      9 CL   UNK A   0      -0.529  10.018  22.958  0.00  0.00    +0.000 Cl
ATOM     10  C   UNK A   0       0.562  10.092  20.391  0.00  0.00    +0.000 A 
ATOM     11  C   UNK A   0       1.279   9.398  19.379  0.00  0.00    +0.000 A 
BRANCH  10  12
ATOM     12  C   UNK A   0       0.009  11.450  20.091  0.00  0.00    +0.000 A 
ATOM     13  C   UNK A   0       0.810  12.461  19.515  0.00  0.00    +0.000 A 
ATOM     14  C   UNK A   0       0.312  13.744  19.253  0.00  0.00    +0.000 A 
ATOM     15  C   UNK A   0      -1.018  14.045  19.525  0.00  0.00    +0.000 A 
ATOM     16  C   UNK A   0      -1.830  13.071  20.088  0.00  0.00    +0.000 A 
ATOM     17 CL   UNK A   0      -3.487  13.418  20.406  0.00  0.00    +0.000 Cl
ATOM     18  C   UNK A   0      -1.317  11.808  20.397  0.00  0.00    +0.000 A 
ENDBRANCH  10  12
ENDBRANCH   2   5
BRANCH   3  19
ATOM     19  CA  PHE A   1       3.344   5.160  17.712  0.00  0.00    +0.000 C 
BRANCH  19  20
ATOM     20  C   PHE A   1       2.441   3.949  17.476  0.00  0.00    +0.000 C 
ATOM     21  O   PHE A   1       2.860   2.793  17.443  0.00  0.00    +0.000 OA
BRANCH  20  22
ATOM     22  OXT PHE A   1       1.136   4.239  17.293  0.00  0.00    +0.000 OA
ATOM     23  HXT PHE A   1       0.963   5.044  16.771  0.00  0.00    +0.000 HD
ENDBRANCH  20  22
ENDBRANCH  19  20
BRANCH  19  24
ATOM     24  CB  PHE A   1       4.739   4.737  18.196  0.00  0.00    +0.000 C 
BRANCH  24  25
ATOM     25  CG  PHE A   1       5.858   4.844  17.135  0.00  0.00    +0.000 C 
ATOM     26  CD1 PHE A   1       5.854   6.183  16.381  0.00  0.00    +0.000 C 
ATOM     27  CE1 PHE A   1       6.293   7.351  17.260  0.00  0.00    +0.000 C 
ATOM     28  CZ  PHE A   1       7.670   7.097  17.864  0.00  0.00    +0.000 C 
ATOM     29  CE2 PHE A   1       7.731   5.771  18.617  0.00  0.00    +0.000 C 
ATOM     30  CD2 PHE A   1       7.247   4.604  17.759  0.00  0.00    +0.000 C 
ENDBRANCH  24  25
ENDBRANCH  19  24
ENDBRANCH   3  19
TORSDOF 7
ENDMDL
MODEL 8
REMARK VINA RESULT:      -7.7      0.933      1.222
REMARK  Name = 
REMARK  7 active torsions:
REMARK  status: ('A' for Active; 'I' for Inactive)
REMARK    1  A    between atoms: C_2  and  C_15
REMARK    2  A    between atoms: N_3  and  CA_4
REMARK    3  A    between atoms: CA_4  and  CB_5
REMARK    4  A    between atoms: CA_4  and  C_12
REMARK    5  A    between atoms: CB_5  and  CG_6
REMARK    6  A    between atoms: C_12  and  OXT_14
REMARK    7  A    between atoms: C_20  and  C_21
REMARK                            x       y       z     vdW  Elec       q    Type
REMARK                         _______ _______ _______ _____ _____    ______ ____
ROOT
ATOM      1  O   UNK A   0       2.092   8.774  19.053  0.00  0.00    +0.000 OA
ATOM      2  C   UNK A   0       1.853   7.889  19.869  0.00  0.00    +0.000 C 
ATOM      3  N   PHE A   1       1.106   8.107  21.001  0.00  0.00    +0.000 N 
ATOM      4  H   PHE A   1       1.025   7.403  21.727  0.00  0.00    +0.000 HD
ENDROOT
BRANCH   2   5
ATOM      5  C   UNK A   0       2.408   6.521  19.669  0.00  0.00    +0.000 A 
ATOM      6  C   UNK A   0       1.896   5.495  20.462  0.00  0.00    +0.000 A 
ATOM      7  C   UNK A   0       2.421   4.212  20.358  0.00  0.00    +0.000 A 
ATOM      8  C   UNK A   0       3.478   3.940  19.476  0.00  0.00    +0.000 A 
ATOM      9 CL   UNK A   0       4.104   2.324  19.580  0.00  0.00    +0.000 Cl
ATOM     10  C   UNK A   0       4.013   4.947  18.632  0.00  0.00    +0.000 A 
ATOM     11  C   UNK A   0       3.448   6.245  18.764  0.00  0.00    +0.000 A 
BRANCH  10  12
ATOM     12  C   UNK A   0       5.113   4.729  17.641  0.00  0.00    +0.000 A 
ATOM     13  C   UNK A   0       6.471   4.754  18.031  0.00  0.00    +0.000 A 
ATOM     14  C   UNK A   0       7.511   4.576  17.110  0.00  0.00    +0.000 A 
ATOM     15  C   UNK A   0       7.225   4.330  15.772  0.00  0.00    +0.000 A 
ATOM     16  C   UNK A   0       5.899   4.296  15.360  0.00  0.00    +0.000 A 
ATOM     17 CL   UNK A   0       5.525   3.964  13.712  0.00  0.00    +0.000 Cl
ATOM     18  C   UNK A   0       4.865   4.524  16.272  0.00  0.00    +0.000 A 
ENDBRANCH  10  12
ENDBRANCH   2   5
BRANCH   3  19
ATOM     19  CA  PHE A   1       0.537   9.428  21.296  0.00  0.00    +0.000 C 
BRANCH  19  20
ATOM     20  C   PHE A   1      -0.168   9.332  22.650  0.00  0.00    +0.000 C 
ATOM     21  O   PHE A   1      -1.128   8.590  22.857  0.00  0.00    +0.000 OA
BRANCH  20  22
ATOM     22  OXT PHE A   1       0.332  10.134  23.612  0.00  0.00    +0.000 OA
ATOM     23  HXT PHE A   1       1.164  10.587  23.379  0.00  0.00    +0.000 HD
ENDBRANCH  20  22
ENDBRANCH  19  20
BRANCH  19  24
ATOM     24  CB  PHE A   1      -0.433   9.847  20.183  0.00  0.00    +0.000 C 
BRANCH  24  25
ATOM     25  CG  PHE A   1      -0.282  11.309  19.701  0.00  0.00    +0.000 C 
ATOM     26  CD1 PHE A   1      -1.190  11.651  18.509  0.00  0.00    +0.000 C 
ATOM     27  CE1 PHE A   1      -2.664  11.714  18.895  0.00  0.00    +0.000 C 
ATOM     28  CZ  PHE A   1      -2.895  12.708  20.028  0.00  0.00    +0.000 C 
ATOM     29  CE2 PHE A   1      -2.008  12.418  21.236  0.00  0.00    +0.000 C 
ATOM     30  CD2 PHE A   1      -0.534  12.305  20.850  0.00  0.00    +0.000 C 
ENDBRANCH  24  25
ENDBRANCH  19  24
ENDBRANCH   3  19
TORSDOF 7
ENDMDL
MODEL 9
REMARK VINA RESULT:      -7.7      0.972      1.555
REMARK  Name = 
REMARK  7 active torsions:
REMARK  status: ('A' for Active; 'I' for Inactive)
REMARK    1  A    between atoms: C_2  and  C_15
REMARK    2  A    between atoms: N_3  and  CA_4
REMARK    3  A    between atoms: CA_4  and  CB_5
REMARK    4  A    between atoms: CA_4  and  C_12
REMARK    5  A    between atoms: CB_5  and  CG_6
REMARK    6  A    between atoms: C_12  and  OXT_14
REMARK    7  A    between atoms: C_20  and  C_21
REMARK                            x       y       z     vdW  Elec       q    Type
REMARK                         _______ _______ _______ _____ _____    ______ ____
ROOT
ATOM      1  O   UNK A   0       1.830   8.802  19.191  0.00  0.00    +0.000 OA
ATOM      2  C   UNK A   0       1.879   7.989  20.109  0.00  0.00    +0.000 C 
ATOM      3  N   PHE A   1       1.532   8.306  21.400  0.00  0.00    +0.000 N 
ATOM      4  H   PHE A   1       1.700   7.664  22.167  0.00  0.00    +0.000 HD
ENDROOT
BRANCH   2   5
ATOM      5  C   UNK A   0       2.361   6.603  19.852  0.00  0.00    +0.000 A 
ATOM      6  C   UNK A   0       1.768   5.569  20.574  0.00  0.00    +0.000 A 
ATOM      7  C   UNK A   0       2.222   4.265  20.417  0.00  0.00    +0.000 A 
ATOM      8  C   UNK A   0       3.288   3.977  19.550  0.00  0.00    +0.000 A 
ATOM      9 CL   UNK A   0       3.817   2.325  19.585  0.00  0.00    +0.000 Cl
ATOM     10  C   UNK A   0       3.903   4.993  18.775  0.00  0.00    +0.000 A 
ATOM     11  C   UNK A   0       3.410   6.313  18.961  0.00  0.00    +0.000 A 
BRANCH  10  12
ATOM     12  C   UNK A   0       5.018   4.763  17.804  0.00  0.00    +0.000 A 
ATOM     13  C   UNK A   0       6.369   4.759  18.219  0.00  0.00    +0.000 A 
ATOM     14  C   UNK A   0       7.423   4.570  17.317  0.00  0.00    +0.000 A 
ATOM     15  C   UNK A   0       7.158   4.340  15.972  0.00  0.00    +0.000 A 
ATOM     16  C   UNK A   0       5.840   4.334  15.534  0.00  0.00    +0.000 A 
ATOM     17 CL   UNK A   0       5.491   4.024  13.877  0.00  0.00    +0.000 Cl
ATOM     18  C   UNK A   0       4.793   4.575  16.428  0.00  0.00    +0.000 A 
ENDBRANCH  10  12
ENDBRANCH   2   5
BRANCH   3  19
ATOM     19  CA  PHE A   1       1.069   9.653  21.756  0.00  0.00    +0.000 C 
BRANCH  19  20
ATOM     20  C   PHE A   1      -0.090   9.494  22.741  0.00  0.00    +0.000 C 
ATOM     21  O   PHE A   1      -0.358  10.329  23.604  0.00  0.00    +0.000 OA
BRANCH  20  22
ATOM     22  OXT PHE A   1      -0.801   8.356  22.607  0.00  0.00    +0.000 OA
ATOM     23  HXT PHE A   1      -0.311   7.538  22.813  0.00  0.00    +0.000 HD
ENDBRANCH  20  22
ENDBRANCH  19  20
BRANCH  19  24
ATOM     24  CB  PHE A   1       0.636  10.413  20.494  0.00  0.00    +0.000 C 
BRANCH  24  25
ATOM     25  CG  PHE A   1      -0.874  10.738  20.414  0.00  0.00    +0.000 C 
ATOM     26  CD1 PHE A   1      -1.167  12.245  20.337  0.00  0.00    +0.000 C 
ATOM     27  CE1 PHE A   1      -0.755  12.855  19.001  0.00  0.00    +0.000 C 
ATOM     28  CZ  PHE A   1      -1.426  12.134  17.837  0.00  0.00    +0.000 C 
ATOM     29  CE2 PHE A   1      -1.174  10.628  17.871  0.00  0.00    +0.000 C 
ATOM     30  CD2 PHE A   1      -1.538  10.019  19.223  0.00  0.00    +0.000 C 
ENDBRANCH  24  25
ENDBRANCH  19  24
ENDBRANCH   3  19
TORSDOF 7
ENDMDL
