MODEL 1
REMARK VINA RESULT:      -6.8      0.000      0.000
REMARK  Name = 
REMARK  13 active torsions:
REMARK  status: ('A' for Active; 'I' for Inactive)
REMARK    1  A    between atoms: C_1  and  C_2
REMARK    2  A    between atoms: N_7  and  C_8
REMARK    3  A    between atoms: C_8  and  C_9
REMARK    4  A    between atoms: C_9  and  C_10
REMARK    5  A    between atoms: C_10  and  C_11
REMARK    6  A    between atoms: C_11  and  C_12
REMARK    7  A    between atoms: C_12  and  C_13
REMARK    8  A    between atoms: C_13  and  C_14
REMARK    9  A    between atoms: C_14  and  C_15
REMARK   10  A    between atoms: C_15  and  C_16
REMARK   11  A    between atoms: C_16  and  C_17
REMARK   12  A    between atoms: C_17  and  N_18
REMARK   13  A    between atoms: C_23  and  C_24
REMARK                            x       y       z     vdW  Elec       q    Type
REMARK                         _______ _______ _______ _____ _____    ______ ____
ROOT
ATOM      1  C   UNL     1       7.756   6.948  17.968  0.00  0.00    +0.000 C 
ENDROOT
BRANCH   1   2
ATOM      2  C   UNL     1       7.792   8.458  17.714  0.00  0.00    +0.000 C 
BRANCH   2   3
ATOM      3  C   UNL     1       8.743   9.209  18.656  0.00  0.00    +0.000 C 
BRANCH   3   4
ATOM      4  C   UNL     1       9.087  10.624  18.178  0.00  0.00    +0.000 C 
BRANCH   4   5
ATOM      5  C   UNL     1      10.231  11.220  18.988  0.00  0.00    +0.000 C 
BRANCH   5  12
ATOM      6  C   UNL     1      11.382  13.172  17.131  0.00  0.00    +0.000 C 
ATOM      7  C   UNL     1      10.595  13.593  18.341  0.00  0.00    +0.000 A 
ATOM      8  C   UNL     1      10.448  14.954  18.635  0.00  0.00    +0.000 A 
ATOM      9  C   UNL     1       9.736  15.367  19.754  0.00  0.00    +0.000 A 
ATOM     10  C   UNL     1       9.167  14.415  20.577  0.00  0.00    +0.000 A 
ATOM     11  C   UNL     1       9.328  13.074  20.269  0.00  0.00    +0.000 A 
ATOM     12  N   UNL     1      10.036  12.676  19.179  0.00  0.00    +0.000 N 
ENDBRANCH   5  12
ENDBRANCH   4   5
ENDBRANCH   3   4
ENDBRANCH   2   3
ENDBRANCH   1   2
BRANCH   1  13
ATOM     13  C   UNL     1       7.199   6.164  16.775  0.00  0.00    +0.000 C 
BRANCH  13  14
ATOM     14  C   UNL     1       6.871   4.710  17.129  0.00  0.00    +0.000 C 
BRANCH  14  15
ATOM     15  C   UNL     1       5.695   4.147  16.323  0.00  0.00    +0.000 C 
BRANCH  15  16
ATOM     16  C   UNL     1       4.594   3.552  17.204  0.00  0.00    +0.000 C 
BRANCH  16  17
ATOM     17  C   UNL     1       4.762   4.006  18.647  0.00  0.00    +0.000 C 
BRANCH  17  18
ATOM     18  N   UNL     1       3.480   3.898  19.371  0.00  0.00    +0.000 N 
ATOM     19  C   UNL     1       3.116   2.671  19.823  0.00  0.00    +0.000 A 
ATOM     20  C   UNL     1       1.951   2.484  20.549  0.00  0.00    +0.000 A 
ATOM     21  C   UNL     1       1.145   3.576  20.810  0.00  0.00    +0.000 A 
ATOM     22  C   UNL     1       1.519   4.829  20.346  0.00  0.00    +0.000 A 
ATOM     23  C   UNL     1       2.708   4.994  19.618  0.00  0.00    +0.000 A 
ATOM     24  C   UNL     1       3.101   6.358  19.121  0.00  0.00    +0.000 C 
ENDBRANCH  17  18
ENDBRANCH  16  17
ENDBRANCH  15  16
ENDBRANCH  14  15
ENDBRANCH  13  14
ENDBRANCH   1  13
TORSDOF 11
ENDMDL
MODEL 2
REMARK VINA RESULT:      -6.8      1.155     10.871
REMARK  Name = 
REMARK  13 active torsions:
REMARK  status: ('A' for Active; 'I' for Inactive)
REMARK    1  A    between atoms: C_1  and  C_2
REMARK    2  A    between atoms: N_7  and  C_8
REMARK    3  A    between atoms: C_8  and  C_9
REMARK    4  A    between atoms: C_9  and  C_10
REMARK    5  A    between atoms: C_10  and  C_11
REMARK    6  A    between atoms: C_11  and  C_12
REMARK    7  A    between atoms: C_12  and  C_13
REMARK    8  A    between atoms: C_13  and  C_14
REMARK    9  A    between atoms: C_14  and  C_15
REMARK   10  A    between atoms: C_15  and  C_16
REMARK   11  A    between atoms: C_16  and  C_17
REMARK   12  A    between atoms: C_17  and  N_18
REMARK   13  A    between atoms: C_23  and  C_24
REMARK                            x       y       z     vdW  Elec       q    Type
REMARK                         _______ _______ _______ _____ _____    ______ ____
ROOT
ATOM      1  C   UNL     1       6.691   6.443  17.947  0.00  0.00    +0.000 C 
ENDROOT
BRANCH   1   2
ATOM      2  C   UNL     1       6.716   5.538  16.712  0.00  0.00    +0.000 C 
BRANCH   2   3
ATOM      3  C   UNL     1       5.317   5.224  16.161  0.00  0.00    +0.000 C 
BRANCH   3   4
ATOM      4  C   UNL     1       4.434   4.446  17.142  0.00  0.00    +0.000 C 
BRANCH   4   5
ATOM      5  C   UNL     1       3.217   5.262  17.560  0.00  0.00    +0.000 C 
BRANCH   5  12
ATOM      6  C   UNL     1       2.237   6.267  20.131  0.00  0.00    +0.000 C 
ATOM      7  C   UNL     1       1.878   4.899  19.623  0.00  0.00    +0.000 A 
ATOM      8  C   UNL     1       1.100   4.046  20.416  0.00  0.00    +0.000 A 
ATOM      9  C   UNL     1       0.766   2.773  19.973  0.00  0.00    +0.000 A 
ATOM     10  C   UNL     1       1.206   2.356  18.733  0.00  0.00    +0.000 A 
ATOM     11  C   UNL     1       1.977   3.214  17.966  0.00  0.00    +0.000 A 
ATOM     12  N   UNL     1       2.311   4.455  18.411  0.00  0.00    +0.000 N 
ENDBRANCH   5  12
ENDBRANCH   4   5
ENDBRANCH   3   4
ENDBRANCH   2   3
ENDBRANCH   1   2
BRANCH   1  13
ATOM     13  C   UNL     1       8.011   7.193  18.152  0.00  0.00    +0.000 C 
BRANCH  13  14
ATOM     14  C   UNL     1       7.906   8.678  17.789  0.00  0.00    +0.000 C 
BRANCH  14  15
ATOM     15  C   UNL     1       8.805   9.572  18.652  0.00  0.00    +0.000 C 
BRANCH  15  16
ATOM     16  C   UNL     1       9.007  10.968  18.060  0.00  0.00    +0.000 C 
BRANCH  16  17
ATOM     17  C   UNL     1      10.469  11.382  18.158  0.00  0.00    +0.000 C 
BRANCH  17  18
ATOM     18  N   UNL     1      10.594  12.648  18.906  0.00  0.00    +0.000 N 
ATOM     19  C   UNL     1      10.287  12.629  20.229  0.00  0.00    +0.000 A 
ATOM     20  C   UNL     1      10.416  13.761  21.018  0.00  0.00    +0.000 A 
ATOM     21  C   UNL     1      10.864  14.933  20.436  0.00  0.00    +0.000 A 
ATOM     22  C   UNL     1      11.176  14.949  19.085  0.00  0.00    +0.000 A 
ATOM     23  C   UNL     1      11.042  13.788  18.307  0.00  0.00    +0.000 A 
ATOM     24  C   UNL     1      11.383  13.821  16.843  0.00  0.00    +0.000 C 
ENDBRANCH  17  18
ENDBRANCH  16  17
ENDBRANCH  15  16
ENDBRANCH  14  15
ENDBRANCH  13  14
ENDBRANCH   1  13
TORSDOF 11
ENDMDL
MODEL 3
REMARK VINA RESULT:      -6.8      1.370      2.375
REMARK  Name = 
REMARK  13 active torsions:
REMARK  status: ('A' for Active; 'I' for Inactive)
REMARK    1  A    between atoms: C_1  and  C_2
REMARK    2  A    between atoms: N_7  and  C_8
REMARK    3  A    between atoms: C_8  and  C_9
REMARK    4  A    between atoms: C_9  and  C_10
REMARK    5  A    between atoms: C_10  and  C_11
REMARK    6  A    between atoms: C_11  and  C_12
REMARK    7  A    between atoms: C_12  and  C_13
REMARK    8  A    between atoms: C_13  and  C_14
REMARK    9  A    between atoms: C_14  and  C_15
REMARK   10  A    between atoms: C_15  and  C_16
REMARK   11  A    between atoms: C_16  and  C_17
REMARK   12  A    between atoms: C_17  and  N_18
REMARK   13  A    between atoms: C_23  and  C_24
REMARK                            x       y       z     vdW  Elec       q    Type
REMARK                         _______ _______ _______ _____ _____    ______ ____
ROOT
ATOM      1  C   UNL     1       8.188   7.989  18.359  0.00  0.00    +0.000 C 
ENDROOT
BRANCH   1   2
ATOM      2  C   UNL     1       8.298   9.465  17.963  0.00  0.00    +0.000 C 
BRANCH   2   3
ATOM      3  C   UNL     1       9.192  10.281  18.907  0.00  0.00    +0.000 C 
BRANCH   3   4
ATOM      4  C   UNL     1       9.847  11.493  18.234  0.00  0.00    +0.000 C 
BRANCH   4   5
ATOM      5  C   UNL     1       8.962  12.729  18.338  0.00  0.00    +0.000 C 
BRANCH   5  12
ATOM      6  C   UNL     1       7.696  15.370  18.331  0.00  0.00    +0.000 C 
ATOM      7  C   UNL     1       9.112  15.166  17.871  0.00  0.00    +0.000 A 
ATOM      8  C   UNL     1       9.841  16.251  17.368  0.00  0.00    +0.000 A 
ATOM      9  C   UNL     1      11.147  16.085  16.925  0.00  0.00    +0.000 A 
ATOM     10  C   UNL     1      11.725  14.832  16.992  0.00  0.00    +0.000 A 
ATOM     11  C   UNL     1      10.984  13.773  17.490  0.00  0.00    +0.000 A 
ATOM     12  N   UNL     1       9.702  13.940  17.910  0.00  0.00    +0.000 N 
ENDBRANCH   5  12
ENDBRANCH   4   5
ENDBRANCH   3   4
ENDBRANCH   2   3
ENDBRANCH   1   2
BRANCH   1  13
ATOM     13  C   UNL     1       7.591   7.124  17.245  0.00  0.00    +0.000 C 
BRANCH  13  14
ATOM     14  C   UNL     1       7.173   5.736  17.739  0.00  0.00    +0.000 C 
BRANCH  14  15
ATOM     15  C   UNL     1       5.823   5.278  17.172  0.00  0.00    +0.000 C 
BRANCH  15  16
ATOM     16  C   UNL     1       4.672   5.428  18.170  0.00  0.00    +0.000 C 
BRANCH  16  17
ATOM     17  C   UNL     1       4.701   4.299  19.190  0.00  0.00    +0.000 C 
BRANCH  17  18
ATOM     18  N   UNL     1       3.328   3.858  19.506  0.00  0.00    +0.000 N 
ATOM     19  C   UNL     1       2.604   4.623  20.363  0.00  0.00    +0.000 A 
ATOM     20  C   UNL     1       1.294   4.308  20.682  0.00  0.00    +0.000 A 
ATOM     21  C   UNL     1       0.719   3.187  20.115  0.00  0.00    +0.000 A 
ATOM     22  C   UNL     1       1.461   2.406  19.241  0.00  0.00    +0.000 A 
ATOM     23  C   UNL     1       2.786   2.749  18.928  0.00  0.00    +0.000 A 
ATOM     24  C   UNL     1       3.579   1.893  17.978  0.00  0.00    +0.000 C 
ENDBRANCH  17  18
ENDBRANCH  16  17
ENDBRANCH  15  16
ENDBRANCH  14  15
ENDBRANCH  13  14
ENDBRANCH   1  13
TORSDOF 11
ENDMDL
MODEL 4
REMARK VINA RESULT:      -6.8      4.661      7.771
REMARK  Name = 
REMARK  13 active torsions:
REMARK  status: ('A' for Active; 'I' for Inactive)
REMARK    1  A    between atoms: C_1  and  C_2
REMARK    2  A    between atoms: N_7  and  C_8
REMARK    3  A    between atoms: C_8  and  C_9
REMARK    4  A    between atoms: C_9  and  C_10
REMARK    5  A    between atoms: C_10  and  C_11
REMARK    6  A    between atoms: C_11  and  C_12
REMARK    7  A    between atoms: C_12  and  C_13
REMARK    8  A    between atoms: C_13  and  C_14
REMARK    9  A    between atoms: C_14  and  C_15
REMARK   10  A    between atoms: C_15  and  C_16
REMARK   11  A    between atoms: C_16  and  C_17
REMARK   12  A    between atoms: C_17  and  N_18
REMARK   13  A    between atoms: C_23  and  C_24
REMARK                            x       y       z     vdW  Elec       q    Type
REMARK                         _______ _______ _______ _____ _____    ______ ____
ROOT
ATOM      1  C   UNL     1       1.602   2.327  20.382  0.00  0.00    +0.000 C 
ENDROOT
BRANCH   1   2
ATOM      2  C   UNL     1       0.813   3.633  20.242  0.00  0.00    +0.000 C 
BRANCH   2   3
ATOM      3  C   UNL     1       1.603   4.870  20.693  0.00  0.00    +0.000 C 
BRANCH   3   4
ATOM      4  C   UNL     1       1.296   6.126  19.871  0.00  0.00    +0.000 C 
BRANCH   4   5
ATOM      5  C   UNL     1       2.123   7.314  20.344  0.00  0.00    +0.000 C 
BRANCH   5  12
ATOM      6  C   UNL     1       1.656   9.158  18.116  0.00  0.00    +0.000 C 
ATOM      7  C   UNL     1       1.075   9.398  19.481  0.00  0.00    +0.000 A 
ATOM      8  C   UNL     1       0.335  10.561  19.726  0.00  0.00    +0.000 A 
ATOM      9  C   UNL     1      -0.201  10.811  20.983  0.00  0.00    +0.000 A 
ATOM     10  C   UNL     1       0.000   9.892  21.994  0.00  0.00    +0.000 A 
ATOM     11  C   UNL     1       0.738   8.749  21.730  0.00  0.00    +0.000 A 
ATOM     12  N   UNL     1       1.271   8.517  20.501  0.00  0.00    +0.000 N 
ENDBRANCH   5  12
ENDBRANCH   4   5
ENDBRANCH   3   4
ENDBRANCH   2   3
ENDBRANCH   1   2
BRANCH   1  13
ATOM     13  C   UNL     1       2.853   2.298  19.499  0.00  0.00    +0.000 C 
BRANCH  13  14
ATOM     14  C   UNL     1       2.525   2.034  18.026  0.00  0.00    +0.000 C 
BRANCH  14  15
ATOM     15  C   UNL     1       2.531   3.307  17.171  0.00  0.00    +0.000 C 
BRANCH  15  16
ATOM     16  C   UNL     1       3.559   4.340  17.642  0.00  0.00    +0.000 C 
BRANCH  16  17
ATOM     17  C   UNL     1       4.914   4.073  17.002  0.00  0.00    +0.000 C 
BRANCH  17  18
ATOM     18  N   UNL     1       5.899   5.076  17.451  0.00  0.00    +0.000 N 
ATOM     19  C   UNL     1       6.667   4.765  18.528  0.00  0.00    +0.000 A 
ATOM     20  C   UNL     1       7.645   5.629  18.992  0.00  0.00    +0.000 A 
ATOM     21  C   UNL     1       7.836   6.834  18.342  0.00  0.00    +0.000 A 
ATOM     22  C   UNL     1       7.050   7.149  17.243  0.00  0.00    +0.000 A 
ATOM     23  C   UNL     1       6.068   6.255  16.788  0.00  0.00    +0.000 A 
ATOM     24  C   UNL     1       5.222   6.611  15.595  0.00  0.00    +0.000 C 
ENDBRANCH  17  18
ENDBRANCH  16  17
ENDBRANCH  15  16
ENDBRANCH  14  15
ENDBRANCH  13  14
ENDBRANCH   1  13
TORSDOF 11
ENDMDL
MODEL 5
REMARK VINA RESULT:      -6.7      5.835      9.309
REMARK  Name = 
REMARK  13 active torsions:
REMARK  status: ('A' for Active; 'I' for Inactive)
REMARK    1  A    between atoms: C_1  and  C_2
REMARK    2  A    between atoms: N_7  and  C_8
REMARK    3  A    between atoms: C_8  and  C_9
REMARK    4  A    between atoms: C_9  and  C_10
REMARK    5  A    between atoms: C_10  and  C_11
REMARK    6  A    between atoms: C_11  and  C_12
REMARK    7  A    between atoms: C_12  and  C_13
REMARK    8  A    between atoms: C_13  and  C_14
REMARK    9  A    between atoms: C_14  and  C_15
REMARK   10  A    between atoms: C_15  and  C_16
REMARK   11  A    between atoms: C_16  and  C_17
REMARK   12  A    between atoms: C_17  and  N_18
REMARK   13  A    between atoms: C_23  and  C_24
REMARK                            x       y       z     vdW  Elec       q    Type
REMARK                         _______ _______ _______ _____ _____    ______ ____
ROOT
ATOM      1  C   UNL     1       2.416   6.789  19.963  0.00  0.00    +0.000 C 
ENDROOT
BRANCH   1   2
ATOM      2  C   UNL     1       1.482   5.838  20.719  0.00  0.00    +0.000 C 
BRANCH   2   3
ATOM      3  C   UNL     1       1.594   4.380  20.253  0.00  0.00    +0.000 C 
BRANCH   3   4
ATOM      4  C   UNL     1       2.511   3.524  21.133  0.00  0.00    +0.000 C 
BRANCH   4   5
ATOM      5  C   UNL     1       3.440   2.661  20.289  0.00  0.00    +0.000 C 
BRANCH   5  12
ATOM      6  C   UNL     1       2.509   2.239  17.544  0.00  0.00    +0.000 C 
ATOM      7  C   UNL     1       3.593   3.227  17.873  0.00  0.00    +0.000 A 
ATOM      8  C   UNL     1       4.226   3.932  16.842  0.00  0.00    +0.000 A 
ATOM      9  C   UNL     1       5.239   4.841  17.120  0.00  0.00    +0.000 A 
ATOM     10  C   UNL     1       5.614   5.048  18.433  0.00  0.00    +0.000 A 
ATOM     11  C   UNL     1       4.977   4.337  19.437  0.00  0.00    +0.000 A 
ATOM     12  N   UNL     1       3.995   3.439  19.157  0.00  0.00    +0.000 N 
ENDBRANCH   5  12
ENDBRANCH   4   5
ENDBRANCH   3   4
ENDBRANCH   2   3
ENDBRANCH   1   2
BRANCH   1  13
ATOM     13  C   UNL     1       2.249   6.692  18.443  0.00  0.00    +0.000 C 
BRANCH  13  14
ATOM     14  C   UNL     1       3.032   7.776  17.696  0.00  0.00    +0.000 C 
BRANCH  14  15
ATOM     15  C   UNL     1       2.459   9.183  17.906  0.00  0.00    +0.000 C 
BRANCH  15  16
ATOM     16  C   UNL     1       0.943   9.249  17.703  0.00  0.00    +0.000 C 
BRANCH  16  17
ATOM     17  C   UNL     1       0.278   9.952  18.878  0.00  0.00    +0.000 C 
BRANCH  17  18
ATOM     18  N   UNL     1      -1.042  10.479  18.480  0.00  0.00    +0.000 N 
ATOM     19  C   UNL     1      -1.603   9.977  17.350  0.00  0.00    +0.000 A 
ATOM     20  C   UNL     1      -2.858  10.383  16.925  0.00  0.00    +0.000 A 
ATOM     21  C   UNL     1      -3.545  11.322  17.671  0.00  0.00    +0.000 A 
ATOM     22  C   UNL     1      -2.968  11.833  18.825  0.00  0.00    +0.000 A 
ATOM     23  C   UNL     1      -1.698  11.402  19.238  0.00  0.00    +0.000 A 
ATOM     24  C   UNL     1      -1.085  11.966  20.492  0.00  0.00    +0.000 C 
ENDBRANCH  17  18
ENDBRANCH  16  17
ENDBRANCH  15  16
ENDBRANCH  14  15
ENDBRANCH  13  14
ENDBRANCH   1  13
TORSDOF 11
ENDMDL
MODEL 6
REMARK VINA RESULT:      -6.7      1.645      2.488
REMARK  Name = 
REMARK  13 active torsions:
REMARK  status: ('A' for Active; 'I' for Inactive)
REMARK    1  A    between atoms: C_1  and  C_2
REMARK    2  A    between atoms: N_7  and  C_8
REMARK    3  A    between atoms: C_8  and  C_9
REMARK    4  A    between atoms: C_9  and  C_10
REMARK    5  A    between atoms: C_10  and  C_11
REMARK    6  A    between atoms: C_11  and  C_12
REMARK    7  A    between atoms: C_12  and  C_13
REMARK    8  A    between atoms: C_13  and  C_14
REMARK    9  A    between atoms: C_14  and  C_15
REMARK   10  A    between atoms: C_15  and  C_16
REMARK   11  A    between atoms: C_16  and  C_17
REMARK   12  A    between atoms: C_17  and  N_18
REMARK   13  A    between atoms: C_23  and  C_24
REMARK                            x       y       z     vdW  Elec       q    Type
REMARK                         _______ _______ _______ _____ _____    ______ ____
ROOT
ATOM      1  C   UNL     1       6.569   6.276  17.027  0.00  0.00    +0.000 C 
ENDROOT
BRANCH   1   2
ATOM      2  C   UNL     1       7.628   6.922  17.925  0.00  0.00    +0.000 C 
BRANCH   2   3
ATOM      3  C   UNL     1       7.841   8.415  17.635  0.00  0.00    +0.000 C 
BRANCH   3   4
ATOM      4  C   UNL     1       8.771   9.106  18.638  0.00  0.00    +0.000 C 
BRANCH   4   5
ATOM      5  C   UNL     1       8.642  10.622  18.559  0.00  0.00    +0.000 C 
BRANCH   5  12
ATOM      6  C   UNL     1       9.480  11.312  21.280  0.00  0.00    +0.000 C 
ATOM      7  C   UNL     1      10.330  11.630  20.082  0.00  0.00    +0.000 A 
ATOM      8  C   UNL     1      11.533  12.326  20.249  0.00  0.00    +0.000 A 
ATOM      9  C   UNL     1      12.329  12.643  19.155  0.00  0.00    +0.000 A 
ATOM     10  C   UNL     1      11.922  12.255  17.894  0.00  0.00    +0.000 A 
ATOM     11  C   UNL     1      10.727  11.569  17.751  0.00  0.00    +0.000 A 
ATOM     12  N   UNL     1       9.946  11.274  18.825  0.00  0.00    +0.000 N 
ENDBRANCH   5  12
ENDBRANCH   4   5
ENDBRANCH   3   4
ENDBRANCH   2   3
ENDBRANCH   1   2
BRANCH   1  13
ATOM     13  C   UNL     1       5.219   6.997  17.098  0.00  0.00    +0.000 C 
BRANCH  13  14
ATOM     14  C   UNL     1       4.127   6.136  17.741  0.00  0.00    +0.000 C 
BRANCH  14  15
ATOM     15  C   UNL     1       4.590   4.705  18.039  0.00  0.00    +0.000 C 
BRANCH  15  16
ATOM     16  C   UNL     1       3.937   3.662  17.129  0.00  0.00    +0.000 C 
BRANCH  16  17
ATOM     17  C   UNL     1       3.632   2.390  17.908  0.00  0.00    +0.000 C 
BRANCH  17  18
ATOM     18  N   UNL     1       2.820   2.702  19.100  0.00  0.00    +0.000 N 
ATOM     19  C   UNL     1       3.308   2.321  20.309  0.00  0.00    +0.000 A 
ATOM     20  C   UNL     1       2.633   2.610  21.484  0.00  0.00    +0.000 A 
ATOM     21  C   UNL     1       1.436   3.298  21.416  0.00  0.00    +0.000 A 
ATOM     22  C   UNL     1       0.940   3.685  20.179  0.00  0.00    +0.000 A 
ATOM     23  C   UNL     1       1.645   3.385  19.002  0.00  0.00    +0.000 A 
ATOM     24  C   UNL     1       1.094   3.811  17.668  0.00  0.00    +0.000 C 
ENDBRANCH  17  18
ENDBRANCH  16  17
ENDBRANCH  15  16
ENDBRANCH  14  15
ENDBRANCH  13  14
ENDBRANCH   1  13
TORSDOF 11
ENDMDL
MODEL 7
REMARK VINA RESULT:      -6.7      6.023      9.721
REMARK  Name = 
REMARK  13 active torsions:
REMARK  status: ('A' for Active; 'I' for Inactive)
REMARK    1  A    between atoms: C_1  and  C_2
REMARK    2  A    between atoms: N_7  and  C_8
REMARK    3  A    between atoms: C_8  and  C_9
REMARK    4  A    between atoms: C_9  and  C_10
REMARK    5  A    between atoms: C_10  and  C_11
REMARK    6  A    between atoms: C_11  and  C_12
REMARK    7  A    between atoms: C_12  and  C_13
REMARK    8  A    between atoms: C_13  and  C_14
REMARK    9  A    between atoms: C_14  and  C_15
REMARK   10  A    between atoms: C_15  and  C_16
REMARK   11  A    between atoms: C_16  and  C_17
REMARK   12  A    between atoms: C_17  and  N_18
REMARK   13  A    between atoms: C_23  and  C_24
REMARK                            x       y       z     vdW  Elec       q    Type
REMARK                         _______ _______ _______ _____ _____    ______ ____
ROOT
ATOM      1  C   UNL     1       3.879   5.758  18.934  0.00  0.00    +0.000 C 
ENDROOT
BRANCH   1   2
ATOM      2  C   UNL     1       4.603   5.759  17.583  0.00  0.00    +0.000 C 
BRANCH   2   3
ATOM      3  C   UNL     1       4.603   4.387  16.895  0.00  0.00    +0.000 C 
BRANCH   3   4
ATOM      4  C   UNL     1       3.236   3.694  16.909  0.00  0.00    +0.000 C 
BRANCH   4   5
ATOM      5  C   UNL     1       3.267   2.424  17.748  0.00  0.00    +0.000 C 
BRANCH   5  12
ATOM      6  C   UNL     1       4.738   1.991  20.245  0.00  0.00    +0.000 C 
ATOM      7  C   UNL     1       3.298   2.420  20.235  0.00  0.00    +0.000 A 
ATOM      8  C   UNL     1       2.608   2.566  21.445  0.00  0.00    +0.000 A 
ATOM      9  C   UNL     1       1.273   2.949  21.461  0.00  0.00    +0.000 A 
ATOM     10  C   UNL     1       0.630   3.192  20.263  0.00  0.00    +0.000 A 
ATOM     11  C   UNL     1       1.330   3.038  19.078  0.00  0.00    +0.000 A 
ATOM     12  N   UNL     1       2.634   2.651  19.069  0.00  0.00    +0.000 N 
ENDBRANCH   5  12
ENDBRANCH   4   5
ENDBRANCH   3   4
ENDBRANCH   2   3
ENDBRANCH   1   2
BRANCH   1  13
ATOM     13  C   UNL     1       2.974   6.981  19.116  0.00  0.00    +0.000 C 
BRANCH  13  14
ATOM     14  C   UNL     1       2.601   7.639  17.784  0.00  0.00    +0.000 C 
BRANCH  14  15
ATOM     15  C   UNL     1       2.021   9.048  17.953  0.00  0.00    +0.000 C 
BRANCH  15  16
ATOM     16  C   UNL     1       1.316   9.250  19.296  0.00  0.00    +0.000 C 
BRANCH  16  17
ATOM     17  C   UNL     1       0.644  10.615  19.347  0.00  0.00    +0.000 C 
BRANCH  17  18
ATOM     18  N   UNL     1      -0.088  10.779  20.618  0.00  0.00    +0.000 N 
ATOM     19  C   UNL     1       0.277   9.987  21.660  0.00  0.00    +0.000 A 
ATOM     20  C   UNL     1      -0.327  10.103  22.901  0.00  0.00    +0.000 A 
ATOM     21  C   UNL     1      -1.323  11.045  23.074  0.00  0.00    +0.000 A 
ATOM     22  C   UNL     1      -1.694  11.852  22.008  0.00  0.00    +0.000 A 
ATOM     23  C   UNL     1      -1.064  11.720  20.761  0.00  0.00    +0.000 A 
ATOM     24  C   UNL     1      -1.477  12.601  19.614  0.00  0.00    +0.000 C 
ENDBRANCH  17  18
ENDBRANCH  16  17
ENDBRANCH  15  16
ENDBRANCH  14  15
ENDBRANCH  13  14
ENDBRANCH   1  13
TORSDOF 11
ENDMDL
MODEL 8
REMARK VINA RESULT:      -6.7      1.112     10.491
REMARK  Name = 
REMARK  13 active torsions:
REMARK  status: ('A' for Active; 'I' for Inactive)
REMARK    1  A    between atoms: C_1  and  C_2
REMARK    2  A    between atoms: N_7  and  C_8
REMARK    3  A    between atoms: C_8  and  C_9
REMARK    4  A    between atoms: C_9  and  C_10
REMARK    5  A    between atoms: C_10  and  C_11
REMARK    6  A    between atoms: C_11  and  C_12
REMARK    7  A    between atoms: C_12  and  C_13
REMARK    8  A    between atoms: C_13  and  C_14
REMARK    9  A    between atoms: C_14  and  C_15
REMARK   10  A    between atoms: C_15  and  C_16
REMARK   11  A    between atoms: C_16  and  C_17
REMARK   12  A    between atoms: C_17  and  N_18
REMARK   13  A    between atoms: C_23  and  C_24
REMARK                            x       y       z     vdW  Elec       q    Type
REMARK                         _______ _______ _______ _____ _____    ______ ____
ROOT
ATOM      1  C   UNL     1       6.612   6.159  18.118  0.00  0.00    +0.000 C 
ENDROOT
BRANCH   1   2
ATOM      2  C   UNL     1       5.840   6.861  16.996  0.00  0.00    +0.000 C 
BRANCH   2   3
ATOM      3  C   UNL     1       5.070   5.889  16.090  0.00  0.00    +0.000 C 
BRANCH   3   4
ATOM      4  C   UNL     1       5.029   4.454  16.627  0.00  0.00    +0.000 C 
BRANCH   4   5
ATOM      5  C   UNL     1       3.598   3.998  16.880  0.00  0.00    +0.000 C 
BRANCH   5  12
ATOM      6  C   UNL     1       3.703   1.808  18.824  0.00  0.00    +0.000 C 
ATOM      7  C   UNL     1       3.239   3.186  19.203  0.00  0.00    +0.000 A 
ATOM      8  C   UNL     1       2.785   3.432  20.505  0.00  0.00    +0.000 A 
ATOM      9  C   UNL     1       2.338   4.694  20.875  0.00  0.00    +0.000 A 
ATOM     10  C   UNL     1       2.352   5.712  19.942  0.00  0.00    +0.000 A 
ATOM     11  C   UNL     1       2.802   5.446  18.660  0.00  0.00    +0.000 A 
ATOM     12  N   UNL     1       3.226   4.205  18.300  0.00  0.00    +0.000 N 
ENDBRANCH   5  12
ENDBRANCH   4   5
ENDBRANCH   3   4
ENDBRANCH   2   3
ENDBRANCH   1   2
BRANCH   1  13
ATOM     13  C   UNL     1       7.976   6.803  18.384  0.00  0.00    +0.000 C 
BRANCH  13  14
ATOM     14  C   UNL     1       8.088   8.209  17.785  0.00  0.00    +0.000 C 
BRANCH  14  15
ATOM     15  C   UNL     1       8.671   9.234  18.765  0.00  0.00    +0.000 C 
BRANCH  15  16
ATOM     16  C   UNL     1       9.164  10.509  18.077  0.00  0.00    +0.000 C 
BRANCH  16  17
ATOM     17  C   UNL     1       9.842  11.430  19.083  0.00  0.00    +0.000 C 
BRANCH  17  18
ATOM     18  N   UNL     1      10.275  12.677  18.424  0.00  0.00    +0.000 N 
ATOM     19  C   UNL     1      11.293  12.594  17.528  0.00  0.00    +0.000 A 
ATOM     20  C   UNL     1      11.736  13.707  16.832  0.00  0.00    +0.000 A 
ATOM     21  C   UNL     1      11.126  14.926  17.063  0.00  0.00    +0.000 A 
ATOM     22  C   UNL     1      10.088  15.008  17.979  0.00  0.00    +0.000 A 
ATOM     23  C   UNL     1       9.653  13.865  18.669  0.00  0.00    +0.000 A 
ATOM     24  C   UNL     1       8.526  13.969  19.660  0.00  0.00    +0.000 C 
ENDBRANCH  17  18
ENDBRANCH  16  17
ENDBRANCH  15  16
ENDBRANCH  14  15
ENDBRANCH  13  14
ENDBRANCH   1  13
TORSDOF 11
ENDMDL
MODEL 9
REMARK VINA RESULT:      -6.7      5.922      7.132
REMARK  Name = 
REMARK  13 active torsions:
REMARK  status: ('A' for Active; 'I' for Inactive)
REMARK    1  A    between atoms: C_1  and  C_2
REMARK    2  A    between atoms: N_7  and  C_8
REMARK    3  A    between atoms: C_8  and  C_9
REMARK    4  A    between atoms: C_9  and  C_10
REMARK    5  A    between atoms: C_10  and  C_11
REMARK    6  A    between atoms: C_11  and  C_12
REMARK    7  A    between atoms: C_12  and  C_13
REMARK    8  A    between atoms: C_13  and  C_14
REMARK    9  A    between atoms: C_14  and  C_15
REMARK   10  A    between atoms: C_15  and  C_16
REMARK   11  A    between atoms: C_16  and  C_17
REMARK   12  A    between atoms: C_17  and  N_18
REMARK   13  A    between atoms: C_23  and  C_24
REMARK                            x       y       z     vdW  Elec       q    Type
REMARK                         _______ _______ _______ _____ _____    ______ ____
ROOT
ATOM      1  C   UNL     1       2.681   7.252  19.207  0.00  0.00    +0.000 C 
ENDROOT
BRANCH   1   2
ATOM      2  C   UNL     1       1.913   7.868  18.032  0.00  0.00    +0.000 C 
BRANCH   2   3
ATOM      3  C   UNL     1       2.092   9.388  17.922  0.00  0.00    +0.000 C 
BRANCH   3   4
ATOM      4  C   UNL     1       0.928  10.186  18.520  0.00  0.00    +0.000 C 
BRANCH   4   5
ATOM      5  C   UNL     1       0.521   9.635  19.881  0.00  0.00    +0.000 C 
BRANCH   5  12
ATOM      6  C   UNL     1      -0.464   9.089  22.585  0.00  0.00    +0.000 C 
ATOM      7  C   UNL     1      -0.418  10.481  22.022  0.00  0.00    +0.000 A 
ATOM      8  C   UNL     1      -0.910  11.553  22.778  0.00  0.00    +0.000 A 
ATOM      9  C   UNL     1      -0.889  12.847  22.274  0.00  0.00    +0.000 A 
ATOM     10  C   UNL     1      -0.370  13.069  21.014  0.00  0.00    +0.000 A 
ATOM     11  C   UNL     1       0.108  11.995  20.282  0.00  0.00    +0.000 A 
ATOM     12  N   UNL     1       0.073  10.728  20.776  0.00  0.00    +0.000 N 
ENDBRANCH   5  12
ENDBRANCH   4   5
ENDBRANCH   3   4
ENDBRANCH   2   3
ENDBRANCH   1   2
BRANCH   1  13
ATOM     13  C   UNL     1       3.957   6.532  18.761  0.00  0.00    +0.000 C 
BRANCH  13  14
ATOM     14  C   UNL     1       4.008   6.308  17.246  0.00  0.00    +0.000 C 
BRANCH  14  15
ATOM     15  C   UNL     1       4.770   5.038  16.852  0.00  0.00    +0.000 C 
BRANCH  15  16
ATOM     16  C   UNL     1       4.973   4.073  18.023  0.00  0.00    +0.000 C 
BRANCH  16  17
ATOM     17  C   UNL     1       3.956   2.942  17.964  0.00  0.00    +0.000 C 
BRANCH  17  18
ATOM     18  N   UNL     1       3.010   3.044  19.093  0.00  0.00    +0.000 N 
ATOM     19  C   UNL     1       3.436   2.619  20.310  0.00  0.00    +0.000 A 
ATOM     20  C   UNL     1       2.631   2.717  21.433  0.00  0.00    +0.000 A 
ATOM     21  C   UNL     1       1.366   3.257  21.303  0.00  0.00    +0.000 A 
ATOM     22  C   UNL     1       0.933   3.691  20.058  0.00  0.00    +0.000 A 
ATOM     23  C   UNL     1       1.769   3.586  18.935  0.00  0.00    +0.000 A 
ATOM     24  C   UNL     1       1.286   4.060  17.592  0.00  0.00    +0.000 C 
ENDBRANCH  17  18
ENDBRANCH  16  17
ENDBRANCH  15  16
ENDBRANCH  14  15
ENDBRANCH  13  14
ENDBRANCH   1  13
TORSDOF 11
ENDMDL
