MODEL 1
REMARK VINA RESULT:      -6.4      0.000      0.000
REMARK  Name = 
REMARK  6 active torsions:
REMARK  status: ('A' for Active; 'I' for Inactive)
REMARK    1  A    between atoms: C_4  and  C_5
REMARK    2  A    between atoms: C_5  and  N_6
REMARK    3  A    between atoms: N_6  and  C_7
REMARK    4  A    between atoms: C_7  and  C_8
REMARK    5  A    between atoms: C_11  and  C_12
REMARK    6  A    between atoms: C_12  and  N_13
REMARK                            x       y       z     vdW  Elec       q    Type
REMARK                         _______ _______ _______ _____ _____    ______ ____
ROOT
ATOM      1  C   UNL     1       0.126  11.569  20.047  0.00  0.00    +0.000 C 
ENDROOT
BRANCH   1   2
ATOM      2  N   UNL     1       1.206  11.648  19.082  0.00  0.00    +0.000 NA
ATOM      3  C   UNL     1       0.836  12.681  18.094  0.00  0.00    +0.000 C 
ATOM      4  C   UNL     1       0.772  14.186  18.607  0.00  0.00    +0.000 C 
ATOM      5  C   UNL     1       0.025  14.714  19.906  0.00  0.00    +0.000 C 
ATOM      6  N   UNL     1       0.604  14.306  21.207  0.00  0.00    +0.000 NA
ATOM      7  C   UNL     1      -0.210  14.323  22.447  0.00  0.00    +0.000 C 
ATOM      8  C   UNL     1      -1.068  13.078  22.987  0.00  0.00    +0.000 C 
ATOM      9  N   UNL     1      -0.440  11.739  23.142  0.00  0.00    +0.000 NA
ATOM     10  C   UNL     1      -1.358  10.604  22.883  0.00  0.00    +0.000 C 
ATOM     11  C   UNL     1      -0.765   9.154  22.782  0.00  0.00    +0.000 C 
ATOM     12  C   UNL     1      -0.133   8.601  21.454  0.00  0.00    +0.000 C 
ATOM     13  N   UNL     1       1.181   9.150  21.100  0.00  0.00    +0.000 NA
ATOM     14  C   UNL     1       1.702   9.091  19.704  0.00  0.00    +0.000 C 
ATOM     15  C   UNL     1       1.536  10.284  18.600  0.00  0.00    +0.000 C 
ATOM     16  H   UNL     1       1.469  14.825  21.350  0.00  0.00    +0.000 HD
ATOM     17  H   UNL     1       0.416  11.680  22.599  0.00  0.00    +0.000 HD
ATOM     18  H   UNL     1       1.877   8.776  21.737  0.00  0.00    +0.000 HD
ENDBRANCH   1   2
BRANCH   1  22
ATOM     19  C   UNL     1      -3.661  11.310  18.171  0.00  0.00    +0.000 A 
ATOM     20  C   UNL     1      -2.699  10.327  17.925  0.00  0.00    +0.000 A 
ATOM     21  C   UNL     1      -1.521  10.367  18.615  0.00  0.00    +0.000 A 
ATOM     22  C   UNL     1      -1.255  11.354  19.520  0.00  0.00    +0.000 A 
ATOM     23  C   UNL     1      -2.294  12.224  19.892  0.00  0.00    +0.000 A 
ATOM     24  C   UNL     1      -3.483  12.228  19.200  0.00  0.00    +0.000 A 
BRANCH  19  25
ATOM     25  C   UNL     1      -4.872  11.305  17.309  0.00  0.00    +0.000 C 
BRANCH  25  26
ATOM     26  N   UNL     1      -5.559  12.580  17.391  0.00  0.00    +0.000 NA
ATOM     27  H   UNL     1      -5.151  13.154  18.119  0.00  0.00    +0.000 HD
BRANCH  26  28
ATOM     28  C   UNL     1      -6.994  12.415  17.619  0.00  0.00    +0.000 C 
BRANCH  28  32
ATOM     29  C   UNL     1      -7.602  12.426  21.868  0.00  0.00    +0.000 A 
ATOM     30  C   UNL     1      -7.429  13.635  21.194  0.00  0.00    +0.000 A 
ATOM     31  C   UNL     1      -7.251  13.640  19.812  0.00  0.00    +0.000 A 
ATOM     32  C   UNL     1      -7.259  12.432  19.098  0.00  0.00    +0.000 A 
ATOM     33  C   UNL     1      -7.429  11.225  19.784  0.00  0.00    +0.000 A 
ATOM     34  C   UNL     1      -7.599  11.223  21.165  0.00  0.00    +0.000 A 
ENDBRANCH  28  32
ENDBRANCH  26  28
ENDBRANCH  25  26
ENDBRANCH  19  25
ENDBRANCH   1  22
TORSDOF 6
ENDMDL
MODEL 2
REMARK VINA RESULT:      -6.2      2.646      7.483
REMARK  Name = 
REMARK  6 active torsions:
REMARK  status: ('A' for Active; 'I' for Inactive)
REMARK    1  A    between atoms: C_4  and  C_5
REMARK    2  A    between atoms: C_5  and  N_6
REMARK    3  A    between atoms: N_6  and  C_7
REMARK    4  A    between atoms: C_7  and  C_8
REMARK    5  A    between atoms: C_11  and  C_12
REMARK    6  A    between atoms: C_12  and  N_13
REMARK                            x       y       z     vdW  Elec       q    Type
REMARK                         _______ _______ _______ _____ _____    ______ ____
ROOT
ATOM      1  C   UNL     1      -1.659  13.450  21.312  0.00  0.00    +0.000 C 
ENDROOT
BRANCH   1   2
ATOM      2  N   UNL     1      -2.568  13.938  22.331  0.00  0.00    +0.000 NA
ATOM      3  C   UNL     1      -1.782  14.127  23.566  0.00  0.00    +0.000 C 
ATOM      4  C   UNL     1      -0.684  15.278  23.559  0.00  0.00    +0.000 C 
ATOM      5  C   UNL     1       0.421  15.529  22.444  0.00  0.00    +0.000 C 
ATOM      6  N   UNL     1      -0.070  16.002  21.129  0.00  0.00    +0.000 NA
ATOM      7  C   UNL     1       0.746  15.836  19.901  0.00  0.00    +0.000 C 
ATOM      8  C   UNL     1       0.672  14.562  18.927  0.00  0.00    +0.000 C 
ATOM      9  N   UNL     1      -0.636  14.090  18.401  0.00  0.00    +0.000 NA
ATOM     10  C   UNL     1      -0.722  12.621  18.212  0.00  0.00    +0.000 C 
ATOM     11  C   UNL     1      -2.115  11.976  17.888  0.00  0.00    +0.000 C 
ATOM     12  C   UNL     1      -3.154  11.624  19.014  0.00  0.00    +0.000 C 
ATOM     13  N   UNL     1      -3.840  12.768  19.624  0.00  0.00    +0.000 NA
ATOM     14  C   UNL     1      -4.489  12.668  20.962  0.00  0.00    +0.000 C 
ATOM     15  C   UNL     1      -3.769  13.068  22.375  0.00  0.00    +0.000 C 
ATOM     16  H   UNL     1      -0.361  16.974  21.226  0.00  0.00    +0.000 HD
ATOM     17  H   UNL     1      -1.401  14.456  18.960  0.00  0.00    +0.000 HD
ATOM     18  H   UNL     1      -4.501  13.151  18.956  0.00  0.00    +0.000 HD
ENDBRANCH   1   2
BRANCH   1  22
ATOM     19  C   UNL     1       0.566   9.902  21.930  0.00  0.00    +0.000 A 
ATOM     20  C   UNL     1       1.115  10.938  21.171  0.00  0.00    +0.000 A 
ATOM     21  C   UNL     1       0.430  12.115  21.066  0.00  0.00    +0.000 A 
ATOM     22  C   UNL     1      -0.783  12.293  21.666  0.00  0.00    +0.000 A 
ATOM     23  C   UNL     1      -1.235  11.318  22.571  0.00  0.00    +0.000 A 
ATOM     24  C   UNL     1      -0.584  10.111  22.681  0.00  0.00    +0.000 A 
BRANCH  19  25
ATOM     25  C   UNL     1       1.279   8.597  21.913  0.00  0.00    +0.000 C 
BRANCH  25  26
ATOM     26  N   UNL     1       1.009   7.886  20.677  0.00  0.00    +0.000 NA
ATOM     27  H   UNL     1       0.295   7.183  20.825  0.00  0.00    +0.000 HD
BRANCH  26  28
ATOM     28  C   UNL     1       2.216   7.276  20.122  0.00  0.00    +0.000 C 
BRANCH  28  32
ATOM     29  C   UNL     1       1.432   3.270  18.792  0.00  0.00    +0.000 A 
ATOM     30  C   UNL     1       1.131   3.631  20.106  0.00  0.00    +0.000 A 
ATOM     31  C   UNL     1       1.364   4.935  20.538  0.00  0.00    +0.000 A 
ATOM     32  C   UNL     1       1.888   5.887  19.651  0.00  0.00    +0.000 A 
ATOM     33  C   UNL     1       2.191   5.513  18.336  0.00  0.00    +0.000 A 
ATOM     34  C   UNL     1       1.963   4.209  17.910  0.00  0.00    +0.000 A 
ENDBRANCH  28  32
ENDBRANCH  26  28
ENDBRANCH  25  26
ENDBRANCH  19  25
ENDBRANCH   1  22
TORSDOF 6
ENDMDL
MODEL 3
REMARK VINA RESULT:      -6.2      2.694      7.469
REMARK  Name = 
REMARK  6 active torsions:
REMARK  status: ('A' for Active; 'I' for Inactive)
REMARK    1  A    between atoms: C_4  and  C_5
REMARK    2  A    between atoms: C_5  and  N_6
REMARK    3  A    between atoms: N_6  and  C_7
REMARK    4  A    between atoms: C_7  and  C_8
REMARK    5  A    between atoms: C_11  and  C_12
REMARK    6  A    between atoms: C_12  and  N_13
REMARK                            x       y       z     vdW  Elec       q    Type
REMARK                         _______ _______ _______ _____ _____    ______ ____
ROOT
ATOM      1  C   UNL     1      -1.472  13.239  21.091  0.00  0.00    +0.000 C 
ENDROOT
BRANCH   1   2
ATOM      2  N   UNL     1      -2.187  13.861  22.187  0.00  0.00    +0.000 NA
ATOM      3  C   UNL     1      -1.228  14.028  23.298  0.00  0.00    +0.000 C 
ATOM      4  C   UNL     1      -0.040  15.063  23.081  0.00  0.00    +0.000 C 
ATOM      5  C   UNL     1       0.923  15.152  21.819  0.00  0.00    +0.000 C 
ATOM      6  N   UNL     1       0.306  15.610  20.553  0.00  0.00    +0.000 NA
ATOM      7  C   UNL     1       0.931  15.307  19.242  0.00  0.00    +0.000 C 
ATOM      8  C   UNL     1       0.609  14.002  18.363  0.00  0.00    +0.000 C 
ATOM      9  N   UNL     1      -0.795  13.638  18.039  0.00  0.00    +0.000 NA
ATOM     10  C   UNL     1      -1.040  12.178  17.950  0.00  0.00    +0.000 C 
ATOM     11  C   UNL     1      -2.518  11.660  17.848  0.00  0.00    +0.000 C 
ATOM     12  C   UNL     1      -3.423  11.464  19.117  0.00  0.00    +0.000 C 
ATOM     13  N   UNL     1      -3.913  12.698  19.742  0.00  0.00    +0.000 NA
ATOM     14  C   UNL     1      -4.383  12.725  21.156  0.00  0.00    +0.000 C 
ATOM     15  C   UNL     1      -3.447  13.117  22.438  0.00  0.00    +0.000 C 
ATOM     16  H   UNL     1       0.121  16.609  20.630  0.00  0.00    +0.000 HD
ATOM     17  H   UNL     1      -1.441  14.104  18.670  0.00  0.00    +0.000 HD
ATOM     18  H   UNL     1      -4.620  13.113  19.143  0.00  0.00    +0.000 HD
ENDBRANCH   1   2
BRANCH   1  22
ATOM     19  C   UNL     1       0.487   9.517  21.571  0.00  0.00    +0.000 A 
ATOM     20  C   UNL     1       1.086  10.518  20.804  0.00  0.00    +0.000 A 
ATOM     21  C   UNL     1       0.493  11.747  20.741  0.00  0.00    +0.000 A 
ATOM     22  C   UNL     1      -0.677  12.010  21.393  0.00  0.00    +0.000 A 
ATOM     23  C   UNL     1      -1.169  11.060  22.304  0.00  0.00    +0.000 A 
ATOM     24  C   UNL     1      -0.612   9.804  22.371  0.00  0.00    +0.000 A 
BRANCH  19  25
ATOM     25  C   UNL     1       1.093   8.160  21.508  0.00  0.00    +0.000 C 
BRANCH  25  26
ATOM     26  N   UNL     1       1.439   7.820  20.141  0.00  0.00    +0.000 NA
ATOM     27  H   UNL     1       0.641   7.415  19.667  0.00  0.00    +0.000 HD
BRANCH  26  28
ATOM     28  C   UNL     1       2.583   6.914  20.075  0.00  0.00    +0.000 C 
BRANCH  28  32
ATOM     29  C   UNL     1       1.059   3.058  18.962  0.00  0.00    +0.000 A 
ATOM     30  C   UNL     1       1.540   3.919  17.976  0.00  0.00    +0.000 A 
ATOM     31  C   UNL     1       2.055   5.164  18.332  0.00  0.00    +0.000 A 
ATOM     32  C   UNL     1       2.101   5.546  19.681  0.00  0.00    +0.000 A 
ATOM     33  C   UNL     1       1.612   4.676  20.662  0.00  0.00    +0.000 A 
ATOM     34  C   UNL     1       1.093   3.437  20.302  0.00  0.00    +0.000 A 
ENDBRANCH  28  32
ENDBRANCH  26  28
ENDBRANCH  25  26
ENDBRANCH  19  25
ENDBRANCH   1  22
TORSDOF 6
ENDMDL
MODEL 4
REMARK VINA RESULT:      -6.1      1.568      2.389
REMARK  Name = 
REMARK  6 active torsions:
REMARK  status: ('A' for Active; 'I' for Inactive)
REMARK    1  A    between atoms: C_4  and  C_5
REMARK    2  A    between atoms: C_5  and  N_6
REMARK    3  A    between atoms: N_6  and  C_7
REMARK    4  A    between atoms: C_7  and  C_8
REMARK    5  A    between atoms: C_11  and  C_12
REMARK    6  A    between atoms: C_12  and  N_13
REMARK                            x       y       z     vdW  Elec       q    Type
REMARK                         _______ _______ _______ _____ _____    ______ ____
ROOT
ATOM      1  C   UNL     1      -0.631  13.927  20.633  0.00  0.00    +0.000 C 
ENDROOT
BRANCH   1   2
ATOM      2  N   UNL     1       0.262  14.863  19.979  0.00  0.00    +0.000 NA
ATOM      3  C   UNL     1      -0.579  15.847  19.267  0.00  0.00    +0.000 C 
ATOM      4  C   UNL     1      -1.456  16.831  20.157  0.00  0.00    +0.000 C 
ATOM      5  C   UNL     1      -2.404  16.426  21.366  0.00  0.00    +0.000 C 
ATOM      6  N   UNL     1      -1.732  15.933  22.591  0.00  0.00    +0.000 NA
ATOM      7  C   UNL     1      -2.461  15.108  23.586  0.00  0.00    +0.000 C 
ATOM      8  C   UNL     1      -2.528  13.505  23.561  0.00  0.00    +0.000 C 
ATOM      9  N   UNL     1      -1.283  12.698  23.460  0.00  0.00    +0.000 NA
ATOM     10  C   UNL     1      -1.439  11.431  22.705  0.00  0.00    +0.000 C 
ATOM     11  C   UNL     1      -0.157  10.609  22.327  0.00  0.00    +0.000 C 
ATOM     12  C   UNL     1       0.708  10.948  21.060  0.00  0.00    +0.000 C 
ATOM     13  N   UNL     1       1.530  12.160  21.159  0.00  0.00    +0.000 NA
ATOM     14  C   UNL     1       2.039  12.860  19.945  0.00  0.00    +0.000 C 
ATOM     15  C   UNL     1       1.286  14.112  19.212  0.00  0.00    +0.000 C 
ATOM     16  H   UNL     1      -1.286  16.724  23.052  0.00  0.00    +0.000 HD
ATOM     17  H   UNL     1      -0.515  13.266  23.115  0.00  0.00    +0.000 HD
ATOM     18  H   UNL     1       2.300  11.985  21.796  0.00  0.00    +0.000 HD
ENDBRANCH   1   2
BRANCH   1  22
ATOM     19  C   UNL     1      -3.456  11.586  18.520  0.00  0.00    +0.000 A 
ATOM     20  C   UNL     1      -3.884  12.411  19.562  0.00  0.00    +0.000 A 
ATOM     21  C   UNL     1      -2.979  13.237  20.166  0.00  0.00    +0.000 A 
ATOM     22  C   UNL     1      -1.667  13.257  19.790  0.00  0.00    +0.000 A 
ATOM     23  C   UNL     1      -1.289  12.564  18.628  0.00  0.00    +0.000 A 
ATOM     24  C   UNL     1      -2.168  11.703  18.011  0.00  0.00    +0.000 A 
BRANCH  19  25
ATOM     25  C   UNL     1      -4.439  10.611  17.978  0.00  0.00    +0.000 C 
BRANCH  25  26
ATOM     26  N   UNL     1      -5.668  11.285  17.602  0.00  0.00    +0.000 NA
ATOM     27  H   UNL     1      -5.592  12.279  17.778  0.00  0.00    +0.000 HD
BRANCH  26  28
ATOM     28  C   UNL     1      -6.830  10.733  18.295  0.00  0.00    +0.000 C 
BRANCH  28  32
ATOM     29  C   UNL     1      -7.886  13.478  21.422  0.00  0.00    +0.000 A 
ATOM     30  C   UNL     1      -7.870  13.916  20.098  0.00  0.00    +0.000 A 
ATOM     31  C   UNL     1      -7.548  13.024  19.076  0.00  0.00    +0.000 A 
ATOM     32  C   UNL     1      -7.252  11.687  19.377  0.00  0.00    +0.000 A 
ATOM     33  C   UNL     1      -7.265  11.259  20.710  0.00  0.00    +0.000 A 
ATOM     34  C   UNL     1      -7.581  12.153  21.728  0.00  0.00    +0.000 A 
ENDBRANCH  28  32
ENDBRANCH  26  28
ENDBRANCH  25  26
ENDBRANCH  19  25
ENDBRANCH   1  22
TORSDOF 6
ENDMDL
MODEL 5
REMARK VINA RESULT:      -6.1      0.955      1.432
REMARK  Name = 
REMARK  6 active torsions:
REMARK  status: ('A' for Active; 'I' for Inactive)
REMARK    1  A    between atoms: C_4  and  C_5
REMARK    2  A    between atoms: C_5  and  N_6
REMARK    3  A    between atoms: N_6  and  C_7
REMARK    4  A    between atoms: C_7  and  C_8
REMARK    5  A    between atoms: C_11  and  C_12
REMARK    6  A    between atoms: C_12  and  N_13
REMARK                            x       y       z     vdW  Elec       q    Type
REMARK                         _______ _______ _______ _____ _____    ______ ____
ROOT
ATOM      1  C   UNL     1       0.630  11.105  20.118  0.00  0.00    +0.000 C 
ENDROOT
BRANCH   1   2
ATOM      2  N   UNL     1       1.746  10.546  19.383  0.00  0.00    +0.000 NA
ATOM      3  C   UNL     1       1.774  11.203  18.061  0.00  0.00    +0.000 C 
ATOM      4  C   UNL     1       2.132  12.753  18.029  0.00  0.00    +0.000 C 
ATOM      5  C   UNL     1       1.493  13.894  18.933  0.00  0.00    +0.000 C 
ATOM      6  N   UNL     1       1.831  13.855  20.374  0.00  0.00    +0.000 NA
ATOM      7  C   UNL     1       0.977  14.533  21.380  0.00  0.00    +0.000 C 
ATOM      8  C   UNL     1      -0.252  13.838  22.145  0.00  0.00    +0.000 C 
ATOM      9  N   UNL     1      -0.070  12.535  22.838  0.00  0.00    +0.000 NA
ATOM     10  C   UNL     1      -1.267  11.661  22.814  0.00  0.00    +0.000 C 
ATOM     11  C   UNL     1      -1.134  10.175  23.301  0.00  0.00    +0.000 C 
ATOM     12  C   UNL     1      -0.610   9.032  22.359  0.00  0.00    +0.000 C 
ATOM     13  N   UNL     1       0.830   9.055  22.075  0.00  0.00    +0.000 NA
ATOM     14  C   UNL     1       1.403   8.358  20.889  0.00  0.00    +0.000 C 
ATOM     15  C   UNL     1       1.681   9.064  19.441  0.00  0.00    +0.000 C 
ATOM     16  H   UNL     1       2.800  14.148  20.484  0.00  0.00    +0.000 HD
ATOM     17  H   UNL     1       0.764  12.063  22.500  0.00  0.00    +0.000 HD
ATOM     18  H   UNL     1       1.335   8.775  22.909  0.00  0.00    +0.000 HD
ENDBRANCH   1   2
BRANCH   1  22
ATOM     19  C   UNL     1      -2.920  11.320  17.821  0.00  0.00    +0.000 A 
ATOM     20  C   UNL     1      -2.198  10.125  17.867  0.00  0.00    +0.000 A 
ATOM     21  C   UNL     1      -1.114  10.040  18.692  0.00  0.00    +0.000 A 
ATOM     22  C   UNL     1      -0.708  11.098  19.454  0.00  0.00    +0.000 A 
ATOM     23  C   UNL     1      -1.543  12.225  19.538  0.00  0.00    +0.000 A 
ATOM     24  C   UNL     1      -2.628  12.355  18.702  0.00  0.00    +0.000 A 
BRANCH  19  25
ATOM     25  C   UNL     1      -4.013  11.414  16.817  0.00  0.00    +0.000 C 
BRANCH  25  26
ATOM     26  N   UNL     1      -5.123  12.184  17.344  0.00  0.00    +0.000 NA
ATOM     27  H   UNL     1      -4.796  12.839  18.045  0.00  0.00    +0.000 HD
BRANCH  26  28
ATOM     28  C   UNL     1      -6.170  11.328  17.899  0.00  0.00    +0.000 C 
BRANCH  28  32
ATOM     29  C   UNL     1      -7.347  12.831  21.744  0.00  0.00    +0.000 A 
ATOM     30  C   UNL     1      -7.625  11.506  21.408  0.00  0.00    +0.000 A 
ATOM     31  C   UNL     1      -7.228  11.006  20.169  0.00  0.00    +0.000 A 
ATOM     32  C   UNL     1      -6.538  11.829  19.267  0.00  0.00    +0.000 A 
ATOM     33  C   UNL     1      -6.268  13.159  19.612  0.00  0.00    +0.000 A 
ATOM     34  C   UNL     1      -6.672  13.656  20.847  0.00  0.00    +0.000 A 
ENDBRANCH  28  32
ENDBRANCH  26  28
ENDBRANCH  25  26
ENDBRANCH  19  25
ENDBRANCH   1  22
TORSDOF 6
ENDMDL
MODEL 6
REMARK VINA RESULT:      -6.0      1.126      1.697
REMARK  Name = 
REMARK  6 active torsions:
REMARK  status: ('A' for Active; 'I' for Inactive)
REMARK    1  A    between atoms: C_4  and  C_5
REMARK    2  A    between atoms: C_5  and  N_6
REMARK    3  A    between atoms: N_6  and  C_7
REMARK    4  A    between atoms: C_7  and  C_8
REMARK    5  A    between atoms: C_11  and  C_12
REMARK    6  A    between atoms: C_12  and  N_13
REMARK                            x       y       z     vdW  Elec       q    Type
REMARK                         _______ _______ _______ _____ _____    ______ ____
ROOT
ATOM      1  C   UNL     1      -0.346  12.926  20.057  0.00  0.00    +0.000 C 
ENDROOT
BRANCH   1   2
ATOM      2  N   UNL     1       0.403  13.942  19.343  0.00  0.00    +0.000 NA
ATOM      3  C   UNL     1      -0.544  15.020  18.994  0.00  0.00    +0.000 C 
ATOM      4  C   UNL     1      -1.148  15.872  20.194  0.00  0.00    +0.000 C 
ATOM      5  C   UNL     1      -1.799  15.303  21.528  0.00  0.00    +0.000 C 
ATOM      6  N   UNL     1      -0.877  14.639  22.477  0.00  0.00    +0.000 NA
ATOM      7  C   UNL     1      -1.381  13.684  23.495  0.00  0.00    +0.000 C 
ATOM      8  C   UNL     1      -1.514  12.101  23.268  0.00  0.00    +0.000 C 
ATOM      9  N   UNL     1      -0.360  11.311  22.763  0.00  0.00    +0.000 NA
ATOM     10  C   UNL     1      -0.737  10.165  21.901  0.00  0.00    +0.000 C 
ATOM     11  C   UNL     1       0.388   9.399  21.119  0.00  0.00    +0.000 C 
ATOM     12  C   UNL     1       0.942   9.910  19.740  0.00  0.00    +0.000 C 
ATOM     13  N   UNL     1       1.809  11.092  19.805  0.00  0.00    +0.000 NA
ATOM     14  C   UNL     1       2.044  11.955  18.612  0.00  0.00    +0.000 C 
ATOM     15  C   UNL     1       1.188  13.302  18.258  0.00  0.00    +0.000 C 
ATOM     16  H   UNL     1      -0.305  15.354  22.922  0.00  0.00    +0.000 HD
ATOM     17  H   UNL     1       0.326  11.919  22.325  0.00  0.00    +0.000 HD
ATOM     18  H   UNL     1       2.701  10.825  20.209  0.00  0.00    +0.000 HD
ENDBRANCH   1   2
BRANCH   1  22
ATOM     19  C   UNL     1      -3.814  11.772  17.920  0.00  0.00    +0.000 A 
ATOM     20  C   UNL     1      -2.551  11.460  17.410  0.00  0.00    +0.000 A 
ATOM     21  C   UNL     1      -1.446  11.747  18.158  0.00  0.00    +0.000 A 
ATOM     22  C   UNL     1      -1.546  12.348  19.379  0.00  0.00    +0.000 A 
ATOM     23  C   UNL     1      -2.818  12.488  19.959  0.00  0.00    +0.000 A 
ATOM     24  C   UNL     1      -3.952  12.234  19.223  0.00  0.00    +0.000 A 
BRANCH  19  25
ATOM     25  C   UNL     1      -4.980  11.563  17.022  0.00  0.00    +0.000 C 
BRANCH  25  26
ATOM     26  N   UNL     1      -6.128  11.102  17.778  0.00  0.00    +0.000 NA
ATOM     27  H   UNL     1      -6.490  10.243  17.379  0.00  0.00    +0.000 HD
BRANCH  26  28
ATOM     28  C   UNL     1      -7.182  12.113  17.845  0.00  0.00    +0.000 C 
BRANCH  28  32
ATOM     29  C   UNL     1      -7.907  12.935  21.996  0.00  0.00    +0.000 A 
ATOM     30  C   UNL     1      -7.916  13.983  21.075  0.00  0.00    +0.000 A 
ATOM     31  C   UNL     1      -7.701  13.720  19.723  0.00  0.00    +0.000 A 
ATOM     32  C   UNL     1      -7.489  12.403  19.287  0.00  0.00    +0.000 A 
ATOM     33  C   UNL     1      -7.477  11.360  20.221  0.00  0.00    +0.000 A 
ATOM     34  C   UNL     1      -7.685  11.627  21.570  0.00  0.00    +0.000 A 
ENDBRANCH  28  32
ENDBRANCH  26  28
ENDBRANCH  25  26
ENDBRANCH  19  25
ENDBRANCH   1  22
TORSDOF 6
ENDMDL
MODEL 7
REMARK VINA RESULT:      -6.0      1.216      4.161
REMARK  Name = 
REMARK  6 active torsions:
REMARK  status: ('A' for Active; 'I' for Inactive)
REMARK    1  A    between atoms: C_4  and  C_5
REMARK    2  A    between atoms: C_5  and  N_6
REMARK    3  A    between atoms: N_6  and  C_7
REMARK    4  A    between atoms: C_7  and  C_8
REMARK    5  A    between atoms: C_11  and  C_12
REMARK    6  A    between atoms: C_12  and  N_13
REMARK                            x       y       z     vdW  Elec       q    Type
REMARK                         _______ _______ _______ _____ _____    ______ ____
ROOT
ATOM      1  C   UNL     1       0.371  11.134  20.679  0.00  0.00    +0.000 C 
ENDROOT
BRANCH   1   2
ATOM      2  N   UNL     1       0.214  11.653  22.023  0.00  0.00    +0.000 NA
ATOM      3  C   UNL     1      -0.911  10.927  22.646  0.00  0.00    +0.000 C 
ATOM      4  C   UNL     1      -0.701   9.377  22.939  0.00  0.00    +0.000 C 
ATOM      5  C   UNL     1      -0.147   8.286  21.924  0.00  0.00    +0.000 C 
ATOM      6  N   UNL     1       1.282   8.400  21.554  0.00  0.00    +0.000 NA
ATOM      7  C   UNL     1       1.805   7.776  20.314  0.00  0.00    +0.000 C 
ATOM      8  C   UNL     1       1.877   8.511  18.888  0.00  0.00    +0.000 C 
ATOM      9  N   UNL     1       2.514   9.848  18.760  0.00  0.00    +0.000 NA
ATOM     10  C   UNL     1       1.896  10.721  17.733  0.00  0.00    +0.000 C 
ATOM     11  C   UNL     1       2.320  12.230  17.662  0.00  0.00    +0.000 C 
ATOM     12  C   UNL     1       1.679  13.322  18.592  0.00  0.00    +0.000 C 
ATOM     13  N   UNL     1       2.099  13.283  19.998  0.00  0.00    +0.000 NA
ATOM     14  C   UNL     1       1.286  13.917  21.074  0.00  0.00    +0.000 C 
ATOM     15  C   UNL     1       0.167  13.136  21.975  0.00  0.00    +0.000 C 
ATOM     16  H   UNL     1       1.844   8.112  22.354  0.00  0.00    +0.000 HD
ATOM     17  H   UNL     1       2.582  10.302  19.667  0.00  0.00    +0.000 HD
ATOM     18  H   UNL     1       3.059  13.607  20.064  0.00  0.00    +0.000 HD
ENDBRANCH   1   2
BRANCH   1  22
ATOM     19  C   UNL     1      -2.753  11.309  17.827  0.00  0.00    +0.000 A 
ATOM     20  C   UNL     1      -2.037  10.122  17.994  0.00  0.00    +0.000 A 
ATOM     21  C   UNL     1      -1.102  10.049  18.987  0.00  0.00    +0.000 A 
ATOM     22  C   UNL     1      -0.839  11.112  19.802  0.00  0.00    +0.000 A 
ATOM     23  C   UNL     1      -1.688  12.230  19.745  0.00  0.00    +0.000 A 
ATOM     24  C   UNL     1      -2.621  12.348  18.741  0.00  0.00    +0.000 A 
BRANCH  19  25
ATOM     25  C   UNL     1      -3.666  11.391  16.656  0.00  0.00    +0.000 C 
BRANCH  25  26
ATOM     26  N   UNL     1      -4.978  10.877  16.997  0.00  0.00    +0.000 NA
ATOM     27  H   UNL     1      -5.377  10.380  16.208  0.00  0.00    +0.000 HD
BRANCH  26  28
ATOM     28  C   UNL     1      -5.884  11.935  17.440  0.00  0.00    +0.000 C 
BRANCH  28  32
ATOM     29  C   UNL     1      -7.802  10.817  21.114  0.00  0.00    +0.000 A 
ATOM     30  C   UNL     1      -7.429   9.829  20.204  0.00  0.00    +0.000 A 
ATOM     31  C   UNL     1      -6.788  10.183  19.018  0.00  0.00    +0.000 A 
ATOM     32  C   UNL     1      -6.506  11.530  18.747  0.00  0.00    +0.000 A 
ATOM     33  C   UNL     1      -6.889  12.515  19.665  0.00  0.00    +0.000 A 
ATOM     34  C   UNL     1      -7.535  12.158  20.844  0.00  0.00    +0.000 A 
ENDBRANCH  28  32
ENDBRANCH  26  28
ENDBRANCH  25  26
ENDBRANCH  19  25
ENDBRANCH   1  22
TORSDOF 6
ENDMDL
MODEL 8
REMARK VINA RESULT:      -6.0      2.221      7.079
REMARK  Name = 
REMARK  6 active torsions:
REMARK  status: ('A' for Active; 'I' for Inactive)
REMARK    1  A    between atoms: C_4  and  C_5
REMARK    2  A    between atoms: C_5  and  N_6
REMARK    3  A    between atoms: N_6  and  C_7
REMARK    4  A    between atoms: C_7  and  C_8
REMARK    5  A    between atoms: C_11  and  C_12
REMARK    6  A    between atoms: C_12  and  N_13
REMARK                            x       y       z     vdW  Elec       q    Type
REMARK                         _______ _______ _______ _____ _____    ______ ____
ROOT
ATOM      1  C   UNL     1      -1.909  14.233  21.035  0.00  0.00    +0.000 C 
ENDROOT
BRANCH   1   2
ATOM      2  N   UNL     1      -2.635  15.212  21.819  0.00  0.00    +0.000 NA
ATOM      3  C   UNL     1      -1.747  15.640  22.918  0.00  0.00    +0.000 C 
ATOM      4  C   UNL     1      -0.448  16.468  22.520  0.00  0.00    +0.000 C 
ATOM      5  C   UNL     1       0.608  16.095  21.392  0.00  0.00    +0.000 C 
ATOM      6  N   UNL     1       0.132  16.187  19.992  0.00  0.00    +0.000 NA
ATOM      7  C   UNL     1       0.816  15.451  18.900  0.00  0.00    +0.000 C 
ATOM      8  C   UNL     1       0.430  13.968  18.424  0.00  0.00    +0.000 C 
ATOM      9  N   UNL     1      -0.978  13.627  18.086  0.00  0.00    +0.000 NA
ATOM     10  C   UNL     1      -1.360  12.232  18.413  0.00  0.00    +0.000 C 
ATOM     11  C   UNL     1      -2.872  11.818  18.325  0.00  0.00    +0.000 C 
ATOM     12  C   UNL     1      -3.881  12.088  19.498  0.00  0.00    +0.000 C 
ATOM     13  N   UNL     1      -4.288  13.487  19.674  0.00  0.00    +0.000 NA
ATOM     14  C   UNL     1      -4.854  13.980  20.962  0.00  0.00    +0.000 C 
ATOM     15  C   UNL     1      -3.978  14.676  22.154  0.00  0.00    +0.000 C 
ATOM     16  H   UNL     1       0.044  17.172  19.748  0.00  0.00    +0.000 HD
ATOM     17  H   UNL     1      -1.617  14.310  18.482  0.00  0.00    +0.000 HD
ATOM     18  H   UNL     1      -4.905  13.749  18.912  0.00  0.00    +0.000 HD
ENDBRANCH   1   2
BRANCH   1  22
ATOM     19  C   UNL     1      -0.389  10.659  22.720  0.00  0.00    +0.000 A 
ATOM     20  C   UNL     1       0.443  11.460  21.935  0.00  0.00    +0.000 A 
ATOM     21  C   UNL     1      -0.029  12.659  21.483  0.00  0.00    +0.000 A 
ATOM     22  C   UNL     1      -1.297  13.081  21.763  0.00  0.00    +0.000 A 
ATOM     23  C   UNL     1      -2.055  12.357  22.700  0.00  0.00    +0.000 A 
ATOM     24  C   UNL     1      -1.622  11.133  23.153  0.00  0.00    +0.000 A 
BRANCH  19  25
ATOM     25  C   UNL     1       0.115   9.307  23.081  0.00  0.00    +0.000 C 
BRANCH  25  26
ATOM     26  N   UNL     1       1.314   8.993  22.328  0.00  0.00    +0.000 NA
ATOM     27  H   UNL     1       1.562   9.767  21.723  0.00  0.00    +0.000 HD
BRANCH  26  28
ATOM     28  C   UNL     1       1.164   7.767  21.546  0.00  0.00    +0.000 C 
BRANCH  28  32
ATOM     29  C   UNL     1       2.385   8.657  17.528  0.00  0.00    +0.000 A 
ATOM     30  C   UNL     1       2.819   7.478  18.135  0.00  0.00    +0.000 A 
ATOM     31  C   UNL     1       2.409   7.173  19.432  0.00  0.00    +0.000 A 
ATOM     32  C   UNL     1       1.553   8.044  20.121  0.00  0.00    +0.000 A 
ATOM     33  C   UNL     1       1.128   9.227  19.506  0.00  0.00    +0.000 A 
ATOM     34  C   UNL     1       1.544   9.531  18.214  0.00  0.00    +0.000 A 
ENDBRANCH  28  32
ENDBRANCH  26  28
ENDBRANCH  25  26
ENDBRANCH  19  25
ENDBRANCH   1  22
TORSDOF 6
ENDMDL
MODEL 9
REMARK VINA RESULT:      -6.0      1.334      1.677
REMARK  Name = 
REMARK  6 active torsions:
REMARK  status: ('A' for Active; 'I' for Inactive)
REMARK    1  A    between atoms: C_4  and  C_5
REMARK    2  A    between atoms: C_5  and  N_6
REMARK    3  A    between atoms: N_6  and  C_7
REMARK    4  A    between atoms: C_7  and  C_8
REMARK    5  A    between atoms: C_11  and  C_12
REMARK    6  A    between atoms: C_12  and  N_13
REMARK                            x       y       z     vdW  Elec       q    Type
REMARK                         _______ _______ _______ _____ _____    ______ ____
ROOT
ATOM      1  C   UNL     1      -0.567  13.387  20.549  0.00  0.00    +0.000 C 
ENDROOT
BRANCH   1   2
ATOM      2  N   UNL     1       0.423  14.029  19.707  0.00  0.00    +0.000 NA
ATOM      3  C   UNL     1      -0.290  15.001  18.854  0.00  0.00    +0.000 C 
ATOM      4  C   UNL     1      -0.941  16.260  19.576  0.00  0.00    +0.000 C 
ATOM      5  C   UNL     1      -1.867  16.239  20.868  0.00  0.00    +0.000 C 
ATOM      6  N   UNL     1      -1.209  15.861  22.141  0.00  0.00    +0.000 NA
ATOM      7  C   UNL     1      -1.999  15.359  23.292  0.00  0.00    +0.000 C 
ATOM      8  C   UNL     1      -2.326  13.811  23.562  0.00  0.00    +0.000 C 
ATOM      9  N   UNL     1      -1.235  12.800  23.572  0.00  0.00    +0.000 NA
ATOM     10  C   UNL     1      -1.639  11.465  23.066  0.00  0.00    +0.000 C 
ATOM     11  C   UNL     1      -0.531  10.384  22.805  0.00  0.00    +0.000 C 
ATOM     12  C   UNL     1       0.298  10.345  21.471  0.00  0.00    +0.000 C 
ATOM     13  N   UNL     1       1.309  11.398  21.321  0.00  0.00    +0.000 NA
ATOM     14  C   UNL     1       1.849  11.779  19.984  0.00  0.00    +0.000 C 
ATOM     15  C   UNL     1       1.264  12.993  19.058  0.00  0.00    +0.000 C 
ATOM     16  H   UNL     1      -0.614  16.634  22.436  0.00  0.00    +0.000 HD
ATOM     17  H   UNL     1      -0.408  13.160  23.104  0.00  0.00    +0.000 HD
ATOM     18  H   UNL     1       2.078  11.209  21.955  0.00  0.00    +0.000 HD
ENDBRANCH   1   2
BRANCH   1  22
ATOM     19  C   UNL     1      -3.880  11.928  18.352  0.00  0.00    +0.000 A 
ATOM     20  C   UNL     1      -2.585  11.578  17.964  0.00  0.00    +0.000 A 
ATOM     21  C   UNL     1      -1.533  11.971  18.740  0.00  0.00    +0.000 A 
ATOM     22  C   UNL     1      -1.716  12.713  19.871  0.00  0.00    +0.000 A 
ATOM     23  C   UNL     1      -3.024  12.900  20.349  0.00  0.00    +0.000 A 
ATOM     24  C   UNL     1      -4.106  12.541  19.579  0.00  0.00    +0.000 A 
BRANCH  19  25
ATOM     25  C   UNL     1      -4.984  11.594  17.414  0.00  0.00    +0.000 C 
BRANCH  25  26
ATOM     26  N   UNL     1      -5.838  12.747  17.202  0.00  0.00    +0.000 NA
ATOM     27  H   UNL     1      -5.521  13.528  17.764  0.00  0.00    +0.000 HD
BRANCH  26  28
ATOM     28  C   UNL     1      -7.240  12.451  17.489  0.00  0.00    +0.000 C 
BRANCH  28  32
ATOM     29  C   UNL     1      -7.745  12.756  21.741  0.00  0.00    +0.000 A 
ATOM     30  C   UNL     1      -7.743  13.914  20.963  0.00  0.00    +0.000 A 
ATOM     31  C   UNL     1      -7.600  13.820  19.580  0.00  0.00    +0.000 A 
ATOM     32  C   UNL     1      -7.471  12.564  18.970  0.00  0.00    +0.000 A 
ATOM     33  C   UNL     1      -7.469  11.409  19.760  0.00  0.00    +0.000 A 
ATOM     34  C   UNL     1      -7.605  11.506  21.141  0.00  0.00    +0.000 A 
ENDBRANCH  28  32
ENDBRANCH  26  28
ENDBRANCH  25  26
ENDBRANCH  19  25
ENDBRANCH   1  22
TORSDOF 6
ENDMDL
