MODEL 1
REMARK VINA RESULT:      -7.8      0.000      0.000
REMARK  Name = 
REMARK  7 active torsions:
REMARK  status: ('A' for Active; 'I' for Inactive)
REMARK    1  A    between atoms: C_1  and  O_2
REMARK    2  A    between atoms: O_2  and  C_3
REMARK    3  A    between atoms: C_3  and  C_4
REMARK    4  A    between atoms: C_4  and  C_5
REMARK    5  A    between atoms: C_12  and  C_13
REMARK    6  A    between atoms: C_19  and  N_20
REMARK    7  A    between atoms: N_20  and  C_21
REMARK                            x       y       z     vdW  Elec       q    Type
REMARK                         _______ _______ _______ _____ _____    ______ ____
ROOT
ATOM      1  C   UNL     1       4.914   5.397  18.325  0.00  0.00    +0.000 A 
ATOM      2  C   UNL     1       5.848   4.383  18.504  0.00  0.00    +0.000 A 
ATOM      3  N   UNL     1       5.303   3.425  19.307  0.00  0.00    +0.000 N 
ATOM      4  C   UNL     1       4.060   3.818  19.707  0.00  0.00    +0.000 A 
ATOM      5  N   UNL     1       3.285   3.060  20.486  0.00  0.00    +0.000 NA
ATOM      6  C   UNL     1       2.118   3.660  20.754  0.00  0.00    +0.000 A 
ATOM      7  N   UNL     1       1.718   4.887  20.381  0.00  0.00    +0.000 NA
ATOM      8  C   UNL     1       2.552   5.652  19.611  0.00  0.00    +0.000 A 
ATOM      9  C   UNL     1       3.791   5.087  19.193  0.00  0.00    +0.000 A 
ATOM     10  H   UNL     1       5.719   2.543  19.554  0.00  0.00    +0.000 HD
ENDROOT
BRANCH   8  11
ATOM     11  C   UNL     1       2.104   7.042  19.366  0.00  0.00    +0.000 A 
ATOM     12  C   UNL     1       2.160   7.608  18.074  0.00  0.00    +0.000 A 
ATOM     13  C   UNL     1       1.757   8.918  17.804  0.00  0.00    +0.000 A 
ATOM     14  C   UNL     1       1.335   9.703  18.856  0.00  0.00    +0.000 A 
ATOM     15  C   UNL     1       1.295   9.207  20.162  0.00  0.00    +0.000 A 
ATOM     16  C   UNL     1       1.695   7.894  20.425  0.00  0.00    +0.000 A 
ATOM     17  C   UNL     1       0.864  10.295  21.114  0.00  0.00    +0.000 C 
ATOM     18  C   UNL     1       0.246  11.322  20.134  0.00  0.00    +0.000 C 
ATOM     19  C   UNL     1       0.980  11.154  18.805  0.00  0.00    +0.000 C 
BRANCH  17  20
ATOM     20  N   UNL     1      -0.156   9.876  22.102  0.00  0.00    +0.000 N 
ATOM     21  H   UNL     1      -0.602   8.993  21.833  0.00  0.00    +0.000 HD
BRANCH  20  22
ATOM     22  C   UNL     1      -0.881  10.757  22.803  0.00  0.00    +0.000 C 
ATOM     23  N   UNL     1      -1.517  11.489  23.433  0.00  0.00    +0.000 NA
ENDBRANCH  20  22
ENDBRANCH  17  20
ENDBRANCH   8  11
BRANCH   1  24
ATOM     24  C   UNL     1       5.087   6.546  17.366  0.00  0.00    +0.000 C 
BRANCH  24  25
ATOM     25  C   UNL     1       5.239   6.126  15.899  0.00  0.00    +0.000 C 
BRANCH  25  27
ATOM     26  C   UNL     1       6.843   4.863  14.721  0.00  0.00    +0.000 C 
ATOM     27  O   UNL     1       6.622   5.971  15.581  0.00  0.00    +0.000 OA
ENDBRANCH  25  27
ENDBRANCH  24  25
ENDBRANCH   1  24
TORSDOF 6
ENDMDL
MODEL 2
REMARK VINA RESULT:      -7.7      1.064      1.314
REMARK  Name = 
REMARK  7 active torsions:
REMARK  status: ('A' for Active; 'I' for Inactive)
REMARK    1  A    between atoms: C_1  and  O_2
REMARK    2  A    between atoms: O_2  and  C_3
REMARK    3  A    between atoms: C_3  and  C_4
REMARK    4  A    between atoms: C_4  and  C_5
REMARK    5  A    between atoms: C_12  and  C_13
REMARK    6  A    between atoms: C_19  and  N_20
REMARK    7  A    between atoms: N_20  and  C_21
REMARK                            x       y       z     vdW  Elec       q    Type
REMARK                         _______ _______ _______ _____ _____    ______ ____
ROOT
ATOM      1  C   UNL     1       5.216   5.285  18.601  0.00  0.00    +0.000 A 
ATOM      2  C   UNL     1       6.098   4.242  18.862  0.00  0.00    +0.000 A 
ATOM      3  N   UNL     1       5.393   3.191  19.370  0.00  0.00    +0.000 N 
ATOM      4  C   UNL     1       4.082   3.543  19.505  0.00  0.00    +0.000 A 
ATOM      5  N   UNL     1       3.157   2.696  19.961  0.00  0.00    +0.000 NA
ATOM      6  C   UNL     1       1.948   3.271  20.016  0.00  0.00    +0.000 A 
ATOM      7  N   UNL     1       1.627   4.543  19.730  0.00  0.00    +0.000 NA
ATOM      8  C   UNL     1       2.608   5.395  19.297  0.00  0.00    +0.000 A 
ATOM      9  C   UNL     1       3.922   4.875  19.119  0.00  0.00    +0.000 A 
ATOM     10  H   UNL     1       5.754   2.277  19.587  0.00  0.00    +0.000 HD
ENDROOT
BRANCH   8  11
ATOM     11  C   UNL     1       2.206   6.811  19.143  0.00  0.00    +0.000 A 
ATOM     12  C   UNL     1       2.280   7.457  17.890  0.00  0.00    +0.000 A 
ATOM     13  C   UNL     1       1.921   8.794  17.705  0.00  0.00    +0.000 A 
ATOM     14  C   UNL     1       1.524   9.524  18.806  0.00  0.00    +0.000 A 
ATOM     15  C   UNL     1       1.468   8.946  20.078  0.00  0.00    +0.000 A 
ATOM     16  C   UNL     1       1.824   7.606  20.256  0.00  0.00    +0.000 A 
ATOM     17  C   UNL     1       1.073   9.984  21.099  0.00  0.00    +0.000 C 
ATOM     18  C   UNL     1       0.489  11.091  20.189  0.00  0.00    +0.000 C 
ATOM     19  C   UNL     1       1.217  10.986  18.850  0.00  0.00    +0.000 C 
BRANCH  17  20
ATOM     20  N   UNL     1       0.039   9.535  22.059  0.00  0.00    +0.000 N 
ATOM     21  H   UNL     1      -0.394   8.654  21.766  0.00  0.00    +0.000 HD
BRANCH  20  22
ATOM     22  C   UNL     1      -0.707  10.396  22.765  0.00  0.00    +0.000 C 
ATOM     23  N   UNL     1      -1.321  11.163  23.374  0.00  0.00    +0.000 NA
ENDBRANCH  20  22
ENDBRANCH  17  20
ENDBRANCH   8  11
BRANCH   1  24
ATOM     24  C   UNL     1       5.594   6.551  17.880  0.00  0.00    +0.000 C 
BRANCH  24  25
ATOM     25  C   UNL     1       7.074   6.637  17.489  0.00  0.00    +0.000 C 
BRANCH  25  27
ATOM     26  C   UNL     1       8.023   8.762  17.865  0.00  0.00    +0.000 C 
ATOM     27  O   UNL     1       7.356   7.922  16.935  0.00  0.00    +0.000 OA
ENDBRANCH  25  27
ENDBRANCH  24  25
ENDBRANCH   1  24
TORSDOF 6
ENDMDL
MODEL 3
REMARK VINA RESULT:      -7.4      2.939      4.350
REMARK  Name = 
REMARK  7 active torsions:
REMARK  status: ('A' for Active; 'I' for Inactive)
REMARK    1  A    between atoms: C_1  and  O_2
REMARK    2  A    between atoms: O_2  and  C_3
REMARK    3  A    between atoms: C_3  and  C_4
REMARK    4  A    between atoms: C_4  and  C_5
REMARK    5  A    between atoms: C_12  and  C_13
REMARK    6  A    between atoms: C_19  and  N_20
REMARK    7  A    between atoms: N_20  and  C_21
REMARK                            x       y       z     vdW  Elec       q    Type
REMARK                         _______ _______ _______ _____ _____    ______ ____
ROOT
ATOM      1  C   UNL     1       2.261   4.144  18.320  0.00  0.00    +0.000 A 
ATOM      2  C   UNL     1       2.546   3.046  17.517  0.00  0.00    +0.000 A 
ATOM      3  N   UNL     1       3.602   3.357  16.711  0.00  0.00    +0.000 N 
ATOM      4  C   UNL     1       3.974   4.651  16.925  0.00  0.00    +0.000 A 
ATOM      5  N   UNL     1       4.999   5.216  16.284  0.00  0.00    +0.000 NA
ATOM      6  C   UNL     1       5.165   6.494  16.651  0.00  0.00    +0.000 A 
ATOM      7  N   UNL     1       4.409   7.213  17.498  0.00  0.00    +0.000 NA
ATOM      8  C   UNL     1       3.343   6.610  18.112  0.00  0.00    +0.000 A 
ATOM      9  C   UNL     1       3.116   5.227  17.863  0.00  0.00    +0.000 A 
ATOM     10  H   UNL     1       4.072   2.736  16.074  0.00  0.00    +0.000 HD
ENDROOT
BRANCH   8  11
ATOM     11  C   UNL     1       2.476   7.504  18.914  0.00  0.00    +0.000 A 
ATOM     12  C   UNL     1       2.099   7.163  20.231  0.00  0.00    +0.000 A 
ATOM     13  C   UNL     1       1.275   7.972  21.016  0.00  0.00    +0.000 A 
ATOM     14  C   UNL     1       0.770   9.128  20.458  0.00  0.00    +0.000 A 
ATOM     15  C   UNL     1       1.079   9.496  19.145  0.00  0.00    +0.000 A 
ATOM     16  C   UNL     1       1.909   8.685  18.367  0.00  0.00    +0.000 A 
ATOM     17  C   UNL     1       0.340  10.758  18.776  0.00  0.00    +0.000 C 
ATOM     18  C   UNL     1      -0.066  11.287  20.173  0.00  0.00    +0.000 C 
ATOM     19  C   UNL     1      -0.218  10.064  21.076  0.00  0.00    +0.000 C 
BRANCH  17  20
ATOM     20  N   UNL     1       1.167  11.772  18.083  0.00  0.00    +0.000 N 
ATOM     21  H   UNL     1       2.049  11.373  17.745  0.00  0.00    +0.000 HD
BRANCH  20  22
ATOM     22  C   UNL     1       1.155  13.066  18.428  0.00  0.00    +0.000 C 
ATOM     23  N   UNL     1       1.109  14.179  18.740  0.00  0.00    +0.000 NA
ENDBRANCH  20  22
ENDBRANCH  17  20
ENDBRANCH   8  11
BRANCH   1  24
ATOM     24  C   UNL     1       1.271   4.128  19.455  0.00  0.00    +0.000 C 
BRANCH  24  25
ATOM     25  C   UNL     1       0.935   2.726  19.978  0.00  0.00    +0.000 C 
BRANCH  25  27
ATOM     26  C   UNL     1       2.220   3.467  21.810  0.00  0.00    +0.000 C 
ATOM     27  O   UNL     1       1.113   2.682  21.394  0.00  0.00    +0.000 OA
ENDBRANCH  25  27
ENDBRANCH  24  25
ENDBRANCH   1  24
TORSDOF 6
ENDMDL
MODEL 4
REMARK VINA RESULT:      -7.1      2.926      4.404
REMARK  Name = 
REMARK  7 active torsions:
REMARK  status: ('A' for Active; 'I' for Inactive)
REMARK    1  A    between atoms: C_1  and  O_2
REMARK    2  A    between atoms: O_2  and  C_3
REMARK    3  A    between atoms: C_3  and  C_4
REMARK    4  A    between atoms: C_4  and  C_5
REMARK    5  A    between atoms: C_12  and  C_13
REMARK    6  A    between atoms: C_19  and  N_20
REMARK    7  A    between atoms: N_20  and  C_21
REMARK                            x       y       z     vdW  Elec       q    Type
REMARK                         _______ _______ _______ _____ _____    ______ ____
ROOT
ATOM      1  C   UNL     1       3.557   3.604  18.495  0.00  0.00    +0.000 A 
ATOM      2  C   UNL     1       3.927   2.433  17.843  0.00  0.00    +0.000 A 
ATOM      3  N   UNL     1       4.663   2.761  16.742  0.00  0.00    +0.000 N 
ATOM      4  C   UNL     1       4.732   4.117  16.626  0.00  0.00    +0.000 A 
ATOM      5  N   UNL     1       5.411   4.719  15.647  0.00  0.00    +0.000 NA
ATOM      6  C   UNL     1       5.323   6.053  15.734  0.00  0.00    +0.000 A 
ATOM      7  N   UNL     1       4.616   6.776  16.618  0.00  0.00    +0.000 NA
ATOM      8  C   UNL     1       3.902   6.125  17.589  0.00  0.00    +0.000 A 
ATOM      9  C   UNL     1       3.985   4.705  17.649  0.00  0.00    +0.000 A 
ATOM     10  H   UNL     1       5.123   2.120  16.118  0.00  0.00    +0.000 HD
ENDROOT
BRANCH   8  11
ATOM     11  C   UNL     1       3.036   6.982  18.431  0.00  0.00    +0.000 A 
ATOM     12  C   UNL     1       2.552   6.527  19.677  0.00  0.00    +0.000 A 
ATOM     13  C   UNL     1       1.725   7.299  20.495  0.00  0.00    +0.000 A 
ATOM     14  C   UNL     1       1.326   8.538  20.039  0.00  0.00    +0.000 A 
ATOM     15  C   UNL     1       1.744   9.024  18.797  0.00  0.00    +0.000 A 
ATOM     16  C   UNL     1       2.575   8.249  17.985  0.00  0.00    +0.000 A 
ATOM     17  C   UNL     1       1.105  10.363  18.526  0.00  0.00    +0.000 C 
ATOM     18  C   UNL     1       0.638  10.765  19.946  0.00  0.00    +0.000 C 
ATOM     19  C   UNL     1       0.354   9.465  20.697  0.00  0.00    +0.000 C 
BRANCH  17  20
ATOM     20  N   UNL     1       2.034  11.390  18.001  0.00  0.00    +0.000 N 
ATOM     21  H   UNL     1       2.970  11.005  17.839  0.00  0.00    +0.000 HD
BRANCH  20  22
ATOM     22  C   UNL     1       1.936  12.684  18.332  0.00  0.00    +0.000 C 
ATOM     23  N   UNL     1       1.869  13.793  18.653  0.00  0.00    +0.000 NA
ENDBRANCH  20  22
ENDBRANCH  17  20
ENDBRANCH   8  11
BRANCH   1  24
ATOM     24  C   UNL     1       2.880   3.645  19.840  0.00  0.00    +0.000 C 
BRANCH  24  25
ATOM     25  C   UNL     1       3.493   2.704  20.883  0.00  0.00    +0.000 C 
BRANCH  25  27
ATOM     26  C   UNL     1       1.268   2.767  21.656  0.00  0.00    +0.000 C 
ATOM     27  O   UNL     1       2.631   2.611  22.018  0.00  0.00    +0.000 OA
ENDBRANCH  25  27
ENDBRANCH  24  25
ENDBRANCH   1  24
TORSDOF 6
ENDMDL
MODEL 5
REMARK VINA RESULT:      -7.1      3.170      7.520
REMARK  Name = 
REMARK  7 active torsions:
REMARK  status: ('A' for Active; 'I' for Inactive)
REMARK    1  A    between atoms: C_1  and  O_2
REMARK    2  A    between atoms: O_2  and  C_3
REMARK    3  A    between atoms: C_3  and  C_4
REMARK    4  A    between atoms: C_4  and  C_5
REMARK    5  A    between atoms: C_12  and  C_13
REMARK    6  A    between atoms: C_19  and  N_20
REMARK    7  A    between atoms: N_20  and  C_21
REMARK                            x       y       z     vdW  Elec       q    Type
REMARK                         _______ _______ _______ _____ _____    ______ ____
ROOT
ATOM      1  C   UNL     1      -1.719  10.724  18.399  0.00  0.00    +0.000 A 
ATOM      2  C   UNL     1      -2.884  11.409  18.725  0.00  0.00    +0.000 A 
ATOM      3  N   UNL     1      -2.670  12.112  19.873  0.00  0.00    +0.000 N 
ATOM      4  C   UNL     1      -1.414  11.856  20.339  0.00  0.00    +0.000 A 
ATOM      5  N   UNL     1      -0.927  12.430  21.441  0.00  0.00    +0.000 NA
ATOM      6  C   UNL     1       0.319  12.014  21.704  0.00  0.00    +0.000 A 
ATOM      7  N   UNL     1       1.039  11.097  21.037  0.00  0.00    +0.000 NA
ATOM      8  C   UNL     1       0.496  10.502  19.930  0.00  0.00    +0.000 A 
ATOM      9  C   UNL     1      -0.796  10.924  19.503  0.00  0.00    +0.000 A 
ATOM     10  H   UNL     1      -3.310  12.753  20.311  0.00  0.00    +0.000 HD
ENDROOT
BRANCH   8  11
ATOM     11  C   UNL     1       1.290   9.401  19.338  0.00  0.00    +0.000 A 
ATOM     12  C   UNL     1       2.019   9.589  18.144  0.00  0.00    +0.000 A 
ATOM     13  C   UNL     1       2.771   8.574  17.549  0.00  0.00    +0.000 A 
ATOM     14  C   UNL     1       2.757   7.323  18.129  0.00  0.00    +0.000 A 
ATOM     15  C   UNL     1       2.023   7.070  19.291  0.00  0.00    +0.000 A 
ATOM     16  C   UNL     1       1.276   8.091  19.885  0.00  0.00    +0.000 A 
ATOM     17  C   UNL     1       2.132   5.611  19.662  0.00  0.00    +0.000 C 
ATOM     18  C   UNL     1       3.363   5.182  18.829  0.00  0.00    +0.000 C 
ATOM     19  C   UNL     1       3.388   6.079  17.592  0.00  0.00    +0.000 C 
BRANCH  17  20
ATOM     20  N   UNL     1       2.394   5.363  21.098  0.00  0.00    +0.000 N 
ATOM     21  H   UNL     1       3.107   6.000  21.468  0.00  0.00    +0.000 HD
BRANCH  20  22
ATOM     22  C   UNL     1       2.296   4.144  21.646  0.00  0.00    +0.000 C 
ATOM     23  N   UNL     1       2.177   3.102  22.131  0.00  0.00    +0.000 NA
ENDBRANCH  20  22
ENDBRANCH  17  20
ENDBRANCH   8  11
BRANCH   1  24
ATOM     24  C   UNL     1      -1.513   9.972  17.110  0.00  0.00    +0.000 C 
BRANCH  24  25
ATOM     25  C   UNL     1      -2.795   9.744  16.301  0.00  0.00    +0.000 C 
BRANCH  25  27
ATOM     26  C   UNL     1      -3.206  10.157  14.017  0.00  0.00    +0.000 C 
ATOM     27  O   UNL     1      -2.905  10.735  15.278  0.00  0.00    +0.000 OA
ENDBRANCH  25  27
ENDBRANCH  24  25
ENDBRANCH   1  24
TORSDOF 6
ENDMDL
MODEL 6
REMARK VINA RESULT:      -6.9      2.393      7.007
REMARK  Name = 
REMARK  7 active torsions:
REMARK  status: ('A' for Active; 'I' for Inactive)
REMARK    1  A    between atoms: C_1  and  O_2
REMARK    2  A    between atoms: O_2  and  C_3
REMARK    3  A    between atoms: C_3  and  C_4
REMARK    4  A    between atoms: C_4  and  C_5
REMARK    5  A    between atoms: C_12  and  C_13
REMARK    6  A    between atoms: C_19  and  N_20
REMARK    7  A    between atoms: N_20  and  C_21
REMARK                            x       y       z     vdW  Elec       q    Type
REMARK                         _______ _______ _______ _____ _____    ______ ____
ROOT
ATOM      1  C   UNL     1       1.598   7.105  20.664  0.00  0.00    +0.000 A 
ATOM      2  C   UNL     1       0.952   7.793  21.685  0.00  0.00    +0.000 A 
ATOM      3  N   UNL     1       0.618   9.035  21.232  0.00  0.00    +0.000 N 
ATOM      4  C   UNL     1       1.085   9.198  19.961  0.00  0.00    +0.000 A 
ATOM      5  N   UNL     1       0.881  10.316  19.261  0.00  0.00    +0.000 NA
ATOM      6  C   UNL     1       1.442  10.246  18.046  0.00  0.00    +0.000 A 
ATOM      7  N   UNL     1       2.182   9.247  17.537  0.00  0.00    +0.000 NA
ATOM      8  C   UNL     1       2.400   8.128  18.296  0.00  0.00    +0.000 A 
ATOM      9  C   UNL     1       1.784   8.052  19.578  0.00  0.00    +0.000 A 
ATOM     10  H   UNL     1       0.083   9.729  21.726  0.00  0.00    +0.000 HD
ENDROOT
BRANCH   8  11
ATOM     11  C   UNL     1       3.342   7.139  17.724  0.00  0.00    +0.000 A 
ATOM     12  C   UNL     1       4.533   7.552  17.088  0.00  0.00    +0.000 A 
ATOM     13  C   UNL     1       5.442   6.652  16.527  0.00  0.00    +0.000 A 
ATOM     14  C   UNL     1       5.135   5.308  16.554  0.00  0.00    +0.000 A 
ATOM     15  C   UNL     1       3.951   4.846  17.138  0.00  0.00    +0.000 A 
ATOM     16  C   UNL     1       3.048   5.751  17.701  0.00  0.00    +0.000 A 
ATOM     17  C   UNL     1       3.841   3.351  16.964  0.00  0.00    +0.000 C 
ATOM     18  C   UNL     1       5.302   2.983  16.611  0.00  0.00    +0.000 C 
ATOM     19  C   UNL     1       5.903   4.200  15.910  0.00  0.00    +0.000 C 
BRANCH  17  20
ATOM     20  N   UNL     1       3.426   2.623  18.184  0.00  0.00    +0.000 N 
ATOM     21  H   UNL     1       2.417   2.697  18.345  0.00  0.00    +0.000 HD
BRANCH  20  22
ATOM     22  C   UNL     1       4.224   2.500  19.254  0.00  0.00    +0.000 C 
ATOM     23  N   UNL     1       4.930   2.364  20.159  0.00  0.00    +0.000 NA
ENDBRANCH  20  22
ENDBRANCH  17  20
ENDBRANCH   8  11
BRANCH   1  24
ATOM     24  C   UNL     1       1.968   5.647  20.729  0.00  0.00    +0.000 C 
BRANCH  24  25
ATOM     25  C   UNL     1       0.813   4.689  20.414  0.00  0.00    +0.000 C 
BRANCH  25  27
ATOM     26  C   UNL     1       1.399   2.729  21.585  0.00  0.00    +0.000 C 
ATOM     27  O   UNL     1       1.305   3.352  20.313  0.00  0.00    +0.000 OA
ENDBRANCH  25  27
ENDBRANCH  24  25
ENDBRANCH   1  24
TORSDOF 6
ENDMDL
MODEL 7
REMARK VINA RESULT:      -6.9      2.733      4.183
REMARK  Name = 
REMARK  7 active torsions:
REMARK  status: ('A' for Active; 'I' for Inactive)
REMARK    1  A    between atoms: C_1  and  O_2
REMARK    2  A    between atoms: O_2  and  C_3
REMARK    3  A    between atoms: C_3  and  C_4
REMARK    4  A    between atoms: C_4  and  C_5
REMARK    5  A    between atoms: C_12  and  C_13
REMARK    6  A    between atoms: C_19  and  N_20
REMARK    7  A    between atoms: N_20  and  C_21
REMARK                            x       y       z     vdW  Elec       q    Type
REMARK                         _______ _______ _______ _____ _____    ______ ____
ROOT
ATOM      1  C   UNL     1       3.617   3.947  19.049  0.00  0.00    +0.000 A 
ATOM      2  C   UNL     1       4.043   2.727  18.536  0.00  0.00    +0.000 A 
ATOM      3  N   UNL     1       4.732   2.957  17.381  0.00  0.00    +0.000 N 
ATOM      4  C   UNL     1       4.714   4.290  17.095  0.00  0.00    +0.000 A 
ATOM      5  N   UNL     1       5.332   4.802  16.029  0.00  0.00    +0.000 NA
ATOM      6  C   UNL     1       5.163   6.129  15.953  0.00  0.00    +0.000 A 
ATOM      7  N   UNL     1       4.434   6.915  16.762  0.00  0.00    +0.000 NA
ATOM      8  C   UNL     1       3.784   6.351  17.827  0.00  0.00    +0.000 A 
ATOM      9  C   UNL     1       3.956   4.956  18.060  0.00  0.00    +0.000 A 
ATOM     10  H   UNL     1       5.216   2.271  16.827  0.00  0.00    +0.000 HD
ENDROOT
BRANCH   8  11
ATOM     11  C   UNL     1       2.887   7.254  18.583  0.00  0.00    +0.000 A 
ATOM     12  C   UNL     1       2.361   6.876  19.838  0.00  0.00    +0.000 A 
ATOM     13  C   UNL     1       1.503   7.694  20.576  0.00  0.00    +0.000 A 
ATOM     14  C   UNL     1       1.117   8.900  20.029  0.00  0.00    +0.000 A 
ATOM     15  C   UNL     1       1.576   9.308  18.774  0.00  0.00    +0.000 A 
ATOM     16  C   UNL     1       2.438   8.488  18.042  0.00  0.00    +0.000 A 
ATOM     17  C   UNL     1       0.943  10.625  18.397  0.00  0.00    +0.000 C 
ATOM     18  C   UNL     1       0.425  11.112  19.772  0.00  0.00    +0.000 C 
ATOM     19  C   UNL     1       0.120   9.860  20.593  0.00  0.00    +0.000 C 
BRANCH  17  20
ATOM     20  N   UNL     1       1.887  11.621  17.841  0.00  0.00    +0.000 N 
ATOM     21  H   UNL     1       2.575  11.185  17.219  0.00  0.00    +0.000 HD
BRANCH  20  22
ATOM     22  C   UNL     1       2.261  12.713  18.521  0.00  0.00    +0.000 C 
ATOM     23  N   UNL     1       2.547  13.670  19.104  0.00  0.00    +0.000 NA
ENDBRANCH  20  22
ENDBRANCH  17  20
ENDBRANCH   8  11
BRANCH   1  24
ATOM     24  C   UNL     1       2.970   4.117  20.398  0.00  0.00    +0.000 C 
BRANCH  24  25
ATOM     25  C   UNL     1       1.734   3.237  20.620  0.00  0.00    +0.000 C 
BRANCH  25  27
ATOM     26  C   UNL     1       0.466   2.334  18.851  0.00  0.00    +0.000 C 
ATOM     27  O   UNL     1       0.764   3.499  19.605  0.00  0.00    +0.000 OA
ENDBRANCH  25  27
ENDBRANCH  24  25
ENDBRANCH   1  24
TORSDOF 6
ENDMDL
MODEL 8
REMARK VINA RESULT:      -6.9      2.546      3.383
REMARK  Name = 
REMARK  7 active torsions:
REMARK  status: ('A' for Active; 'I' for Inactive)
REMARK    1  A    between atoms: C_1  and  O_2
REMARK    2  A    between atoms: O_2  and  C_3
REMARK    3  A    between atoms: C_3  and  C_4
REMARK    4  A    between atoms: C_4  and  C_5
REMARK    5  A    between atoms: C_12  and  C_13
REMARK    6  A    between atoms: C_19  and  N_20
REMARK    7  A    between atoms: N_20  and  C_21
REMARK                            x       y       z     vdW  Elec       q    Type
REMARK                         _______ _______ _______ _____ _____    ______ ____
ROOT
ATOM      1  C   UNL     1       5.604   5.865  17.439  0.00  0.00    +0.000 A 
ATOM      2  C   UNL     1       6.578   4.982  16.987  0.00  0.00    +0.000 A 
ATOM      3  N   UNL     1       5.983   3.791  16.690  0.00  0.00    +0.000 N 
ATOM      4  C   UNL     1       4.655   3.855  16.994  0.00  0.00    +0.000 A 
ATOM      5  N   UNL     1       3.823   2.834  16.784  0.00  0.00    +0.000 NA
ATOM      6  C   UNL     1       2.574   3.128  17.171  0.00  0.00    +0.000 A 
ATOM      7  N   UNL     1       2.139   4.254  17.761  0.00  0.00    +0.000 NA
ATOM      8  C   UNL     1       3.028   5.269  17.994  0.00  0.00    +0.000 A 
ATOM      9  C   UNL     1       4.371   5.104  17.549  0.00  0.00    +0.000 A 
ATOM     10  H   UNL     1       6.426   2.987  16.278  0.00  0.00    +0.000 HD
ENDROOT
BRANCH   8  11
ATOM     11  C   UNL     1       2.505   6.412  18.776  0.00  0.00    +0.000 A 
ATOM     12  C   UNL     1       2.199   6.277  20.148  0.00  0.00    +0.000 A 
ATOM     13  C   UNL     1       1.694   7.327  20.918  0.00  0.00    +0.000 A 
ATOM     14  C   UNL     1       1.440   8.531  20.295  0.00  0.00    +0.000 A 
ATOM     15  C   UNL     1       1.688   8.710  18.932  0.00  0.00    +0.000 A 
ATOM     16  C   UNL     1       2.198   7.658  18.168  0.00  0.00    +0.000 A 
ATOM     17  C   UNL     1       1.255  10.092  18.506  0.00  0.00    +0.000 C 
ATOM     18  C   UNL     1       1.149  10.807  19.875  0.00  0.00    +0.000 C 
ATOM     19  C   UNL     1       0.792   9.734  20.902  0.00  0.00    +0.000 C 
BRANCH  17  20
ATOM     20  N   UNL     1       2.231  10.802  17.649  0.00  0.00    +0.000 N 
ATOM     21  H   UNL     1       2.929  10.162  17.258  0.00  0.00    +0.000 HD
BRANCH  20  22
ATOM     22  C   UNL     1       2.603  12.068  17.883  0.00  0.00    +0.000 C 
ATOM     23  N   UNL     1       2.958  13.147  18.098  0.00  0.00    +0.000 NA
ENDBRANCH  20  22
ENDBRANCH  17  20
ENDBRANCH   8  11
BRANCH   1  24
ATOM     24  C   UNL     1       5.846   7.327  17.705  0.00  0.00    +0.000 C 
BRANCH  24  25
ATOM     25  C   UNL     1       7.323   7.737  17.677  0.00  0.00    +0.000 C 
BRANCH  25  27
ATOM     26  C   UNL     1       8.579   9.622  18.329  0.00  0.00    +0.000 C 
ATOM     27  O   UNL     1       7.431   9.160  17.634  0.00  0.00    +0.000 OA
ENDBRANCH  25  27
ENDBRANCH  24  25
ENDBRANCH   1  24
TORSDOF 6
ENDMDL
MODEL 9
REMARK VINA RESULT:      -6.8      2.911      6.960
REMARK  Name = 
REMARK  7 active torsions:
REMARK  status: ('A' for Active; 'I' for Inactive)
REMARK    1  A    between atoms: C_1  and  O_2
REMARK    2  A    between atoms: O_2  and  C_3
REMARK    3  A    between atoms: C_3  and  C_4
REMARK    4  A    between atoms: C_4  and  C_5
REMARK    5  A    between atoms: C_12  and  C_13
REMARK    6  A    between atoms: C_19  and  N_20
REMARK    7  A    between atoms: N_20  and  C_21
REMARK                            x       y       z     vdW  Elec       q    Type
REMARK                         _______ _______ _______ _____ _____    ______ ____
ROOT
ATOM      1  C   UNL     1       1.600   6.912  20.697  0.00  0.00    +0.000 A 
ATOM      2  C   UNL     1       0.925   7.642  21.669  0.00  0.00    +0.000 A 
ATOM      3  N   UNL     1       0.595   8.858  21.149  0.00  0.00    +0.000 N 
ATOM      4  C   UNL     1       1.090   8.965  19.883  0.00  0.00    +0.000 A 
ATOM      5  N   UNL     1       0.896  10.047  19.126  0.00  0.00    +0.000 NA
ATOM      6  C   UNL     1       1.486   9.923  17.930  0.00  0.00    +0.000 A 
ATOM      7  N   UNL     1       2.245   8.907  17.486  0.00  0.00    +0.000 NA
ATOM      8  C   UNL     1       2.451   7.827  18.302  0.00  0.00    +0.000 A 
ATOM      9  C   UNL     1       1.806   7.807  19.571  0.00  0.00    +0.000 A 
ATOM     10  H   UNL     1       0.043   9.571  21.597  0.00  0.00    +0.000 HD
ENDROOT
BRANCH   8  11
ATOM     11  C   UNL     1       3.414   6.819  17.801  0.00  0.00    +0.000 A 
ATOM     12  C   UNL     1       2.977   5.554  17.354  0.00  0.00    +0.000 A 
ATOM     13  C   UNL     1       3.853   4.573  16.884  0.00  0.00    +0.000 A 
ATOM     14  C   UNL     1       5.206   4.838  16.907  0.00  0.00    +0.000 A 
ATOM     15  C   UNL     1       5.698   6.060  17.375  0.00  0.00    +0.000 A 
ATOM     16  C   UNL     1       4.816   7.040  17.839  0.00  0.00    +0.000 A 
ATOM     17  C   UNL     1       7.207   6.051  17.352  0.00  0.00    +0.000 C 
ATOM     18  C   UNL     1       7.484   4.857  16.408  0.00  0.00    +0.000 C 
ATOM     19  C   UNL     1       6.311   3.891  16.567  0.00  0.00    +0.000 C 
BRANCH  17  20
ATOM     20  N   UNL     1       7.818   7.278  16.793  0.00  0.00    +0.000 N 
ATOM     21  H   UNL     1       8.474   7.063  16.036  0.00  0.00    +0.000 HD
BRANCH  20  22
ATOM     22  C   UNL     1       8.056   8.366  17.539  0.00  0.00    +0.000 C 
ATOM     23  N   UNL     1       8.297   9.307  18.166  0.00  0.00    +0.000 NA
ENDBRANCH  20  22
ENDBRANCH  17  20
ENDBRANCH   8  11
BRANCH   1  24
ATOM     24  C   UNL     1       1.978   5.461  20.840  0.00  0.00    +0.000 C 
BRANCH  24  25
ATOM     25  C   UNL     1       0.855   4.479  20.484  0.00  0.00    +0.000 C 
BRANCH  25  27
ATOM     26  C   UNL     1       1.105   2.513  19.208  0.00  0.00    +0.000 C 
ATOM     27  O   UNL     1       1.082   3.932  19.185  0.00  0.00    +0.000 OA
ENDBRANCH  25  27
ENDBRANCH  24  25
ENDBRANCH   1  24
TORSDOF 6
ENDMDL
