MODEL 1
REMARK VINA RESULT:      -6.1      0.000      0.000
REMARK  Name = 
REMARK  7 active torsions:
REMARK  status: ('A' for Active; 'I' for Inactive)
REMARK    1  A    between atoms: C_1  and  C_2
REMARK    2  A    between atoms: C_2  and  C_3
REMARK    3  A    between atoms: C_3  and  C_4
REMARK    4  A    between atoms: C_3  and  C_5
REMARK    5  A    between atoms: C_5  and  N_6
REMARK    6  A    between atoms: C_5  and  C_7
REMARK    7  A    between atoms: C_12  and  O_13
REMARK                            x       y       z     vdW  Elec       q    Type
REMARK                         _______ _______ _______ _____ _____    ______ ____
ROOT
ATOM      1  C   UNL     1       4.549   3.411  18.473  0.00  0.00    +0.000 C 
ATOM      2  O   UNL     1       4.852   3.328  19.668  0.00  0.00    +0.000 OA
ATOM      3  N   UNL     1       5.287   4.190  17.595  0.00  0.00    +0.000 N 
ATOM      4  C   UNL     1       6.566   4.772  17.969  0.00  0.00    +0.000 C 
ATOM      5  C   UNL     1       6.696   5.990  17.074  0.00  0.00    +0.000 C 
ATOM      6  C   UNL     1       5.962   5.597  15.791  0.00  0.00    +0.000 C 
ATOM      7  C   UNL     1       5.022   4.446  16.185  0.00  0.00    +0.000 C 
ENDROOT
BRANCH   6   8
ATOM      8  O   UNL     1       5.238   6.715  15.285  0.00  0.00    +0.000 OA
ATOM      9  H   UNL     1       5.821   7.203  14.677  0.00  0.00    +0.000 HD
ENDBRANCH   6   8
BRANCH   1  10
ATOM     10  C   UNL     1       3.435   2.510  17.850  0.00  0.00    +0.000 C 
BRANCH  10  11
ATOM     11  N   UNL     1       3.711   1.119  18.290  0.00  0.00    +0.000 NA
ATOM     12  H   UNL     1       4.175   0.639  17.517  0.00  0.00    +0.000 HD
ATOM     13  H   UNL     1       2.822   0.629  18.389  0.00  0.00    +0.000 HD
ENDBRANCH  10  11
BRANCH  10  14
ATOM     14  C   UNL     1       1.951   2.898  18.138  0.00  0.00    +0.000 C 
ATOM     15  C   UNL     1       1.723   4.385  17.821  0.00  0.00    +0.000 C 
BRANCH  14  17
ATOM     16  C   UNL     1       1.069   3.767  20.392  0.00  0.00    +0.000 C 
ATOM     17  C   UNL     1       1.408   2.538  19.541  0.00  0.00    +0.000 C 
ENDBRANCH  14  17
ENDBRANCH  10  14
ENDBRANCH   1  10
TORSDOF 5
ENDMDL
MODEL 2
REMARK VINA RESULT:      -5.8      1.169      1.223
REMARK  Name = 
REMARK  7 active torsions:
REMARK  status: ('A' for Active; 'I' for Inactive)
REMARK    1  A    between atoms: C_1  and  C_2
REMARK    2  A    between atoms: C_2  and  C_3
REMARK    3  A    between atoms: C_3  and  C_4
REMARK    4  A    between atoms: C_3  and  C_5
REMARK    5  A    between atoms: C_5  and  N_6
REMARK    6  A    between atoms: C_5  and  C_7
REMARK    7  A    between atoms: C_12  and  O_13
REMARK                            x       y       z     vdW  Elec       q    Type
REMARK                         _______ _______ _______ _____ _____    ______ ____
ROOT
ATOM      1  C   UNL     1       4.347   4.095  18.841  0.00  0.00    +0.000 C 
ATOM      2  O   UNL     1       3.869   4.471  19.915  0.00  0.00    +0.000 OA
ATOM      3  N   UNL     1       5.573   4.563  18.395  0.00  0.00    +0.000 N 
ATOM      4  C   UNL     1       6.458   5.341  19.247  0.00  0.00    +0.000 C 
ATOM      5  C   UNL     1       7.283   6.163  18.275  0.00  0.00    +0.000 C 
ATOM      6  C   UNL     1       7.396   5.279  17.032  0.00  0.00    +0.000 C 
ATOM      7  C   UNL     1       6.237   4.275  17.129  0.00  0.00    +0.000 C 
ENDROOT
BRANCH   6   8
ATOM      8  O   UNL     1       7.300   6.079  15.857  0.00  0.00    +0.000 OA
ATOM      9  H   UNL     1       7.648   6.964  16.065  0.00  0.00    +0.000 HD
ENDBRANCH   6   8
BRANCH   1  10
ATOM     10  C   UNL     1       3.689   2.944  18.013  0.00  0.00    +0.000 C 
BRANCH  10  11
ATOM     11  N   UNL     1       4.089   1.669  18.658  0.00  0.00    +0.000 NA
ATOM     12  H   UNL     1       4.891   1.302  18.140  0.00  0.00    +0.000 HD
ATOM     13  H   UNL     1       3.354   0.981  18.498  0.00  0.00    +0.000 HD
ENDBRANCH  10  11
BRANCH  10  14
ATOM     14  C   UNL     1       2.143   2.999  17.808  0.00  0.00    +0.000 C 
ATOM     15  C   UNL     1       1.682   4.458  17.657  0.00  0.00    +0.000 C 
BRANCH  14  17
ATOM     16  C   UNL     1       0.782   3.154  19.983  0.00  0.00    +0.000 C 
ATOM     17  C   UNL     1       1.284   2.250  18.853  0.00  0.00    +0.000 C 
ENDBRANCH  14  17
ENDBRANCH  10  14
ENDBRANCH   1  10
TORSDOF 5
ENDMDL
MODEL 3
REMARK VINA RESULT:      -5.8      2.051      2.788
REMARK  Name = 
REMARK  7 active torsions:
REMARK  status: ('A' for Active; 'I' for Inactive)
REMARK    1  A    between atoms: C_1  and  C_2
REMARK    2  A    between atoms: C_2  and  C_3
REMARK    3  A    between atoms: C_3  and  C_4
REMARK    4  A    between atoms: C_3  and  C_5
REMARK    5  A    between atoms: C_5  and  N_6
REMARK    6  A    between atoms: C_5  and  C_7
REMARK    7  A    between atoms: C_12  and  O_13
REMARK                            x       y       z     vdW  Elec       q    Type
REMARK                         _______ _______ _______ _____ _____    ______ ____
ROOT
ATOM      1  C   UNL     1       4.239   3.906  18.013  0.00  0.00    +0.000 C 
ATOM      2  O   UNL     1       4.102   3.065  17.119  0.00  0.00    +0.000 OA
ATOM      3  N   UNL     1       5.441   4.573  18.197  0.00  0.00    +0.000 N 
ATOM      4  C   UNL     1       6.526   4.487  17.233  0.00  0.00    +0.000 C 
ATOM      5  C   UNL     1       7.774   4.757  18.052  0.00  0.00    +0.000 C 
ATOM      6  C   UNL     1       7.306   5.715  19.150  0.00  0.00    +0.000 C 
ATOM      7  C   UNL     1       5.783   5.532  19.240  0.00  0.00    +0.000 C 
ENDROOT
BRANCH   6   8
ATOM      8  O   UNL     1       7.947   5.391  20.381  0.00  0.00    +0.000 OA
ATOM      9  H   UNL     1       7.788   4.449  20.566  0.00  0.00    +0.000 HD
ENDBRANCH   6   8
BRANCH   1  10
ATOM     10  C   UNL     1       3.025   4.394  18.867  0.00  0.00    +0.000 C 
BRANCH  10  11
ATOM     11  N   UNL     1       2.232   5.306  18.004  0.00  0.00    +0.000 NA
ATOM     12  H   UNL     1       2.032   4.808  17.134  0.00  0.00    +0.000 HD
ATOM     13  H   UNL     1       2.831   6.079  17.715  0.00  0.00    +0.000 HD
ENDBRANCH  10  11
BRANCH  10  14
ATOM     14  C   UNL     1       2.111   3.303  19.506  0.00  0.00    +0.000 C 
ATOM     15  C   UNL     1       1.039   2.855  18.499  0.00  0.00    +0.000 C 
BRANCH  14  17
ATOM     16  C   UNL     1       1.669   2.554  21.926  0.00  0.00    +0.000 C 
ATOM     17  C   UNL     1       1.478   3.652  20.874  0.00  0.00    +0.000 C 
ENDBRANCH  14  17
ENDBRANCH  10  14
ENDBRANCH   1  10
TORSDOF 5
ENDMDL
MODEL 4
REMARK VINA RESULT:      -5.8      2.061      5.254
REMARK  Name = 
REMARK  7 active torsions:
REMARK  status: ('A' for Active; 'I' for Inactive)
REMARK    1  A    between atoms: C_1  and  C_2
REMARK    2  A    between atoms: C_2  and  C_3
REMARK    3  A    between atoms: C_3  and  C_4
REMARK    4  A    between atoms: C_3  and  C_5
REMARK    5  A    between atoms: C_5  and  N_6
REMARK    6  A    between atoms: C_5  and  C_7
REMARK    7  A    between atoms: C_12  and  O_13
REMARK                            x       y       z     vdW  Elec       q    Type
REMARK                         _______ _______ _______ _____ _____    ______ ____
ROOT
ATOM      1  C   UNL     1       4.304   3.959  17.719  0.00  0.00    +0.000 C 
ATOM      2  O   UNL     1       4.492   3.691  16.529  0.00  0.00    +0.000 OA
ATOM      3  N   UNL     1       3.285   3.356  18.441  0.00  0.00    +0.000 N 
ATOM      4  C   UNL     1       2.527   2.232  17.915  0.00  0.00    +0.000 C 
ATOM      5  C   UNL     1       1.195   2.311  18.636  0.00  0.00    +0.000 C 
ATOM      6  C   UNL     1       1.538   2.906  20.003  0.00  0.00    +0.000 C 
ATOM      7  C   UNL     1       2.890   3.614  19.821  0.00  0.00    +0.000 C 
ENDROOT
BRANCH   6   8
ATOM      8  O   UNL     1       0.519   3.817  20.406  0.00  0.00    +0.000 OA
ATOM      9  H   UNL     1      -0.332   3.344  20.389  0.00  0.00    +0.000 HD
ENDBRANCH   6   8
BRANCH   1  10
ATOM     10  C   UNL     1       5.305   4.850  18.523  0.00  0.00    +0.000 C 
BRANCH  10  11
ATOM     11  N   UNL     1       6.590   4.109  18.579  0.00  0.00    +0.000 NA
ATOM     12  H   UNL     1       7.025   4.314  19.481  0.00  0.00    +0.000 HD
ATOM     13  H   UNL     1       7.228   4.517  17.896  0.00  0.00    +0.000 HD
ENDBRANCH  10  11
BRANCH  10  14
ATOM     14  C   UNL     1       5.530   6.311  18.022  0.00  0.00    +0.000 C 
ATOM     15  C   UNL     1       4.239   6.857  17.391  0.00  0.00    +0.000 C 
BRANCH  14  17
ATOM     16  C   UNL     1       7.649   7.687  17.549  0.00  0.00    +0.000 C 
ATOM     17  C   UNL     1       6.744   6.538  17.092  0.00  0.00    +0.000 C 
ENDBRANCH  14  17
ENDBRANCH  10  14
ENDBRANCH   1  10
TORSDOF 5
ENDMDL
MODEL 5
REMARK VINA RESULT:      -5.8      0.775      1.055
REMARK  Name = 
REMARK  7 active torsions:
REMARK  status: ('A' for Active; 'I' for Inactive)
REMARK    1  A    between atoms: C_1  and  C_2
REMARK    2  A    between atoms: C_2  and  C_3
REMARK    3  A    between atoms: C_3  and  C_4
REMARK    4  A    between atoms: C_3  and  C_5
REMARK    5  A    between atoms: C_5  and  N_6
REMARK    6  A    between atoms: C_5  and  C_7
REMARK    7  A    between atoms: C_12  and  O_13
REMARK                            x       y       z     vdW  Elec       q    Type
REMARK                         _______ _______ _______ _____ _____    ______ ____
ROOT
ATOM      1  C   UNL     1       4.830   3.593  18.607  0.00  0.00    +0.000 C 
ATOM      2  O   UNL     1       5.373   3.477  19.710  0.00  0.00    +0.000 OA
ATOM      3  N   UNL     1       5.449   4.269  17.567  0.00  0.00    +0.000 N 
ATOM      4  C   UNL     1       6.840   4.687  17.638  0.00  0.00    +0.000 C 
ATOM      5  C   UNL     1       6.920   5.875  16.700  0.00  0.00    +0.000 C 
ATOM      6  C   UNL     1       5.882   5.575  15.617  0.00  0.00    +0.000 C 
ATOM      7  C   UNL     1       4.917   4.553  16.240  0.00  0.00    +0.000 C 
ENDROOT
BRANCH   6   8
ATOM      8  O   UNL     1       5.208   6.774  15.245  0.00  0.00    +0.000 OA
ATOM      9  H   UNL     1       4.276   6.553  15.066  0.00  0.00    +0.000 HD
ENDBRANCH   6   8
BRANCH   1  10
ATOM     10  C   UNL     1       3.505   2.837  18.266  0.00  0.00    +0.000 C 
BRANCH  10  11
ATOM     11  N   UNL     1       3.817   1.387  18.298  0.00  0.00    +0.000 NA
ATOM     12  H   UNL     1       3.797   1.090  19.276  0.00  0.00    +0.000 HD
ATOM     13  H   UNL     1       4.790   1.259  18.019  0.00  0.00    +0.000 HD
ENDBRANCH  10  11
BRANCH  10  14
ATOM     14  C   UNL     1       2.252   3.154  19.140  0.00  0.00    +0.000 C 
ATOM     15  C   UNL     1       1.059   2.298  18.683  0.00  0.00    +0.000 C 
BRANCH  14  17
ATOM     16  C   UNL     1       1.957   5.185  20.688  0.00  0.00    +0.000 C 
ATOM     17  C   UNL     1       1.855   4.644  19.258  0.00  0.00    +0.000 C 
ENDBRANCH  14  17
ENDBRANCH  10  14
ENDBRANCH   1  10
TORSDOF 5
ENDMDL
MODEL 6
REMARK VINA RESULT:      -5.7      2.257      2.961
REMARK  Name = 
REMARK  7 active torsions:
REMARK  status: ('A' for Active; 'I' for Inactive)
REMARK    1  A    between atoms: C_1  and  C_2
REMARK    2  A    between atoms: C_2  and  C_3
REMARK    3  A    between atoms: C_3  and  C_4
REMARK    4  A    between atoms: C_3  and  C_5
REMARK    5  A    between atoms: C_5  and  N_6
REMARK    6  A    between atoms: C_5  and  C_7
REMARK    7  A    between atoms: C_12  and  O_13
REMARK                            x       y       z     vdW  Elec       q    Type
REMARK                         _______ _______ _______ _____ _____    ______ ____
ROOT
ATOM      1  C   UNL     1       3.416   5.193  18.585  0.00  0.00    +0.000 C 
ATOM      2  O   UNL     1       2.476   5.414  17.816  0.00  0.00    +0.000 OA
ATOM      3  N   UNL     1       4.730   5.411  18.200  0.00  0.00    +0.000 N 
ATOM      4  C   UNL     1       5.067   6.106  16.968  0.00  0.00    +0.000 C 
ATOM      5  C   UNL     1       6.441   5.576  16.606  0.00  0.00    +0.000 C 
ATOM      6  C   UNL     1       7.099   5.276  17.954  0.00  0.00    +0.000 C 
ATOM      7  C   UNL     1       5.944   5.134  18.958  0.00  0.00    +0.000 C 
ENDROOT
BRANCH   6   8
ATOM      8  O   UNL     1       7.866   4.078  17.864  0.00  0.00    +0.000 OA
ATOM      9  H   UNL     1       7.276   3.364  17.563  0.00  0.00    +0.000 HD
ENDBRANCH   6   8
BRANCH   1  10
ATOM     10  C   UNL     1       3.173   4.829  20.086  0.00  0.00    +0.000 C 
BRANCH  10  11
ATOM     11  N   UNL     1       2.258   5.860  20.635  0.00  0.00    +0.000 NA
ATOM     12  H   UNL     1       1.329   5.684  20.246  0.00  0.00    +0.000 HD
ATOM     13  H   UNL     1       2.522   6.765  20.249  0.00  0.00    +0.000 HD
ENDBRANCH  10  11
BRANCH  10  14
ATOM     14  C   UNL     1       2.645   3.394  20.401  0.00  0.00    +0.000 C 
ATOM     15  C   UNL     1       3.449   2.349  19.611  0.00  0.00    +0.000 C 
BRANCH  14  17
ATOM     16  C   UNL     1       0.756   2.495  18.906  0.00  0.00    +0.000 C 
ATOM     17  C   UNL     1       1.124   3.171  20.232  0.00  0.00    +0.000 C 
ENDBRANCH  14  17
ENDBRANCH  10  14
ENDBRANCH   1  10
TORSDOF 5
ENDMDL
MODEL 7
REMARK VINA RESULT:      -5.7      2.297      2.809
REMARK  Name = 
REMARK  7 active torsions:
REMARK  status: ('A' for Active; 'I' for Inactive)
REMARK    1  A    between atoms: C_1  and  C_2
REMARK    2  A    between atoms: C_2  and  C_3
REMARK    3  A    between atoms: C_3  and  C_4
REMARK    4  A    between atoms: C_3  and  C_5
REMARK    5  A    between atoms: C_5  and  N_6
REMARK    6  A    between atoms: C_5  and  C_7
REMARK    7  A    between atoms: C_12  and  O_13
REMARK                            x       y       z     vdW  Elec       q    Type
REMARK                         _______ _______ _______ _____ _____    ______ ____
ROOT
ATOM      1  C   UNL     1       3.351   5.995  18.191  0.00  0.00    +0.000 C 
ATOM      2  O   UNL     1       2.706   7.008  17.904  0.00  0.00    +0.000 OA
ATOM      3  N   UNL     1       4.463   5.617  17.455  0.00  0.00    +0.000 N 
ATOM      4  C   UNL     1       5.059   6.488  16.455  0.00  0.00    +0.000 C 
ATOM      5  C   UNL     1       5.744   5.537  15.493  0.00  0.00    +0.000 C 
ATOM      6  C   UNL     1       6.172   4.356  16.367  0.00  0.00    +0.000 C 
ATOM      7  C   UNL     1       5.282   4.422  17.618  0.00  0.00    +0.000 C 
ENDROOT
BRANCH   6   8
ATOM      8  O   UNL     1       5.988   3.135  15.656  0.00  0.00    +0.000 OA
ATOM      9  H   UNL     1       5.315   3.283  14.969  0.00  0.00    +0.000 HD
ENDBRANCH   6   8
BRANCH   1  10
ATOM     10  C   UNL     1       3.061   5.186  19.496  0.00  0.00    +0.000 C 
BRANCH  10  11
ATOM     11  N   UNL     1       2.524   6.150  20.488  0.00  0.00    +0.000 NA
ATOM     12  H   UNL     1       3.239   6.282  21.207  0.00  0.00    +0.000 HD
ATOM     13  H   UNL     1       1.752   5.706  20.985  0.00  0.00    +0.000 HD
ENDBRANCH  10  11
BRANCH  10  14
ATOM     14  C   UNL     1       2.132   3.938  19.377  0.00  0.00    +0.000 C 
ATOM     15  C   UNL     1       1.479   3.896  17.985  0.00  0.00    +0.000 C 
BRANCH  14  17
ATOM     16  C   UNL     1       1.475   2.717  21.542  0.00  0.00    +0.000 C 
ATOM     17  C   UNL     1       1.076   3.759  20.492  0.00  0.00    +0.000 C 
ENDBRANCH  14  17
ENDBRANCH  10  14
ENDBRANCH   1  10
TORSDOF 5
ENDMDL
MODEL 8
REMARK VINA RESULT:      -5.7      2.434      2.961
REMARK  Name = 
REMARK  7 active torsions:
REMARK  status: ('A' for Active; 'I' for Inactive)
REMARK    1  A    between atoms: C_1  and  C_2
REMARK    2  A    between atoms: C_2  and  C_3
REMARK    3  A    between atoms: C_3  and  C_4
REMARK    4  A    between atoms: C_3  and  C_5
REMARK    5  A    between atoms: C_5  and  N_6
REMARK    6  A    between atoms: C_5  and  C_7
REMARK    7  A    between atoms: C_12  and  O_13
REMARK                            x       y       z     vdW  Elec       q    Type
REMARK                         _______ _______ _______ _____ _____    ______ ____
ROOT
ATOM      1  C   UNL     1       3.917   5.803  18.461  0.00  0.00    +0.000 C 
ATOM      2  O   UNL     1       3.125   6.417  17.738  0.00  0.00    +0.000 OA
ATOM      3  N   UNL     1       5.284   5.852  18.235  0.00  0.00    +0.000 N 
ATOM      4  C   UNL     1       5.877   6.783  17.290  0.00  0.00    +0.000 C 
ATOM      5  C   UNL     1       7.170   6.112  16.867  0.00  0.00    +0.000 C 
ATOM      6  C   UNL     1       7.605   5.318  18.100  0.00  0.00    +0.000 C 
ATOM      7  C   UNL     1       6.336   5.135  18.946  0.00  0.00    +0.000 C 
ENDROOT
BRANCH   6   8
ATOM      8  O   UNL     1       8.156   4.065  17.701  0.00  0.00    +0.000 OA
ATOM      9  H   UNL     1       9.121   4.168  17.633  0.00  0.00    +0.000 HD
ENDBRANCH   6   8
BRANCH   1  10
ATOM     10  C   UNL     1       3.443   5.087  19.767  0.00  0.00    +0.000 C 
BRANCH  10  11
ATOM     11  N   UNL     1       2.533   6.029  20.466  0.00  0.00    +0.000 NA
ATOM     12  H   UNL     1       1.811   6.309  19.799  0.00  0.00    +0.000 HD
ATOM     13  H   UNL     1       3.043   6.890  20.656  0.00  0.00    +0.000 HD
ENDBRANCH  10  11
BRANCH  10  14
ATOM     14  C   UNL     1       2.779   3.683  19.617  0.00  0.00    +0.000 C 
ATOM     15  C   UNL     1       1.345   3.832  19.082  0.00  0.00    +0.000 C 
BRANCH  14  17
ATOM     16  C   UNL     1       1.469   2.682  21.589  0.00  0.00    +0.000 C 
ATOM     17  C   UNL     1       2.816   2.769  20.864  0.00  0.00    +0.000 C 
ENDBRANCH  14  17
ENDBRANCH  10  14
ENDBRANCH   1  10
TORSDOF 5
ENDMDL
MODEL 9
REMARK VINA RESULT:      -5.7      1.567      2.073
REMARK  Name = 
REMARK  7 active torsions:
REMARK  status: ('A' for Active; 'I' for Inactive)
REMARK    1  A    between atoms: C_1  and  C_2
REMARK    2  A    between atoms: C_2  and  C_3
REMARK    3  A    between atoms: C_3  and  C_4
REMARK    4  A    between atoms: C_3  and  C_5
REMARK    5  A    between atoms: C_5  and  N_6
REMARK    6  A    between atoms: C_5  and  C_7
REMARK    7  A    between atoms: C_12  and  O_13
REMARK                            x       y       z     vdW  Elec       q    Type
REMARK                         _______ _______ _______ _____ _____    ______ ____
ROOT
ATOM      1  C   UNL     1       5.305   4.482  18.839  0.00  0.00    +0.000 C 
ATOM      2  O   UNL     1       5.771   5.261  19.677  0.00  0.00    +0.000 OA
ATOM      3  N   UNL     1       5.868   4.360  17.578  0.00  0.00    +0.000 N 
ATOM      4  C   UNL     1       7.146   4.966  17.241  0.00  0.00    +0.000 C 
ATOM      5  C   UNL     1       7.077   5.170  15.740  0.00  0.00    +0.000 C 
ATOM      6  C   UNL     1       6.202   4.020  15.240  0.00  0.00    +0.000 C 
ATOM      7  C   UNL     1       5.399   3.547  16.462  0.00  0.00    +0.000 C 
ENDROOT
BRANCH   6   8
ATOM      8  O   UNL     1       5.348   4.478  14.196  0.00  0.00    +0.000 OA
ATOM      9  H   UNL     1       5.262   5.444  14.278  0.00  0.00    +0.000 HD
ENDBRANCH   6   8
BRANCH   1  10
ATOM     10  C   UNL     1       4.175   3.467  19.208  0.00  0.00    +0.000 C 
BRANCH  10  11
ATOM     11  N   UNL     1       4.833   2.320  19.883  0.00  0.00    +0.000 NA
ATOM     12  H   UNL     1       5.452   2.701  20.602  0.00  0.00    +0.000 HD
ATOM     13  H   UNL     1       5.467   1.875  19.220  0.00  0.00    +0.000 HD
ENDBRANCH  10  11
BRANCH  10  14
ATOM     14  C   UNL     1       2.980   3.999  20.059  0.00  0.00    +0.000 C 
ATOM     15  C   UNL     1       2.623   2.986  21.159  0.00  0.00    +0.000 C 
BRANCH  14  17
ATOM     16  C   UNL     1       1.815   4.154  17.773  0.00  0.00    +0.000 C 
ATOM     17  C   UNL     1       1.721   4.438  19.276  0.00  0.00    +0.000 C 
ENDBRANCH  14  17
ENDBRANCH  10  14
ENDBRANCH   1  10
TORSDOF 5
ENDMDL
