MODEL 1
REMARK VINA RESULT:      -9.2      0.000      0.000
REMARK  Name = 
REMARK  7 active torsions:
REMARK  status: ('A' for Active; 'I' for Inactive)
REMARK    1  A    between atoms: C_1  and  C_2
REMARK    2  A    between atoms: C_2  and  C_4
REMARK    3  A    between atoms: C_6  and  C_7
REMARK    4  A    between atoms: N_9  and  C_10
REMARK    5  A    between atoms: C_10  and  C_11
REMARK    6  A    between atoms: C_11  and  C_12
REMARK    7  A    between atoms: N_26  and  C_27
REMARK                            x       y       z     vdW  Elec       q    Type
REMARK                         _______ _______ _______ _____ _____    ______ ____
ROOT
ATOM      1  C   UNL     1       2.255   4.763  20.198  0.00  0.00    +0.000 A 
ATOM      2  N   UNL     1       1.709   5.942  20.633  0.00  0.00    +0.000 NA
ATOM      3  C   UNL     1       2.004   7.091  19.978  0.00  0.00    +0.000 A 
ATOM      4  C   UNL     1       2.821   7.161  18.863  0.00  0.00    +0.000 A 
ATOM      5  C   UNL     1       3.368   5.961  18.387  0.00  0.00    +0.000 A 
ATOM      6  C   UNL     1       4.215   5.676  17.273  0.00  0.00    +0.000 A 
ATOM      7  C   UNL     1       4.799   6.478  16.265  0.00  0.00    +0.000 A 
ATOM      8  C   UNL     1       5.593   5.886  15.280  0.00  0.00    +0.000 A 
ATOM      9  C   UNL     1       5.815   4.514  15.286  0.00  0.00    +0.000 A 
ATOM     10  C   UNL     1       5.252   3.705  16.277  0.00  0.00    +0.000 A 
ATOM     11  C   UNL     1       4.447   4.307  17.264  0.00  0.00    +0.000 A 
ATOM     12  N   UNL     1       3.760   3.769  18.342  0.00  0.00    +0.000 N 
ATOM     13  C   UNL     1       3.754   2.349  18.630  0.00  0.00    +0.000 C 
ATOM     14  C   UNL     1       3.089   4.760  19.058  0.00  0.00    +0.000 A 
ENDROOT
BRANCH   3  15
ATOM     15  C   UNL     1       1.405   8.367  20.500  0.00  0.00    +0.000 C 
ATOM     16  O   UNL     1       1.221   8.522  21.705  0.00  0.00    +0.000 OA
ATOM     17  N   UNL     1       1.080   9.329  19.563  0.00  0.00    +0.000 N 
ATOM     18  H   UNL     1       1.228   9.107  18.585  0.00  0.00    +0.000 HD
BRANCH  17  19
ATOM     19  C   UNL     1       0.471  10.583  19.983  0.00  0.00    +0.000 C 
BRANCH  19  20
ATOM     20  C   UNL     1       0.021  11.467  18.819  0.00  0.00    +0.000 C 
BRANCH  20  21
ATOM     21  C   UNL     1      -1.387  11.145  18.373  0.00  0.00    +0.000 A 
ATOM     22  C   UNL     1      -1.624  10.120  17.446  0.00  0.00    +0.000 A 
ATOM     23  C   UNL     1      -2.925   9.835  17.017  0.00  0.00    +0.000 A 
ATOM     24  C   UNL     1      -4.000  10.573  17.509  0.00  0.00    +0.000 A 
ATOM     25  C   UNL     1      -3.775  11.596  18.426  0.00  0.00    +0.000 A 
ATOM     26  C   UNL     1      -2.478  11.884  18.855  0.00  0.00    +0.000 A 
ENDBRANCH  20  21
ENDBRANCH  19  20
ENDBRANCH  17  19
ENDBRANCH   3  15
BRANCH   1  28
ATOM     27  C   UNL     1       0.837   2.659  20.492  0.00  0.00    +0.000 C 
ATOM     28  C   UNL     1       1.908   3.574  21.024  0.00  0.00    +0.000 C 
ATOM     29  O   UNL     1       2.434   3.352  22.111  0.00  0.00    +0.000 OA
ENDBRANCH   1  28
TORSDOF 5
ENDMDL
MODEL 2
REMARK VINA RESULT:      -9.1      2.037      2.644
REMARK  Name = 
REMARK  7 active torsions:
REMARK  status: ('A' for Active; 'I' for Inactive)
REMARK    1  A    between atoms: C_1  and  C_2
REMARK    2  A    between atoms: C_2  and  C_4
REMARK    3  A    between atoms: C_6  and  C_7
REMARK    4  A    between atoms: N_9  and  C_10
REMARK    5  A    between atoms: C_10  and  C_11
REMARK    6  A    between atoms: C_11  and  C_12
REMARK    7  A    between atoms: N_26  and  C_27
REMARK                            x       y       z     vdW  Elec       q    Type
REMARK                         _______ _______ _______ _____ _____    ______ ____
ROOT
ATOM      1  C   UNL     1       2.192   4.449  19.672  0.00  0.00    +0.000 A 
ATOM      2  N   UNL     1       1.758   5.645  20.183  0.00  0.00    +0.000 NA
ATOM      3  C   UNL     1       2.225   6.801  19.653  0.00  0.00    +0.000 A 
ATOM      4  C   UNL     1       3.116   6.866  18.596  0.00  0.00    +0.000 A 
ATOM      5  C   UNL     1       3.552   5.654  18.042  0.00  0.00    +0.000 A 
ATOM      6  C   UNL     1       4.431   5.365  16.955  0.00  0.00    +0.000 A 
ATOM      7  C   UNL     1       5.168   6.173  16.058  0.00  0.00    +0.000 A 
ATOM      8  C   UNL     1       5.951   5.575  15.068  0.00  0.00    +0.000 A 
ATOM      9  C   UNL     1       6.013   4.191  14.961  0.00  0.00    +0.000 A 
ATOM     10  C   UNL     1       5.298   3.375  15.840  0.00  0.00    +0.000 A 
ATOM     11  C   UNL     1       4.505   3.983  16.833  0.00  0.00    +0.000 A 
ATOM     12  N   UNL     1       3.691   3.442  17.818  0.00  0.00    +0.000 N 
ATOM     13  C   UNL     1       3.503   2.014  17.973  0.00  0.00    +0.000 C 
ATOM     14  C   UNL     1       3.093   4.443  18.583  0.00  0.00    +0.000 A 
ENDROOT
BRANCH   3  15
ATOM     15  C   UNL     1       1.744   8.090  20.256  0.00  0.00    +0.000 C 
ATOM     16  O   UNL     1       1.393   9.023  19.538  0.00  0.00    +0.000 OA
ATOM     17  N   UNL     1       1.724   8.160  21.637  0.00  0.00    +0.000 N 
ATOM     18  H   UNL     1       2.066   7.360  22.157  0.00  0.00    +0.000 HD
BRANCH  17  19
ATOM     19  C   UNL     1       1.297   9.382  22.301  0.00  0.00    +0.000 C 
BRANCH  19  20
ATOM     20  C   UNL     1      -0.175   9.374  22.716  0.00  0.00    +0.000 C 
BRANCH  20  21
ATOM     21  C   UNL     1      -0.876  10.663  22.349  0.00  0.00    +0.000 A 
ATOM     22  C   UNL     1      -1.706  11.311  23.274  0.00  0.00    +0.000 A 
ATOM     23  C   UNL     1      -2.370  12.492  22.928  0.00  0.00    +0.000 A 
ATOM     24  C   UNL     1      -2.214  13.035  21.654  0.00  0.00    +0.000 A 
ATOM     25  C   UNL     1      -1.395  12.397  20.726  0.00  0.00    +0.000 A 
ATOM     26  C   UNL     1      -0.732  11.216  21.068  0.00  0.00    +0.000 A 
ENDBRANCH  20  21
ENDBRANCH  19  20
ENDBRANCH  17  19
ENDBRANCH   3  15
BRANCH   1  28
ATOM     27  C   UNL     1       2.364   2.809  21.622  0.00  0.00    +0.000 C 
ATOM     28  C   UNL     1       1.658   3.245  20.365  0.00  0.00    +0.000 C 
ATOM     29  O   UNL     1       0.710   2.600  19.928  0.00  0.00    +0.000 OA
ENDBRANCH   1  28
TORSDOF 5
ENDMDL
MODEL 3
REMARK VINA RESULT:      -9.0      2.207      4.114
REMARK  Name = 
REMARK  7 active torsions:
REMARK  status: ('A' for Active; 'I' for Inactive)
REMARK    1  A    between atoms: C_1  and  C_2
REMARK    2  A    between atoms: C_2  and  C_4
REMARK    3  A    between atoms: C_6  and  C_7
REMARK    4  A    between atoms: N_9  and  C_10
REMARK    5  A    between atoms: C_10  and  C_11
REMARK    6  A    between atoms: C_11  and  C_12
REMARK    7  A    between atoms: N_26  and  C_27
REMARK                            x       y       z     vdW  Elec       q    Type
REMARK                         _______ _______ _______ _____ _____    ______ ____
ROOT
ATOM      1  C   UNL     1       4.316   6.846  17.505  0.00  0.00    +0.000 A 
ATOM      2  N   UNL     1       3.669   8.054  17.475  0.00  0.00    +0.000 NA
ATOM      3  C   UNL     1       2.539   8.219  18.204  0.00  0.00    +0.000 A 
ATOM      4  C   UNL     1       1.986   7.240  19.012  0.00  0.00    +0.000 A 
ATOM      5  C   UNL     1       2.648   6.006  19.077  0.00  0.00    +0.000 A 
ATOM      6  C   UNL     1       2.370   4.814  19.811  0.00  0.00    +0.000 A 
ATOM      7  C   UNL     1       1.351   4.446  20.721  0.00  0.00    +0.000 A 
ATOM      8  C   UNL     1       1.360   3.173  21.296  0.00  0.00    +0.000 A 
ATOM      9  C   UNL     1       2.362   2.264  20.976  0.00  0.00    +0.000 A 
ATOM     10  C   UNL     1       3.374   2.605  20.076  0.00  0.00    +0.000 A 
ATOM     11  C   UNL     1       3.364   3.892  19.504  0.00  0.00    +0.000 A 
ATOM     12  N   UNL     1       4.226   4.506  18.607  0.00  0.00    +0.000 N 
ATOM     13  C   UNL     1       5.405   3.844  18.085  0.00  0.00    +0.000 C 
ATOM     14  C   UNL     1       3.812   5.806  18.319  0.00  0.00    +0.000 A 
ENDROOT
BRANCH   3  15
ATOM     15  C   UNL     1       1.845   9.550  18.126  0.00  0.00    +0.000 C 
ATOM     16  O   UNL     1       2.299  10.449  17.422  0.00  0.00    +0.000 OA
ATOM     17  N   UNL     1       0.695   9.696  18.878  0.00  0.00    +0.000 N 
ATOM     18  H   UNL     1       0.409   8.918  19.463  0.00  0.00    +0.000 HD
BRANCH  17  19
ATOM     19  C   UNL     1      -0.022  10.962  18.879  0.00  0.00    +0.000 C 
BRANCH  19  20
ATOM     20  C   UNL     1      -1.514  10.823  19.185  0.00  0.00    +0.000 C 
BRANCH  20  21
ATOM     21  C   UNL     1      -2.349  10.771  17.925  0.00  0.00    +0.000 A 
ATOM     22  C   UNL     1      -3.529  11.521  17.821  0.00  0.00    +0.000 A 
ATOM     23  C   UNL     1      -4.312  11.459  16.664  0.00  0.00    +0.000 A 
ATOM     24  C   UNL     1      -3.926  10.643  15.602  0.00  0.00    +0.000 A 
ATOM     25  C   UNL     1      -2.759   9.890  15.697  0.00  0.00    +0.000 A 
ATOM     26  C   UNL     1      -1.975   9.950  16.852  0.00  0.00    +0.000 A 
ENDBRANCH  20  21
ENDBRANCH  19  20
ENDBRANCH  17  19
ENDBRANCH   3  15
BRANCH   1  28
ATOM     27  C   UNL     1       6.851   7.037  17.257  0.00  0.00    +0.000 C 
ATOM     28  C   UNL     1       5.512   6.758  16.624  0.00  0.00    +0.000 C 
ATOM     29  O   UNL     1       5.430   6.509  15.425  0.00  0.00    +0.000 OA
ENDBRANCH   1  28
TORSDOF 5
ENDMDL
MODEL 4
REMARK VINA RESULT:      -8.8      1.950      2.427
REMARK  Name = 
REMARK  7 active torsions:
REMARK  status: ('A' for Active; 'I' for Inactive)
REMARK    1  A    between atoms: C_1  and  C_2
REMARK    2  A    between atoms: C_2  and  C_4
REMARK    3  A    between atoms: C_6  and  C_7
REMARK    4  A    between atoms: N_9  and  C_10
REMARK    5  A    between atoms: C_10  and  C_11
REMARK    6  A    between atoms: C_11  and  C_12
REMARK    7  A    between atoms: N_26  and  C_27
REMARK                            x       y       z     vdW  Elec       q    Type
REMARK                         _______ _______ _______ _____ _____    ______ ____
ROOT
ATOM      1  C   UNL     1       2.374   4.642  20.161  0.00  0.00    +0.000 A 
ATOM      2  N   UNL     1       1.861   5.835  20.600  0.00  0.00    +0.000 NA
ATOM      3  C   UNL     1       2.180   6.976  19.942  0.00  0.00    +0.000 A 
ATOM      4  C   UNL     1       2.990   7.025  18.822  0.00  0.00    +0.000 A 
ATOM      5  C   UNL     1       3.503   5.812  18.341  0.00  0.00    +0.000 A 
ATOM      6  C   UNL     1       4.333   5.506  17.221  0.00  0.00    +0.000 A 
ATOM      7  C   UNL     1       4.930   6.292  16.208  0.00  0.00    +0.000 A 
ATOM      8  C   UNL     1       5.700   5.680  15.216  0.00  0.00    +0.000 A 
ATOM      9  C   UNL     1       5.887   4.303  15.222  0.00  0.00    +0.000 A 
ATOM     10  C   UNL     1       5.312   3.509  16.216  0.00  0.00    +0.000 A 
ATOM     11  C   UNL     1       4.531   4.131  17.210  0.00  0.00    +0.000 A 
ATOM     12  N   UNL     1       3.838   3.610  18.293  0.00  0.00    +0.000 N 
ATOM     13  C   UNL     1       3.798   2.191  18.581  0.00  0.00    +0.000 C 
ATOM     14  C   UNL     1       3.198   4.618  19.014  0.00  0.00    +0.000 A 
ENDROOT
BRANCH   3  15
ATOM     15  C   UNL     1       1.618   8.267  20.469  0.00  0.00    +0.000 C 
ATOM     16  O   UNL     1       1.197   9.124  19.697  0.00  0.00    +0.000 OA
ATOM     17  N   UNL     1       1.608   8.425  21.842  0.00  0.00    +0.000 N 
ATOM     18  H   UNL     1       2.010   7.685  22.407  0.00  0.00    +0.000 HD
BRANCH  17  19
ATOM     19  C   UNL     1       1.105   9.656  22.433  0.00  0.00    +0.000 C 
BRANCH  19  20
ATOM     20  C   UNL     1      -0.381   9.604  22.788  0.00  0.00    +0.000 C 
BRANCH  20  21
ATOM     21  C   UNL     1      -1.102  10.876  22.400  0.00  0.00    +0.000 A 
ATOM     22  C   UNL     1      -0.913  11.444  21.133  0.00  0.00    +0.000 A 
ATOM     23  C   UNL     1      -1.564  12.631  20.782  0.00  0.00    +0.000 A 
ATOM     24  C   UNL     1      -2.407  13.263  21.694  0.00  0.00    +0.000 A 
ATOM     25  C   UNL     1      -2.598  12.710  22.958  0.00  0.00    +0.000 A 
ATOM     26  C   UNL     1      -1.948  11.525  23.312  0.00  0.00    +0.000 A 
ENDBRANCH  20  21
ENDBRANCH  19  20
ENDBRANCH  17  19
ENDBRANCH   3  15
BRANCH   1  28
ATOM     27  C   UNL     1       0.837   2.634  20.520  0.00  0.00    +0.000 C 
ATOM     28  C   UNL     1       2.003   3.463  20.990  0.00  0.00    +0.000 C 
ATOM     29  O   UNL     1       2.586   3.183  22.033  0.00  0.00    +0.000 OA
ENDBRANCH   1  28
TORSDOF 5
ENDMDL
MODEL 5
REMARK VINA RESULT:      -8.7      1.580      2.250
REMARK  Name = 
REMARK  7 active torsions:
REMARK  status: ('A' for Active; 'I' for Inactive)
REMARK    1  A    between atoms: C_1  and  C_2
REMARK    2  A    between atoms: C_2  and  C_4
REMARK    3  A    between atoms: C_6  and  C_7
REMARK    4  A    between atoms: N_9  and  C_10
REMARK    5  A    between atoms: C_10  and  C_11
REMARK    6  A    between atoms: C_11  and  C_12
REMARK    7  A    between atoms: N_26  and  C_27
REMARK                            x       y       z     vdW  Elec       q    Type
REMARK                         _______ _______ _______ _____ _____    ______ ____
ROOT
ATOM      1  C   UNL     1       2.182   4.605  19.583  0.00  0.00    +0.000 A 
ATOM      2  N   UNL     1       1.741   5.820  20.038  0.00  0.00    +0.000 NA
ATOM      3  C   UNL     1       2.222   6.954  19.473  0.00  0.00    +0.000 A 
ATOM      4  C   UNL     1       3.134   6.975  18.433  0.00  0.00    +0.000 A 
ATOM      5  C   UNL     1       3.578   5.742  17.936  0.00  0.00    +0.000 A 
ATOM      6  C   UNL     1       4.478   5.408  16.880  0.00  0.00    +0.000 A 
ATOM      7  C   UNL     1       5.236   6.179  15.967  0.00  0.00    +0.000 A 
ATOM      8  C   UNL     1       6.037   5.541  15.017  0.00  0.00    +0.000 A 
ATOM      9  C   UNL     1       6.097   4.153  14.965  0.00  0.00    +0.000 A 
ATOM     10  C   UNL     1       5.361   3.374  15.861  0.00  0.00    +0.000 A 
ATOM     11  C   UNL     1       4.550   4.022  16.813  0.00  0.00    +0.000 A 
ATOM     12  N   UNL     1       3.715   3.522  17.802  0.00  0.00    +0.000 N 
ATOM     13  C   UNL     1       3.520   2.102  18.009  0.00  0.00    +0.000 C 
ATOM     14  C   UNL     1       3.105   4.554  18.515  0.00  0.00    +0.000 A 
ENDROOT
BRANCH   3  15
ATOM     15  C   UNL     1       1.733   8.267  20.016  0.00  0.00    +0.000 C 
ATOM     16  O   UNL     1       1.564   8.419  21.223  0.00  0.00    +0.000 OA
ATOM     17  N   UNL     1       1.487   9.267  19.094  0.00  0.00    +0.000 N 
ATOM     18  H   UNL     1       1.615   9.048  18.112  0.00  0.00    +0.000 HD
BRANCH  17  19
ATOM     19  C   UNL     1       0.986  10.561  19.533  0.00  0.00    +0.000 C 
BRANCH  19  20
ATOM     20  C   UNL     1      -0.532  10.703  19.419  0.00  0.00    +0.000 C 
BRANCH  20  21
ATOM     21  C   UNL     1      -1.143  11.289  20.672  0.00  0.00    +0.000 A 
ATOM     22  C   UNL     1      -0.757  10.826  21.937  0.00  0.00    +0.000 A 
ATOM     23  C   UNL     1      -1.337  11.353  23.095  0.00  0.00    +0.000 A 
ATOM     24  C   UNL     1      -2.311  12.345  23.000  0.00  0.00    +0.000 A 
ATOM     25  C   UNL     1      -2.706  12.809  21.747  0.00  0.00    +0.000 A 
ATOM     26  C   UNL     1      -2.129  12.283  20.589  0.00  0.00    +0.000 A 
ENDBRANCH  20  21
ENDBRANCH  19  20
ENDBRANCH  17  19
ENDBRANCH   3  15
BRANCH   1  28
ATOM     27  C   UNL     1       2.336   3.015  21.576  0.00  0.00    +0.000 C 
ATOM     28  C   UNL     1       1.630   3.430  20.312  0.00  0.00    +0.000 C 
ATOM     29  O   UNL     1       0.666   2.792  19.899  0.00  0.00    +0.000 OA
ENDBRANCH   1  28
TORSDOF 5
ENDMDL
MODEL 6
REMARK VINA RESULT:      -8.6      1.413      2.131
REMARK  Name = 
REMARK  7 active torsions:
REMARK  status: ('A' for Active; 'I' for Inactive)
REMARK    1  A    between atoms: C_1  and  C_2
REMARK    2  A    between atoms: C_2  and  C_4
REMARK    3  A    between atoms: C_6  and  C_7
REMARK    4  A    between atoms: N_9  and  C_10
REMARK    5  A    between atoms: C_10  and  C_11
REMARK    6  A    between atoms: C_11  and  C_12
REMARK    7  A    between atoms: N_26  and  C_27
REMARK                            x       y       z     vdW  Elec       q    Type
REMARK                         _______ _______ _______ _____ _____    ______ ____
ROOT
ATOM      1  C   UNL     1       2.313   4.814  20.014  0.00  0.00    +0.000 A 
ATOM      2  N   UNL     1       1.821   6.033  20.402  0.00  0.00    +0.000 NA
ATOM      3  C   UNL     1       2.183   7.143  19.714  0.00  0.00    +0.000 A 
ATOM      4  C   UNL     1       3.017   7.134  18.611  0.00  0.00    +0.000 A 
ATOM      5  C   UNL     1       3.510   5.894  18.182  0.00  0.00    +0.000 A 
ATOM      6  C   UNL     1       4.357   5.530  17.092  0.00  0.00    +0.000 A 
ATOM      7  C   UNL     1       4.994   6.267  16.067  0.00  0.00    +0.000 A 
ATOM      8  C   UNL     1       5.771   5.604  15.114  0.00  0.00    +0.000 A 
ATOM      9  C   UNL     1       5.923   4.223  15.169  0.00  0.00    +0.000 A 
ATOM     10  C   UNL     1       5.307   3.477  16.176  0.00  0.00    +0.000 A 
ATOM     11  C   UNL     1       4.520   4.151  17.131  0.00  0.00    +0.000 A 
ATOM     12  N   UNL     1       3.792   3.684  18.216  0.00  0.00    +0.000 N 
ATOM     13  C   UNL     1       3.710   2.277  18.550  0.00  0.00    +0.000 C 
ATOM     14  C   UNL     1       3.162   4.731  18.888  0.00  0.00    +0.000 A 
ENDROOT
BRANCH   3  15
ATOM     15  C   UNL     1       1.642   8.464  20.185  0.00  0.00    +0.000 C 
ATOM     16  O   UNL     1       1.413   8.655  21.377  0.00  0.00    +0.000 OA
ATOM     17  N   UNL     1       1.420   9.425  19.217  0.00  0.00    +0.000 N 
ATOM     18  H   UNL     1       1.598   9.173  18.251  0.00  0.00    +0.000 HD
BRANCH  17  19
ATOM     19  C   UNL     1       0.872  10.722  19.585  0.00  0.00    +0.000 C 
BRANCH  19  20
ATOM     20  C   UNL     1      -0.644  10.820  19.413  0.00  0.00    +0.000 C 
BRANCH  20  21
ATOM     21  C   UNL     1      -1.311  11.460  20.610  0.00  0.00    +0.000 A 
ATOM     22  C   UNL     1      -2.341  12.394  20.437  0.00  0.00    +0.000 A 
ATOM     23  C   UNL     1      -2.945  13.001  21.543  0.00  0.00    +0.000 A 
ATOM     24  C   UNL     1      -2.522  12.683  22.832  0.00  0.00    +0.000 A 
ATOM     25  C   UNL     1      -1.495  11.760  23.015  0.00  0.00    +0.000 A 
ATOM     26  C   UNL     1      -0.889  11.154  21.912  0.00  0.00    +0.000 A 
ENDBRANCH  20  21
ENDBRANCH  19  20
ENDBRANCH  17  19
ENDBRANCH   3  15
BRANCH   1  28
ATOM     27  C   UNL     1       0.748   2.830  20.383  0.00  0.00    +0.000 C 
ATOM     28  C   UNL     1       1.896   3.673  20.874  0.00  0.00    +0.000 C 
ATOM     29  O   UNL     1       2.426   3.434  21.954  0.00  0.00    +0.000 OA
ENDBRANCH   1  28
TORSDOF 5
ENDMDL
MODEL 7
REMARK VINA RESULT:      -8.5      2.567      4.726
REMARK  Name = 
REMARK  7 active torsions:
REMARK  status: ('A' for Active; 'I' for Inactive)
REMARK    1  A    between atoms: C_1  and  C_2
REMARK    2  A    between atoms: C_2  and  C_4
REMARK    3  A    between atoms: C_6  and  C_7
REMARK    4  A    between atoms: N_9  and  C_10
REMARK    5  A    between atoms: C_10  and  C_11
REMARK    6  A    between atoms: C_11  and  C_12
REMARK    7  A    between atoms: N_26  and  C_27
REMARK                            x       y       z     vdW  Elec       q    Type
REMARK                         _______ _______ _______ _____ _____    ______ ____
ROOT
ATOM      1  C   UNL     1       4.302   6.799  17.411  0.00  0.00    +0.000 A 
ATOM      2  N   UNL     1       3.680   8.020  17.369  0.00  0.00    +0.000 NA
ATOM      3  C   UNL     1       2.546   8.212  18.086  0.00  0.00    +0.000 A 
ATOM      4  C   UNL     1       1.966   7.248  18.892  0.00  0.00    +0.000 A 
ATOM      5  C   UNL     1       2.601   6.001  18.968  0.00  0.00    +0.000 A 
ATOM      6  C   UNL     1       2.291   4.817  19.704  0.00  0.00    +0.000 A 
ATOM      7  C   UNL     1       1.256   4.474  20.605  0.00  0.00    +0.000 A 
ATOM      8  C   UNL     1       1.232   3.204  21.185  0.00  0.00    +0.000 A 
ATOM      9  C   UNL     1       2.218   2.273  20.879  0.00  0.00    +0.000 A 
ATOM     10  C   UNL     1       3.246   2.590  19.987  0.00  0.00    +0.000 A 
ATOM     11  C   UNL     1       3.268   3.874  19.410  0.00  0.00    +0.000 A 
ATOM     12  N   UNL     1       4.152   4.466  18.520  0.00  0.00    +0.000 N 
ATOM     13  C   UNL     1       5.322   3.778  18.013  0.00  0.00    +0.000 C 
ATOM     14  C   UNL     1       3.769   5.773  18.223  0.00  0.00    +0.000 A 
ENDROOT
BRANCH   3  15
ATOM     15  C   UNL     1       1.881   9.556  17.995  0.00  0.00    +0.000 C 
ATOM     16  O   UNL     1       2.457  10.502  17.464  0.00  0.00    +0.000 OA
ATOM     17  N   UNL     1       0.614   9.660  18.537  0.00  0.00    +0.000 N 
ATOM     18  H   UNL     1       0.225   8.841  18.992  0.00  0.00    +0.000 HD
BRANCH  17  19
ATOM     19  C   UNL     1      -0.090  10.934  18.514  0.00  0.00    +0.000 C 
BRANCH  19  20
ATOM     20  C   UNL     1       0.187  11.810  19.736  0.00  0.00    +0.000 C 
BRANCH  20  21
ATOM     21  C   UNL     1       0.006  11.052  21.032  0.00  0.00    +0.000 A 
ATOM     22  C   UNL     1      -1.031  11.384  21.913  0.00  0.00    +0.000 A 
ATOM     23  C   UNL     1      -1.186  10.696  23.121  0.00  0.00    +0.000 A 
ATOM     24  C   UNL     1      -0.304   9.673  23.461  0.00  0.00    +0.000 A 
ATOM     25  C   UNL     1       0.734   9.338  22.595  0.00  0.00    +0.000 A 
ATOM     26  C   UNL     1       0.892  10.024  21.388  0.00  0.00    +0.000 A 
ENDBRANCH  20  21
ENDBRANCH  19  20
ENDBRANCH  17  19
ENDBRANCH   3  15
BRANCH   1  28
ATOM     27  C   UNL     1       6.839   6.975  17.178  0.00  0.00    +0.000 C 
ATOM     28  C   UNL     1       5.505   6.684  16.542  0.00  0.00    +0.000 C 
ATOM     29  O   UNL     1       5.432   6.402  15.350  0.00  0.00    +0.000 OA
ENDBRANCH   1  28
TORSDOF 5
ENDMDL
MODEL 8
REMARK VINA RESULT:      -8.5      1.509      2.607
REMARK  Name = 
REMARK  7 active torsions:
REMARK  status: ('A' for Active; 'I' for Inactive)
REMARK    1  A    between atoms: C_1  and  C_2
REMARK    2  A    between atoms: C_2  and  C_4
REMARK    3  A    between atoms: C_6  and  C_7
REMARK    4  A    between atoms: N_9  and  C_10
REMARK    5  A    between atoms: C_10  and  C_11
REMARK    6  A    between atoms: C_11  and  C_12
REMARK    7  A    between atoms: N_26  and  C_27
REMARK                            x       y       z     vdW  Elec       q    Type
REMARK                         _______ _______ _______ _____ _____    ______ ____
ROOT
ATOM      1  C   UNL     1       2.271   4.829  20.199  0.00  0.00    +0.000 A 
ATOM      2  N   UNL     1       1.733   6.011  20.638  0.00  0.00    +0.000 NA
ATOM      3  C   UNL     1       2.034   7.160  19.985  0.00  0.00    +0.000 A 
ATOM      4  C   UNL     1       2.850   7.226  18.869  0.00  0.00    +0.000 A 
ATOM      5  C   UNL     1       3.389   6.024  18.389  0.00  0.00    +0.000 A 
ATOM      6  C   UNL     1       4.232   5.736  17.274  0.00  0.00    +0.000 A 
ATOM      7  C   UNL     1       4.820   6.536  16.266  0.00  0.00    +0.000 A 
ATOM      8  C   UNL     1       5.608   5.941  15.278  0.00  0.00    +0.000 A 
ATOM      9  C   UNL     1       5.822   4.568  15.282  0.00  0.00    +0.000 A 
ATOM     10  C   UNL     1       5.255   3.760  16.271  0.00  0.00    +0.000 A 
ATOM     11  C   UNL     1       4.456   4.365  17.261  0.00  0.00    +0.000 A 
ATOM     12  N   UNL     1       3.766   3.829  18.339  0.00  0.00    +0.000 N 
ATOM     13  C   UNL     1       3.751   2.409  18.624  0.00  0.00    +0.000 C 
ATOM     14  C   UNL     1       3.103   4.823  19.057  0.00  0.00    +0.000 A 
ENDROOT
BRANCH   3  15
ATOM     15  C   UNL     1       1.445   8.438  20.511  0.00  0.00    +0.000 C 
ATOM     16  O   UNL     1       1.300   8.607  21.719  0.00  0.00    +0.000 OA
ATOM     17  N   UNL     1       1.081   9.386  19.573  0.00  0.00    +0.000 N 
ATOM     18  H   UNL     1       1.198   9.152  18.593  0.00  0.00    +0.000 HD
BRANCH  17  19
ATOM     19  C   UNL     1       0.478  10.641  19.997  0.00  0.00    +0.000 C 
BRANCH  19  20
ATOM     20  C   UNL     1      -0.011  11.510  18.838  0.00  0.00    +0.000 C 
BRANCH  20  21
ATOM     21  C   UNL     1       0.783  12.791  18.715  0.00  0.00    +0.000 A 
ATOM     22  C   UNL     1       2.137  12.759  18.357  0.00  0.00    +0.000 A 
ATOM     23  C   UNL     1       2.877  13.942  18.262  0.00  0.00    +0.000 A 
ATOM     24  C   UNL     1       2.270  15.168  18.528  0.00  0.00    +0.000 A 
ATOM     25  C   UNL     1       0.926  15.212  18.889  0.00  0.00    +0.000 A 
ATOM     26  C   UNL     1       0.186  14.031  18.986  0.00  0.00    +0.000 A 
ENDBRANCH  20  21
ENDBRANCH  19  20
ENDBRANCH  17  19
ENDBRANCH   3  15
BRANCH   1  28
ATOM     27  C   UNL     1       0.835   2.737  20.494  0.00  0.00    +0.000 C 
ATOM     28  C   UNL     1       1.918   3.641  21.023  0.00  0.00    +0.000 C 
ATOM     29  O   UNL     1       2.447   3.410  22.106  0.00  0.00    +0.000 OA
ENDBRANCH   1  28
TORSDOF 5
ENDMDL
MODEL 9
REMARK VINA RESULT:      -8.5      2.704      8.660
REMARK  Name = 
REMARK  7 active torsions:
REMARK  status: ('A' for Active; 'I' for Inactive)
REMARK    1  A    between atoms: C_1  and  C_2
REMARK    2  A    between atoms: C_2  and  C_4
REMARK    3  A    between atoms: C_6  and  C_7
REMARK    4  A    between atoms: N_9  and  C_10
REMARK    5  A    between atoms: C_10  and  C_11
REMARK    6  A    between atoms: C_11  and  C_12
REMARK    7  A    between atoms: N_26  and  C_27
REMARK                            x       y       z     vdW  Elec       q    Type
REMARK                         _______ _______ _______ _____ _____    ______ ____
ROOT
ATOM      1  C   UNL     1      -0.504  11.164  20.552  0.00  0.00    +0.000 A 
ATOM      2  N   UNL     1       0.558  10.444  20.069  0.00  0.00    +0.000 NA
ATOM      3  C   UNL     1       0.477   9.892  18.834  0.00  0.00    +0.000 A 
ATOM      4  C   UNL     1      -0.617  10.021  17.997  0.00  0.00    +0.000 A 
ATOM      5  C   UNL     1      -1.703  10.776  18.462  0.00  0.00    +0.000 A 
ATOM      6  C   UNL     1      -2.951  11.120  17.862  0.00  0.00    +0.000 A 
ATOM      7  C   UNL     1      -3.539  10.834  16.608  0.00  0.00    +0.000 A 
ATOM      8  C   UNL     1      -4.806  11.338  16.304  0.00  0.00    +0.000 A 
ATOM      9  C   UNL     1      -5.494  12.115  17.228  0.00  0.00    +0.000 A 
ATOM     10  C   UNL     1      -4.934  12.404  18.475  0.00  0.00    +0.000 A 
ATOM     11  C   UNL     1      -3.653  11.899  18.773  0.00  0.00    +0.000 A 
ATOM     12  N   UNL     1      -2.854  12.028  19.900  0.00  0.00    +0.000 N 
ATOM     13  C   UNL     1      -3.259  12.805  21.055  0.00  0.00    +0.000 C 
ATOM     14  C   UNL     1      -1.649  11.345  19.744  0.00  0.00    +0.000 A 
ENDROOT
BRANCH   3  15
ATOM     15  C   UNL     1       1.652   9.090  18.349  0.00  0.00    +0.000 C 
ATOM     16  O   UNL     1       2.287   9.449  17.361  0.00  0.00    +0.000 OA
ATOM     17  N   UNL     1       1.964   7.950  19.066  0.00  0.00    +0.000 N 
ATOM     18  H   UNL     1       1.366   7.704  19.847  0.00  0.00    +0.000 HD
BRANCH  17  19
ATOM     19  C   UNL     1       3.070   7.103  18.648  0.00  0.00    +0.000 C 
BRANCH  19  20
ATOM     20  C   UNL     1       2.629   5.786  18.009  0.00  0.00    +0.000 C 
BRANCH  20  21
ATOM     21  C   UNL     1       2.144   4.790  19.038  0.00  0.00    +0.000 A 
ATOM     22  C   UNL     1       2.570   4.877  20.370  0.00  0.00    +0.000 A 
ATOM     23  C   UNL     1       2.138   3.943  21.318  0.00  0.00    +0.000 A 
ATOM     24  C   UNL     1       1.278   2.913  20.942  0.00  0.00    +0.000 A 
ATOM     25  C   UNL     1       0.853   2.814  19.620  0.00  0.00    +0.000 A 
ATOM     26  C   UNL     1       1.284   3.744  18.671  0.00  0.00    +0.000 A 
ENDBRANCH  20  21
ENDBRANCH  19  20
ENDBRANCH  17  19
ENDBRANCH   3  15
BRANCH   1  28
ATOM     27  C   UNL     1      -0.811  10.795  23.061  0.00  0.00    +0.000 C 
ATOM     28  C   UNL     1      -0.328  11.677  21.939  0.00  0.00    +0.000 C 
ATOM     29  O   UNL     1       0.151  12.781  22.177  0.00  0.00    +0.000 OA
ENDBRANCH   1  28
TORSDOF 5
ENDMDL
