MODEL 1
REMARK VINA RESULT:      -7.2      0.000      0.000
REMARK  Name = 
REMARK  12 active torsions:
REMARK  status: ('A' for Active; 'I' for Inactive)
REMARK    1  A    between atoms: C_1  and  N_2
REMARK    2  A    between atoms: N_2  and  C_3
REMARK    3  A    between atoms: N_2  and  C_28
REMARK    4  A    between atoms: C_3  and  C_4
REMARK    5  A    between atoms: C_4  and  O_5
REMARK    6  A    between atoms: O_5  and  C_6
REMARK    7  A    between atoms: C_6  and  C_7
REMARK    8  A    between atoms: C_7  and  N_8
REMARK    9  A    between atoms: N_8  and  C_9
REMARK   10  A    between atoms: C_9  and  N_11
REMARK   11  A    between atoms: C_12  and  C_14
REMARK   12  A    between atoms: C_28  and  C_29
REMARK                            x       y       z     vdW  Elec       q    Type
REMARK                         _______ _______ _______ _____ _____    ______ ____
ROOT
ATOM      1  C   UNL     1       2.206   3.710  18.876  0.00  0.00    +0.000 C 
ATOM      2  S   UNL     1       0.798   2.811  18.836  0.00  0.00    +0.000 S 
ENDROOT
BRANCH   1   3
ATOM      3  N   UNL     1       2.097   5.084  18.971  0.00  0.00    +0.000 N 
ATOM      4  C   UNL     1       2.031   5.852  20.126  0.00  0.00    +0.000 C 
ATOM      5  O   UNL     1       2.162   5.393  21.257  0.00  0.00    +0.000 OA
ATOM      6  H   UNL     1       1.969   5.530  18.073  0.00  0.00    +0.000 HD
BRANCH   4   7
ATOM      7  C   UNL     1       1.722   7.299  19.974  0.00  0.00    +0.000 A 
ATOM      8  C   UNL     1       1.966   7.859  18.695  0.00  0.00    +0.000 A 
ATOM      9  C   UNL     1       1.766   9.218  18.436  0.00  0.00    +0.000 A 
ATOM     10  C   UNL     1       1.316  10.014  19.470  0.00  0.00    +0.000 A 
ATOM     11  C   UNL     1       1.045   9.439  20.725  0.00  0.00    +0.000 A 
ATOM     12  C   UNL     1       1.230   8.097  21.013  0.00  0.00    +0.000 A 
ATOM     13  C   UNL     1       0.594  10.532  21.617  0.00  0.00    +0.000 C 
ATOM     14  O   UNL     1       0.258  10.416  22.778  0.00  0.00    +0.000 OA
ATOM     15  C   UNL     1       0.657  11.781  20.824  0.00  0.00    +0.000 A 
ATOM     16  C   UNL     1       0.404  13.083  21.212  0.00  0.00    +0.000 A 
ATOM     17  C   UNL     1       0.599  14.081  20.255  0.00  0.00    +0.000 A 
ATOM     18  C   UNL     1       1.025  13.757  18.952  0.00  0.00    +0.000 A 
ATOM     19  C   UNL     1       1.268  12.430  18.581  0.00  0.00    +0.000 A 
ATOM     20  C   UNL     1       1.086  11.439  19.532  0.00  0.00    +0.000 A 
ENDBRANCH   4   7
ENDBRANCH   1   3
BRANCH   1  21
ATOM     21  N   UNL     1       3.475   3.209  18.825  0.00  0.00    +0.000 N 
ATOM     22  H   UNL     1       3.558   2.198  18.945  0.00  0.00    +0.000 HD
BRANCH  21  23
ATOM     23  C   UNL     1       4.675   3.908  18.378  0.00  0.00    +0.000 C 
BRANCH  23  24
ATOM     24  C   UNL     1       5.769   3.939  19.446  0.00  0.00    +0.000 C 
BRANCH  24  25
ATOM     25  O   UNL     1       6.418   5.219  19.464  0.00  0.00    +0.000 OA
BRANCH  25  26
ATOM     26  C   UNL     1       5.773   6.116  18.551  0.00  0.00    +0.000 C 
BRANCH  26  27
ATOM     27  C   UNL     1       6.786   6.687  17.547  0.00  0.00    +0.000 C 
BRANCH  27  29
ATOM     28  C   UNL     1       5.083   6.653  15.852  0.00  0.00    +0.000 C 
ATOM     29  N   UNL     1       6.494   6.354  16.135  0.00  0.00    +0.000 NA
BRANCH  29  30
ATOM     30  C   UNL     1       6.809   4.944  15.827  0.00  0.00    +0.000 C 
BRANCH  30  31
ATOM     31  C   UNL     1       6.796   4.637  14.344  0.00  0.00    +0.000 A 
ATOM     32  C   UNL     1       5.890   3.702  13.820  0.00  0.00    +0.000 A 
ATOM     33  C   UNL     1       5.927   3.364  12.467  0.00  0.00    +0.000 A 
ATOM     34  C   UNL     1       6.861   3.965  11.626  0.00  0.00    +0.000 A 
ATOM     35  C   UNL     1       7.742   4.921  12.129  0.00  0.00    +0.000 A 
ATOM     36  C   UNL     1       7.706   5.261  13.481  0.00  0.00    +0.000 A 
ENDBRANCH  30  31
ENDBRANCH  29  30
ENDBRANCH  27  29
ENDBRANCH  26  27
ENDBRANCH  25  26
ENDBRANCH  24  25
ENDBRANCH  23  24
ENDBRANCH  21  23
ENDBRANCH   1  21
TORSDOF 11
ENDMDL
MODEL 2
REMARK VINA RESULT:      -7.2      1.323      1.769
REMARK  Name = 
REMARK  12 active torsions:
REMARK  status: ('A' for Active; 'I' for Inactive)
REMARK    1  A    between atoms: C_1  and  N_2
REMARK    2  A    between atoms: N_2  and  C_3
REMARK    3  A    between atoms: N_2  and  C_28
REMARK    4  A    between atoms: C_3  and  C_4
REMARK    5  A    between atoms: C_4  and  O_5
REMARK    6  A    between atoms: O_5  and  C_6
REMARK    7  A    between atoms: C_6  and  C_7
REMARK    8  A    between atoms: C_7  and  N_8
REMARK    9  A    between atoms: N_8  and  C_9
REMARK   10  A    between atoms: C_9  and  N_11
REMARK   11  A    between atoms: C_12  and  C_14
REMARK   12  A    between atoms: C_28  and  C_29
REMARK                            x       y       z     vdW  Elec       q    Type
REMARK                         _______ _______ _______ _____ _____    ______ ____
ROOT
ATOM      1  C   UNL     1       2.410   4.119  18.384  0.00  0.00    +0.000 C 
ATOM      2  S   UNL     1       2.877   3.673  16.843  0.00  0.00    +0.000 S 
ENDROOT
BRANCH   1   3
ATOM      3  N   UNL     1       1.949   5.408  18.576  0.00  0.00    +0.000 N 
ATOM      4  C   UNL     1       2.662   6.591  18.451  0.00  0.00    +0.000 C 
ATOM      5  O   UNL     1       3.819   6.649  18.044  0.00  0.00    +0.000 OA
ATOM      6  H   UNL     1       1.002   5.436  18.929  0.00  0.00    +0.000 HD
BRANCH   4   7
ATOM      7  C   UNL     1       1.999   7.846  18.897  0.00  0.00    +0.000 A 
ATOM      8  C   UNL     1       2.011   8.921  17.972  0.00  0.00    +0.000 A 
ATOM      9  C   UNL     1       1.468  10.169  18.289  0.00  0.00    +0.000 A 
ATOM     10  C   UNL     1       0.911  10.334  19.540  0.00  0.00    +0.000 A 
ATOM     11  C   UNL     1       0.875   9.249  20.436  0.00  0.00    +0.000 A 
ATOM     12  C   UNL     1       1.401   7.999  20.151  0.00  0.00    +0.000 A 
ATOM     13  C   UNL     1       0.233   9.732  21.680  0.00  0.00    +0.000 C 
ATOM     14  O   UNL     1       0.016   9.072  22.676  0.00  0.00    +0.000 OA
ATOM     15  C   UNL     1      -0.066  11.168  21.475  0.00  0.00    +0.000 A 
ATOM     16  C   UNL     1      -0.601  12.089  22.355  0.00  0.00    +0.000 A 
ATOM     17  C   UNL     1      -0.722  13.405  21.902  0.00  0.00    +0.000 A 
ATOM     18  C   UNL     1      -0.321  13.759  20.599  0.00  0.00    +0.000 A 
ATOM     19  C   UNL     1       0.213  12.805  19.724  0.00  0.00    +0.000 A 
ATOM     20  C   UNL     1       0.345  11.502  20.175  0.00  0.00    +0.000 A 
ENDBRANCH   4   7
ENDBRANCH   1   3
BRANCH   1  21
ATOM     21  N   UNL     1       2.437   3.318  19.490  0.00  0.00    +0.000 N 
ATOM     22  H   UNL     1       1.527   3.027  19.850  0.00  0.00    +0.000 HD
BRANCH  21  23
ATOM     23  C   UNL     1       3.602   2.643  20.053  0.00  0.00    +0.000 C 
BRANCH  23  24
ATOM     24  C   UNL     1       4.788   3.586  20.255  0.00  0.00    +0.000 C 
BRANCH  24  25
ATOM     25  O   UNL     1       5.692   3.504  19.143  0.00  0.00    +0.000 OA
BRANCH  25  26
ATOM     26  C   UNL     1       6.208   4.804  18.828  0.00  0.00    +0.000 C 
BRANCH  26  27
ATOM     27  C   UNL     1       7.356   4.698  17.811  0.00  0.00    +0.000 C 
BRANCH  27  29
ATOM     28  C   UNL     1       7.338   7.051  17.321  0.00  0.00    +0.000 C 
ATOM     29  N   UNL     1       7.300   5.706  16.728  0.00  0.00    +0.000 NA
BRANCH  29  30
ATOM     30  C   UNL     1       6.104   5.535  15.879  0.00  0.00    +0.000 C 
BRANCH  30  31
ATOM     31  C   UNL     1       6.410   4.916  14.531  0.00  0.00    +0.000 A 
ATOM     32  C   UNL     1       7.532   5.331  13.797  0.00  0.00    +0.000 A 
ATOM     33  C   UNL     1       7.773   4.815  12.524  0.00  0.00    +0.000 A 
ATOM     34  C   UNL     1       6.902   3.875  11.978  0.00  0.00    +0.000 A 
ATOM     35  C   UNL     1       5.804   3.430  12.713  0.00  0.00    +0.000 A 
ATOM     36  C   UNL     1       5.562   3.944  13.986  0.00  0.00    +0.000 A 
ENDBRANCH  30  31
ENDBRANCH  29  30
ENDBRANCH  27  29
ENDBRANCH  26  27
ENDBRANCH  25  26
ENDBRANCH  24  25
ENDBRANCH  23  24
ENDBRANCH  21  23
ENDBRANCH   1  21
TORSDOF 11
ENDMDL
MODEL 3
REMARK VINA RESULT:      -7.1      4.990      8.692
REMARK  Name = 
REMARK  12 active torsions:
REMARK  status: ('A' for Active; 'I' for Inactive)
REMARK    1  A    between atoms: C_1  and  N_2
REMARK    2  A    between atoms: N_2  and  C_3
REMARK    3  A    between atoms: N_2  and  C_28
REMARK    4  A    between atoms: C_3  and  C_4
REMARK    5  A    between atoms: C_4  and  O_5
REMARK    6  A    between atoms: O_5  and  C_6
REMARK    7  A    between atoms: C_6  and  C_7
REMARK    8  A    between atoms: C_7  and  N_8
REMARK    9  A    between atoms: N_8  and  C_9
REMARK   10  A    between atoms: C_9  and  N_11
REMARK   11  A    between atoms: C_12  and  C_14
REMARK   12  A    between atoms: C_28  and  C_29
REMARK                            x       y       z     vdW  Elec       q    Type
REMARK                         _______ _______ _______ _____ _____    ______ ____
ROOT
ATOM      1  C   UNL     1       0.555  12.446  19.055  0.00  0.00    +0.000 C 
ATOM      2  S   UNL     1      -1.083  12.754  18.937  0.00  0.00    +0.000 S 
ENDROOT
BRANCH   1   3
ATOM      3  N   UNL     1       0.955  11.149  19.316  0.00  0.00    +0.000 N 
ATOM      4  C   UNL     1       1.739  10.326  18.520  0.00  0.00    +0.000 C 
ATOM      5  O   UNL     1       2.277  10.697  17.481  0.00  0.00    +0.000 OA
ATOM      6  H   UNL     1       0.534  10.771  20.154  0.00  0.00    +0.000 HD
BRANCH   4   7
ATOM      7  C   UNL     1       1.876   8.901  18.925  0.00  0.00    +0.000 A 
ATOM      8  C   UNL     1       1.293   8.548  20.168  0.00  0.00    +0.000 A 
ATOM      9  C   UNL     1       1.397   7.254  20.687  0.00  0.00    +0.000 A 
ATOM     10  C   UNL     1       2.087   6.315  19.949  0.00  0.00    +0.000 A 
ATOM     11  C   UNL     1       2.631   6.670  18.701  0.00  0.00    +0.000 A 
ATOM     12  C   UNL     1       2.543   7.941  18.158  0.00  0.00    +0.000 A 
ATOM     13  C   UNL     1       3.310   5.469  18.164  0.00  0.00    +0.000 C 
ATOM     14  O   UNL     1       3.885   5.389  17.097  0.00  0.00    +0.000 OA
ATOM     15  C   UNL     1       3.167   4.406  19.185  0.00  0.00    +0.000 A 
ATOM     16  C   UNL     1       3.679   3.123  19.196  0.00  0.00    +0.000 A 
ATOM     17  C   UNL     1       3.427   2.348  20.331  0.00  0.00    +0.000 A 
ATOM     18  C   UNL     1       2.674   2.864  21.404  0.00  0.00    +0.000 A 
ATOM     19  C   UNL     1       2.162   4.166  21.366  0.00  0.00    +0.000 A 
ATOM     20  C   UNL     1       2.419   4.940  20.247  0.00  0.00    +0.000 A 
ENDBRANCH   4   7
ENDBRANCH   1   3
BRANCH   1  21
ATOM     21  N   UNL     1       1.552  13.367  18.914  0.00  0.00    +0.000 N 
ATOM     22  H   UNL     1       2.003  13.397  17.998  0.00  0.00    +0.000 HD
BRANCH  21  23
ATOM     23  C   UNL     1       1.871  14.459  19.827  0.00  0.00    +0.000 C 
BRANCH  23  24
ATOM     24  C   UNL     1       3.310  14.396  20.339  0.00  0.00    +0.000 C 
BRANCH  24  25
ATOM     25  O   UNL     1       4.237  14.626  19.268  0.00  0.00    +0.000 OA
BRANCH  25  26
ATOM     26  C   UNL     1       5.519  14.997  19.792  0.00  0.00    +0.000 C 
BRANCH  26  27
ATOM     27  C   UNL     1       6.531  15.200  18.654  0.00  0.00    +0.000 C 
BRANCH  27  29
ATOM     28  C   UNL     1       8.286  16.729  19.251  0.00  0.00    +0.000 C 
ATOM     29  N   UNL     1       7.936  15.309  19.105  0.00  0.00    +0.000 NA
BRANCH  29  30
ATOM     30  C   UNL     1       8.865  14.626  18.181  0.00  0.00    +0.000 C 
BRANCH  30  31
ATOM     31  C   UNL     1       9.228  13.224  18.623  0.00  0.00    +0.000 A 
ATOM     32  C   UNL     1       8.826  12.113  17.865  0.00  0.00    +0.000 A 
ATOM     33  C   UNL     1       9.096  10.820  18.312  0.00  0.00    +0.000 A 
ATOM     34  C   UNL     1       9.777  10.625  19.512  0.00  0.00    +0.000 A 
ATOM     35  C   UNL     1      10.211  11.722  20.254  0.00  0.00    +0.000 A 
ATOM     36  C   UNL     1       9.943  13.017  19.809  0.00  0.00    +0.000 A 
ENDBRANCH  30  31
ENDBRANCH  29  30
ENDBRANCH  27  29
ENDBRANCH  26  27
ENDBRANCH  25  26
ENDBRANCH  24  25
ENDBRANCH  23  24
ENDBRANCH  21  23
ENDBRANCH   1  21
TORSDOF 11
ENDMDL
MODEL 4
REMARK VINA RESULT:      -7.0      4.954     11.390
REMARK  Name = 
REMARK  12 active torsions:
REMARK  status: ('A' for Active; 'I' for Inactive)
REMARK    1  A    between atoms: C_1  and  N_2
REMARK    2  A    between atoms: N_2  and  C_3
REMARK    3  A    between atoms: N_2  and  C_28
REMARK    4  A    between atoms: C_3  and  C_4
REMARK    5  A    between atoms: C_4  and  O_5
REMARK    6  A    between atoms: O_5  and  C_6
REMARK    7  A    between atoms: C_6  and  C_7
REMARK    8  A    between atoms: C_7  and  N_8
REMARK    9  A    between atoms: N_8  and  C_9
REMARK   10  A    between atoms: C_9  and  N_11
REMARK   11  A    between atoms: C_12  and  C_14
REMARK   12  A    between atoms: C_28  and  C_29
REMARK                            x       y       z     vdW  Elec       q    Type
REMARK                         _______ _______ _______ _____ _____    ______ ____
ROOT
ATOM      1  C   UNL     1      -1.538  11.638  19.558  0.00  0.00    +0.000 C 
ATOM      2  S   UNL     1      -1.919  12.151  21.102  0.00  0.00    +0.000 S 
ENDROOT
BRANCH   1   3
ATOM      3  N   UNL     1      -0.701  10.546  19.425  0.00  0.00    +0.000 N 
ATOM      4  C   UNL     1       0.577  10.388  19.941  0.00  0.00    +0.000 C 
ATOM      5  O   UNL     1       1.112  11.197  20.694  0.00  0.00    +0.000 OA
ATOM      6  H   UNL     1      -1.074   9.842  18.802  0.00  0.00    +0.000 HD
BRANCH   4   7
ATOM      7  C   UNL     1       1.357   9.199  19.501  0.00  0.00    +0.000 A 
ATOM      8  C   UNL     1       1.993   9.304  18.238  0.00  0.00    +0.000 A 
ATOM      9  C   UNL     1       2.712   8.239  17.688  0.00  0.00    +0.000 A 
ATOM     10  C   UNL     1       2.791   7.068  18.413  0.00  0.00    +0.000 A 
ATOM     11  C   UNL     1       2.184   6.990  19.679  0.00  0.00    +0.000 A 
ATOM     12  C   UNL     1       1.468   8.027  20.255  0.00  0.00    +0.000 A 
ATOM     13  C   UNL     1       2.430   5.624  20.198  0.00  0.00    +0.000 C 
ATOM     14  O   UNL     1       2.068   5.190  21.272  0.00  0.00    +0.000 OA
ATOM     15  C   UNL     1       3.179   4.899  19.146  0.00  0.00    +0.000 A 
ATOM     16  C   UNL     1       3.590   3.580  19.110  0.00  0.00    +0.000 A 
ATOM     17  C   UNL     1       4.239   3.148  17.951  0.00  0.00    +0.000 A 
ATOM     18  C   UNL     1       4.465   4.033  16.878  0.00  0.00    +0.000 A 
ATOM     19  C   UNL     1       4.043   5.366  16.941  0.00  0.00    +0.000 A 
ATOM     20  C   UNL     1       3.390   5.794  18.085  0.00  0.00    +0.000 A 
ENDBRANCH   4   7
ENDBRANCH   1   3
BRANCH   1  21
ATOM     21  N   UNL     1      -1.982  12.202  18.397  0.00  0.00    +0.000 N 
ATOM     22  H   UNL     1      -1.738  13.184  18.259  0.00  0.00    +0.000 HD
BRANCH  21  23
ATOM     23  C   UNL     1      -2.539  11.505  17.243  0.00  0.00    +0.000 C 
BRANCH  23  24
ATOM     24  C   UNL     1      -3.890  10.855  17.545  0.00  0.00    +0.000 C 
BRANCH  24  25
ATOM     25  O   UNL     1      -4.960  11.639  16.996  0.00  0.00    +0.000 OA
BRANCH  25  26
ATOM     26  C   UNL     1      -6.008  11.792  17.961  0.00  0.00    +0.000 C 
BRANCH  26  27
ATOM     27  C   UNL     1      -5.536  12.661  19.138  0.00  0.00    +0.000 C 
BRANCH  27  29
ATOM     28  C   UNL     1      -6.964  11.124  20.311  0.00  0.00    +0.000 C 
ATOM     29  N   UNL     1      -5.904  12.129  20.470  0.00  0.00    +0.000 NA
BRANCH  29  30
ATOM     30  C   UNL     1      -6.325  13.202  21.393  0.00  0.00    +0.000 C 
BRANCH  30  31
ATOM     31  C   UNL     1      -5.278  13.542  22.434  0.00  0.00    +0.000 A 
ATOM     32  C   UNL     1      -4.544  14.735  22.340  0.00  0.00    +0.000 A 
ATOM     33  C   UNL     1      -3.529  15.012  23.255  0.00  0.00    +0.000 A 
ATOM     34  C   UNL     1      -3.246  14.107  24.276  0.00  0.00    +0.000 A 
ATOM     35  C   UNL     1      -3.992  12.937  24.399  0.00  0.00    +0.000 A 
ATOM     36  C   UNL     1      -5.008  12.657  23.485  0.00  0.00    +0.000 A 
ENDBRANCH  30  31
ENDBRANCH  29  30
ENDBRANCH  27  29
ENDBRANCH  26  27
ENDBRANCH  25  26
ENDBRANCH  24  25
ENDBRANCH  23  24
ENDBRANCH  21  23
ENDBRANCH   1  21
TORSDOF 11
ENDMDL
MODEL 5
REMARK VINA RESULT:      -7.0      4.738     10.358
REMARK  Name = 
REMARK  12 active torsions:
REMARK  status: ('A' for Active; 'I' for Inactive)
REMARK    1  A    between atoms: C_1  and  N_2
REMARK    2  A    between atoms: N_2  and  C_3
REMARK    3  A    between atoms: N_2  and  C_28
REMARK    4  A    between atoms: C_3  and  C_4
REMARK    5  A    between atoms: C_4  and  O_5
REMARK    6  A    between atoms: O_5  and  C_6
REMARK    7  A    between atoms: C_6  and  C_7
REMARK    8  A    between atoms: C_7  and  N_8
REMARK    9  A    between atoms: N_8  and  C_9
REMARK   10  A    between atoms: C_9  and  N_11
REMARK   11  A    between atoms: C_12  and  C_14
REMARK   12  A    between atoms: C_28  and  C_29
REMARK                            x       y       z     vdW  Elec       q    Type
REMARK                         _______ _______ _______ _____ _____    ______ ____
ROOT
ATOM      1  C   UNL     1      -0.425  11.071  21.595  0.00  0.00    +0.000 C 
ATOM      2  S   UNL     1      -1.323  11.069  23.004  0.00  0.00    +0.000 S 
ENDROOT
BRANCH   1   3
ATOM      3  N   UNL     1       0.031   9.858  21.113  0.00  0.00    +0.000 N 
ATOM      4  C   UNL     1       1.111   9.116  21.570  0.00  0.00    +0.000 C 
ATOM      5  O   UNL     1       1.768   9.411  22.564  0.00  0.00    +0.000 OA
ATOM      6  H   UNL     1      -0.458   9.560  20.281  0.00  0.00    +0.000 HD
BRANCH   4   7
ATOM      7  C   UNL     1       1.524   7.934  20.766  0.00  0.00    +0.000 A 
ATOM      8  C   UNL     1       1.096   6.671  21.248  0.00  0.00    +0.000 A 
ATOM      9  C   UNL     1       1.461   5.481  20.614  0.00  0.00    +0.000 A 
ATOM     10  C   UNL     1       2.257   5.563  19.490  0.00  0.00    +0.000 A 
ATOM     11  C   UNL     1       2.646   6.824  19.003  0.00  0.00    +0.000 A 
ATOM     12  C   UNL     1       2.300   8.022  19.606  0.00  0.00    +0.000 A 
ATOM     13  C   UNL     1       3.492   6.589  17.810  0.00  0.00    +0.000 C 
ATOM     14  O   UNL     1       4.001   7.444  17.113  0.00  0.00    +0.000 OA
ATOM     15  C   UNL     1       3.606   5.121  17.653  0.00  0.00    +0.000 A 
ATOM     16  C   UNL     1       4.337   4.389  16.736  0.00  0.00    +0.000 A 
ATOM     17  C   UNL     1       4.301   2.998  16.860  0.00  0.00    +0.000 A 
ATOM     18  C   UNL     1       3.540   2.384  17.874  0.00  0.00    +0.000 A 
ATOM     19  C   UNL     1       2.804   3.148  18.787  0.00  0.00    +0.000 A 
ATOM     20  C   UNL     1       2.846   4.527  18.673  0.00  0.00    +0.000 A 
ENDBRANCH   4   7
ENDBRANCH   1   3
BRANCH   1  21
ATOM     21  N   UNL     1      -0.095  12.173  20.860  0.00  0.00    +0.000 N 
ATOM     22  H   UNL     1       0.371  12.925  21.372  0.00  0.00    +0.000 HD
BRANCH  21  23
ATOM     23  C   UNL     1      -0.109  12.292  19.406  0.00  0.00    +0.000 C 
BRANCH  23  24
ATOM     24  C   UNL     1      -1.525  12.342  18.834  0.00  0.00    +0.000 C 
BRANCH  24  25
ATOM     25  O   UNL     1      -1.519  11.993  17.442  0.00  0.00    +0.000 OA
BRANCH  25  26
ATOM     26  C   UNL     1      -1.717  10.582  17.284  0.00  0.00    +0.000 C 
BRANCH  26  27
ATOM     27  C   UNL     1      -3.132  10.181  17.728  0.00  0.00    +0.000 C 
BRANCH  27  29
ATOM     28  C   UNL     1      -3.576  10.535  15.393  0.00  0.00    +0.000 C 
ATOM     29  N   UNL     1      -4.186  10.468  16.729  0.00  0.00    +0.000 NA
BRANCH  29  30
ATOM     30  C   UNL     1      -4.914  11.714  17.042  0.00  0.00    +0.000 C 
BRANCH  30  31
ATOM     31  C   UNL     1      -5.607  11.681  18.389  0.00  0.00    +0.000 A 
ATOM     32  C   UNL     1      -6.593  10.719  18.657  0.00  0.00    +0.000 A 
ATOM     33  C   UNL     1      -7.284  10.734  19.868  0.00  0.00    +0.000 A 
ATOM     34  C   UNL     1      -6.988  11.703  20.826  0.00  0.00    +0.000 A 
ATOM     35  C   UNL     1      -5.986  12.641  20.583  0.00  0.00    +0.000 A 
ATOM     36  C   UNL     1      -5.294  12.627  19.373  0.00  0.00    +0.000 A 
ENDBRANCH  30  31
ENDBRANCH  29  30
ENDBRANCH  27  29
ENDBRANCH  26  27
ENDBRANCH  25  26
ENDBRANCH  24  25
ENDBRANCH  23  24
ENDBRANCH  21  23
ENDBRANCH   1  21
TORSDOF 11
ENDMDL
MODEL 6
REMARK VINA RESULT:      -7.0      4.033      5.487
REMARK  Name = 
REMARK  12 active torsions:
REMARK  status: ('A' for Active; 'I' for Inactive)
REMARK    1  A    between atoms: C_1  and  N_2
REMARK    2  A    between atoms: N_2  and  C_3
REMARK    3  A    between atoms: N_2  and  C_28
REMARK    4  A    between atoms: C_3  and  C_4
REMARK    5  A    between atoms: C_4  and  O_5
REMARK    6  A    between atoms: O_5  and  C_6
REMARK    7  A    between atoms: C_6  and  C_7
REMARK    8  A    between atoms: C_7  and  N_8
REMARK    9  A    between atoms: N_8  and  C_9
REMARK   10  A    between atoms: C_9  and  N_11
REMARK   11  A    between atoms: C_12  and  C_14
REMARK   12  A    between atoms: C_28  and  C_29
REMARK                            x       y       z     vdW  Elec       q    Type
REMARK                         _______ _______ _______ _____ _____    ______ ____
ROOT
ATOM      1  C   UNL     1       4.034   4.790  17.667  0.00  0.00    +0.000 C 
ATOM      2  S   UNL     1       3.087   3.430  17.451  0.00  0.00    +0.000 S 
ENDROOT
BRANCH   1   3
ATOM      3  N   UNL     1       3.423   5.940  18.132  0.00  0.00    +0.000 N 
ATOM      4  C   UNL     1       2.931   6.183  19.407  0.00  0.00    +0.000 C 
ATOM      5  O   UNL     1       3.067   5.407  20.348  0.00  0.00    +0.000 OA
ATOM      6  H   UNL     1       3.265   6.621  17.403  0.00  0.00    +0.000 HD
BRANCH   4   7
ATOM      7  C   UNL     1       2.143   7.427  19.616  0.00  0.00    +0.000 A 
ATOM      8  C   UNL     1       1.985   8.263  18.481  0.00  0.00    +0.000 A 
ATOM      9  C   UNL     1       1.311   9.485  18.557  0.00  0.00    +0.000 A 
ATOM     10  C   UNL     1       0.792   9.863  19.778  0.00  0.00    +0.000 A 
ATOM     11  C   UNL     1       0.926   9.009  20.888  0.00  0.00    +0.000 A 
ATOM     12  C   UNL     1       1.585   7.791  20.845  0.00  0.00    +0.000 A 
ATOM     13  C   UNL     1       0.286   9.685  22.039  0.00  0.00    +0.000 C 
ATOM     14  O   UNL     1       0.193   9.245  23.167  0.00  0.00    +0.000 OA
ATOM     15  C   UNL     1      -0.191  10.998  21.549  0.00  0.00    +0.000 A 
ATOM     16  C   UNL     1      -0.794  12.030  22.244  0.00  0.00    +0.000 A 
ATOM     17  C   UNL     1      -1.092  13.190  21.526  0.00  0.00    +0.000 A 
ATOM     18  C   UNL     1      -0.793  13.286  20.153  0.00  0.00    +0.000 A 
ATOM     19  C   UNL     1      -0.187  12.224  19.471  0.00  0.00    +0.000 A 
ATOM     20  C   UNL     1       0.119  11.076  20.182  0.00  0.00    +0.000 A 
ENDBRANCH   4   7
ENDBRANCH   1   3
BRANCH   1  21
ATOM     21  N   UNL     1       5.375   4.875  17.427  0.00  0.00    +0.000 N 
ATOM     22  H   UNL     1       5.734   4.267  16.689  0.00  0.00    +0.000 HD
BRANCH  21  23
ATOM     23  C   UNL     1       6.290   5.896  17.925  0.00  0.00    +0.000 C 
BRANCH  23  24
ATOM     24  C   UNL     1       6.822   6.802  16.815  0.00  0.00    +0.000 C 
BRANCH  24  25
ATOM     25  O   UNL     1       8.045   7.434  17.222  0.00  0.00    +0.000 OA
BRANCH  25  26
ATOM     26  C   UNL     1       7.799   8.796  17.593  0.00  0.00    +0.000 C 
BRANCH  26  27
ATOM     27  C   UNL     1       8.632   9.180  18.826  0.00  0.00    +0.000 C 
BRANCH  27  29
ATOM     28  C   UNL     1       9.800  10.941  19.971  0.00  0.00    +0.000 C 
ATOM     29  N   UNL     1       9.447  10.403  18.650  0.00  0.00    +0.000 NA
BRANCH  29  30
ATOM     30  C   UNL     1       8.746  11.417  17.835  0.00  0.00    +0.000 C 
BRANCH  30  31
ATOM     31  C   UNL     1       9.500  12.726  17.730  0.00  0.00    +0.000 A 
ATOM     32  C   UNL     1       8.959  13.903  18.271  0.00  0.00    +0.000 A 
ATOM     33  C   UNL     1       9.617  15.122  18.108  0.00  0.00    +0.000 A 
ATOM     34  C   UNL     1      10.825  15.174  17.415  0.00  0.00    +0.000 A 
ATOM     35  C   UNL     1      11.388  14.005  16.905  0.00  0.00    +0.000 A 
ATOM     36  C   UNL     1      10.732  12.785  17.066  0.00  0.00    +0.000 A 
ENDBRANCH  30  31
ENDBRANCH  29  30
ENDBRANCH  27  29
ENDBRANCH  26  27
ENDBRANCH  25  26
ENDBRANCH  24  25
ENDBRANCH  23  24
ENDBRANCH  21  23
ENDBRANCH   1  21
TORSDOF 11
ENDMDL
MODEL 7
REMARK VINA RESULT:      -6.9      4.694      6.153
REMARK  Name = 
REMARK  12 active torsions:
REMARK  status: ('A' for Active; 'I' for Inactive)
REMARK    1  A    between atoms: C_1  and  N_2
REMARK    2  A    between atoms: N_2  and  C_3
REMARK    3  A    between atoms: N_2  and  C_28
REMARK    4  A    between atoms: C_3  and  C_4
REMARK    5  A    between atoms: C_4  and  O_5
REMARK    6  A    between atoms: O_5  and  C_6
REMARK    7  A    between atoms: C_6  and  C_7
REMARK    8  A    between atoms: C_7  and  N_8
REMARK    9  A    between atoms: N_8  and  C_9
REMARK   10  A    between atoms: C_9  and  N_11
REMARK   11  A    between atoms: C_12  and  C_14
REMARK   12  A    between atoms: C_28  and  C_29
REMARK                            x       y       z     vdW  Elec       q    Type
REMARK                         _______ _______ _______ _____ _____    ______ ____
ROOT
ATOM      1  C   UNL     1       5.474   5.885  17.368  0.00  0.00    +0.000 C 
ATOM      2  S   UNL     1       5.160   5.162  15.895  0.00  0.00    +0.000 S 
ENDROOT
BRANCH   1   3
ATOM      3  N   UNL     1       4.530   6.756  17.879  0.00  0.00    +0.000 N 
ATOM      4  C   UNL     1       3.397   6.441  18.618  0.00  0.00    +0.000 C 
ATOM      5  O   UNL     1       3.131   5.308  19.006  0.00  0.00    +0.000 OA
ATOM      6  H   UNL     1       4.679   7.711  17.585  0.00  0.00    +0.000 HD
BRANCH   4   7
ATOM      7  C   UNL     1       2.428   7.536  18.893  0.00  0.00    +0.000 A 
ATOM      8  C   UNL     1       2.071   8.345  17.785  0.00  0.00    +0.000 A 
ATOM      9  C   UNL     1       1.210   9.438  17.921  0.00  0.00    +0.000 A 
ATOM     10  C   UNL     1       0.707   9.714  19.176  0.00  0.00    +0.000 A 
ATOM     11  C   UNL     1       1.043   8.882  20.260  0.00  0.00    +0.000 A 
ATOM     12  C   UNL     1       1.890   7.790  20.158  0.00  0.00    +0.000 A 
ATOM     13  C   UNL     1       0.367   9.433  21.458  0.00  0.00    +0.000 C 
ATOM     14  O   UNL     1       0.413   8.972  22.580  0.00  0.00    +0.000 OA
ATOM     15  C   UNL     1      -0.347  10.653  21.019  0.00  0.00    +0.000 A 
ATOM     16  C   UNL     1      -1.070  11.564  21.765  0.00  0.00    +0.000 A 
ATOM     17  C   UNL     1      -1.596  12.666  21.087  0.00  0.00    +0.000 A 
ATOM     18  C   UNL     1      -1.396  12.823  19.702  0.00  0.00    +0.000 A 
ATOM     19  C   UNL     1      -0.664  11.883  18.967  0.00  0.00    +0.000 A 
ATOM     20  C   UNL     1      -0.133  10.795  19.639  0.00  0.00    +0.000 A 
ENDBRANCH   4   7
ENDBRANCH   1   3
BRANCH   1  21
ATOM     21  N   UNL     1       6.590   5.693  18.130  0.00  0.00    +0.000 N 
ATOM     22  H   UNL     1       6.766   4.731  18.426  0.00  0.00    +0.000 HD
BRANCH  21  23
ATOM     23  C   UNL     1       7.672   6.646  18.354  0.00  0.00    +0.000 C 
BRANCH  23  24
ATOM     24  C   UNL     1       7.761   7.703  17.253  0.00  0.00    +0.000 C 
BRANCH  24  25
ATOM     25  O   UNL     1       7.681   9.022  17.814  0.00  0.00    +0.000 OA
BRANCH  25  26
ATOM     26  C   UNL     1       8.753   9.232  18.742  0.00  0.00    +0.000 C 
BRANCH  26  27
ATOM     27  C   UNL     1       9.254  10.683  18.672  0.00  0.00    +0.000 C 
BRANCH  27  29
ATOM     28  C   UNL     1       9.261  12.289  20.460  0.00  0.00    +0.000 C 
ATOM     29  N   UNL     1       9.969  11.137  19.886  0.00  0.00    +0.000 NA
BRANCH  29  30
ATOM     30  C   UNL     1      11.380  11.470  19.599  0.00  0.00    +0.000 C 
BRANCH  30  31
ATOM     31  C   UNL     1      11.541  12.720  18.760  0.00  0.00    +0.000 A 
ATOM     32  C   UNL     1      11.870  13.944  19.363  0.00  0.00    +0.000 A 
ATOM     33  C   UNL     1      11.945  15.109  18.601  0.00  0.00    +0.000 A 
ATOM     34  C   UNL     1      11.704  15.060  17.229  0.00  0.00    +0.000 A 
ATOM     35  C   UNL     1      11.411  13.844  16.615  0.00  0.00    +0.000 A 
ATOM     36  C   UNL     1      11.336  12.677  17.375  0.00  0.00    +0.000 A 
ENDBRANCH  30  31
ENDBRANCH  29  30
ENDBRANCH  27  29
ENDBRANCH  26  27
ENDBRANCH  25  26
ENDBRANCH  24  25
ENDBRANCH  23  24
ENDBRANCH  21  23
ENDBRANCH   1  21
TORSDOF 11
ENDMDL
MODEL 8
REMARK VINA RESULT:      -6.9      4.470      6.463
REMARK  Name = 
REMARK  12 active torsions:
REMARK  status: ('A' for Active; 'I' for Inactive)
REMARK    1  A    between atoms: C_1  and  N_2
REMARK    2  A    between atoms: N_2  and  C_3
REMARK    3  A    between atoms: N_2  and  C_28
REMARK    4  A    between atoms: C_3  and  C_4
REMARK    5  A    between atoms: C_4  and  O_5
REMARK    6  A    between atoms: O_5  and  C_6
REMARK    7  A    between atoms: C_6  and  C_7
REMARK    8  A    between atoms: C_7  and  N_8
REMARK    9  A    between atoms: N_8  and  C_9
REMARK   10  A    between atoms: C_9  and  N_11
REMARK   11  A    between atoms: C_12  and  C_14
REMARK   12  A    between atoms: C_28  and  C_29
REMARK                            x       y       z     vdW  Elec       q    Type
REMARK                         _______ _______ _______ _____ _____    ______ ____
ROOT
ATOM      1  C   UNL     1       0.891   8.628  21.225  0.00  0.00    +0.000 C 
ATOM      2  S   UNL     1       1.690   9.288  22.536  0.00  0.00    +0.000 S 
ENDROOT
BRANCH   1   3
ATOM      3  N   UNL     1      -0.203   9.306  20.722  0.00  0.00    +0.000 N 
ATOM      4  C   UNL     1      -0.211  10.309  19.762  0.00  0.00    +0.000 C 
ATOM      5  O   UNL     1       0.787  10.669  19.145  0.00  0.00    +0.000 OA
ATOM      6  H   UNL     1      -1.063   9.069  21.197  0.00  0.00    +0.000 HD
BRANCH   4   7
ATOM      7  C   UNL     1      -1.495  11.022  19.522  0.00  0.00    +0.000 A 
ATOM      8  C   UNL     1      -1.906  11.923  20.537  0.00  0.00    +0.000 A 
ATOM      9  C   UNL     1      -3.117  12.616  20.457  0.00  0.00    +0.000 A 
ATOM     10  C   UNL     1      -3.914  12.402  19.351  0.00  0.00    +0.000 A 
ATOM     11  C   UNL     1      -3.478  11.531  18.335  0.00  0.00    +0.000 A 
ATOM     12  C   UNL     1      -2.282  10.832  18.382  0.00  0.00    +0.000 A 
ATOM     13  C   UNL     1      -4.538  11.501  17.301  0.00  0.00    +0.000 C 
ATOM     14  O   UNL     1      -4.509  10.867  16.266  0.00  0.00    +0.000 OA
ATOM     15  C   UNL     1      -5.633  12.370  17.789  0.00  0.00    +0.000 A 
ATOM     16  C   UNL     1      -6.870  12.624  17.228  0.00  0.00    +0.000 A 
ATOM     17  C   UNL     1      -7.735  13.453  17.946  0.00  0.00    +0.000 A 
ATOM     18  C   UNL     1      -7.344  14.005  19.182  0.00  0.00    +0.000 A 
ATOM     19  C   UNL     1      -6.083  13.737  19.726  0.00  0.00    +0.000 A 
ATOM     20  C   UNL     1      -5.227  12.907  19.022  0.00  0.00    +0.000 A 
ENDBRANCH   4   7
ENDBRANCH   1   3
BRANCH   1  21
ATOM     21  N   UNL     1       1.222   7.465  20.592  0.00  0.00    +0.000 N 
ATOM     22  H   UNL     1       0.460   6.799  20.457  0.00  0.00    +0.000 HD
BRANCH  21  23
ATOM     23  C   UNL     1       2.463   7.180  19.878  0.00  0.00    +0.000 C 
BRANCH  23  24
ATOM     24  C   UNL     1       2.362   7.476  18.382  0.00  0.00    +0.000 C 
BRANCH  24  25
ATOM     25  O   UNL     1       3.657   7.772  17.838  0.00  0.00    +0.000 OA
BRANCH  25  26
ATOM     26  C   UNL     1       4.153   6.649  17.099  0.00  0.00    +0.000 C 
BRANCH  26  27
ATOM     27  C   UNL     1       4.887   5.670  18.029  0.00  0.00    +0.000 C 
BRANCH  27  29
ATOM     28  C   UNL     1       5.634   4.169  16.307  0.00  0.00    +0.000 C 
ATOM     29  N   UNL     1       4.875   4.266  17.561  0.00  0.00    +0.000 NA
BRANCH  29  30
ATOM     30  C   UNL     1       3.499   3.757  17.389  0.00  0.00    +0.000 C 
BRANCH  30  31
ATOM     31  C   UNL     1       2.788   3.497  18.701  0.00  0.00    +0.000 A 
ATOM     32  C   UNL     1       1.446   3.874  18.869  0.00  0.00    +0.000 A 
ATOM     33  C   UNL     1       0.814   3.702  20.100  0.00  0.00    +0.000 A 
ATOM     34  C   UNL     1       1.512   3.144  21.169  0.00  0.00    +0.000 A 
ATOM     35  C   UNL     1       2.834   2.734  21.002  0.00  0.00    +0.000 A 
ATOM     36  C   UNL     1       3.468   2.904  19.772  0.00  0.00    +0.000 A 
ENDBRANCH  30  31
ENDBRANCH  29  30
ENDBRANCH  27  29
ENDBRANCH  26  27
ENDBRANCH  25  26
ENDBRANCH  24  25
ENDBRANCH  23  24
ENDBRANCH  21  23
ENDBRANCH   1  21
TORSDOF 11
ENDMDL
MODEL 9
REMARK VINA RESULT:      -6.9      4.076      5.701
REMARK  Name = 
REMARK  12 active torsions:
REMARK  status: ('A' for Active; 'I' for Inactive)
REMARK    1  A    between atoms: C_1  and  N_2
REMARK    2  A    between atoms: N_2  and  C_3
REMARK    3  A    between atoms: N_2  and  C_28
REMARK    4  A    between atoms: C_3  and  C_4
REMARK    5  A    between atoms: C_4  and  O_5
REMARK    6  A    between atoms: O_5  and  C_6
REMARK    7  A    between atoms: C_6  and  C_7
REMARK    8  A    between atoms: C_7  and  N_8
REMARK    9  A    between atoms: N_8  and  C_9
REMARK   10  A    between atoms: C_9  and  N_11
REMARK   11  A    between atoms: C_12  and  C_14
REMARK   12  A    between atoms: C_28  and  C_29
REMARK                            x       y       z     vdW  Elec       q    Type
REMARK                         _______ _______ _______ _____ _____    ______ ____
ROOT
ATOM      1  C   UNL     1       1.835   8.299  19.134  0.00  0.00    +0.000 C 
ATOM      2  S   UNL     1       2.871   8.155  17.831  0.00  0.00    +0.000 S 
ENDROOT
BRANCH   1   3
ATOM      3  N   UNL     1       0.687   9.051  18.971  0.00  0.00    +0.000 N 
ATOM      4  C   UNL     1       0.562  10.432  19.028  0.00  0.00    +0.000 C 
ATOM      5  O   UNL     1       1.514  11.197  19.142  0.00  0.00    +0.000 OA
ATOM      6  H   UNL     1      -0.144   8.482  18.886  0.00  0.00    +0.000 HD
BRANCH   4   7
ATOM      7  C   UNL     1      -0.813  11.001  19.013  0.00  0.00    +0.000 A 
ATOM      8  C   UNL     1      -1.192  11.747  20.158  0.00  0.00    +0.000 A 
ATOM      9  C   UNL     1      -2.473  12.289  20.290  0.00  0.00    +0.000 A 
ATOM     10  C   UNL     1      -3.373  12.081  19.265  0.00  0.00    +0.000 A 
ATOM     11  C   UNL     1      -2.973  11.369  18.120  0.00  0.00    +0.000 A 
ATOM     12  C   UNL     1      -1.711  10.822  17.956  0.00  0.00    +0.000 A 
ATOM     13  C   UNL     1      -4.144  11.304  17.215  0.00  0.00    +0.000 C 
ATOM     14  O   UNL     1      -4.175  10.777  16.121  0.00  0.00    +0.000 OA
ATOM     15  C   UNL     1      -5.260  11.982  17.914  0.00  0.00    +0.000 A 
ATOM     16  C   UNL     1      -6.578  12.133  17.527  0.00  0.00    +0.000 A 
ATOM     17  C   UNL     1      -7.433  12.779  18.423  0.00  0.00    +0.000 A 
ATOM     18  C   UNL     1      -6.955  13.258  19.659  0.00  0.00    +0.000 A 
ATOM     19  C   UNL     1      -5.613  13.098  20.025  0.00  0.00    +0.000 A 
ATOM     20  C   UNL     1      -4.766  12.448  19.143  0.00  0.00    +0.000 A 
ENDBRANCH   4   7
ENDBRANCH   1   3
BRANCH   1  21
ATOM     21  N   UNL     1       2.015   7.734  20.363  0.00  0.00    +0.000 N 
ATOM     22  H   UNL     1       2.536   8.295  21.038  0.00  0.00    +0.000 HD
BRANCH  21  23
ATOM     23  C   UNL     1       1.346   6.548  20.888  0.00  0.00    +0.000 C 
BRANCH  23  24
ATOM     24  C   UNL     1       2.290   5.353  21.027  0.00  0.00    +0.000 C 
BRANCH  24  25
ATOM     25  O   UNL     1       1.566   4.121  20.893  0.00  0.00    +0.000 OA
BRANCH  25  26
ATOM     26  C   UNL     1       2.020   3.403  19.739  0.00  0.00    +0.000 C 
BRANCH  26  27
ATOM     27  C   UNL     1       3.443   3.838  19.355  0.00  0.00    +0.000 C 
BRANCH  27  29
ATOM     28  C   UNL     1       2.569   3.580  17.131  0.00  0.00    +0.000 C 
ATOM     29  N   UNL     1       3.588   4.260  17.944  0.00  0.00    +0.000 NA
BRANCH  29  30
ATOM     30  C   UNL     1       4.945   3.990  17.427  0.00  0.00    +0.000 C 
BRANCH  30  31
ATOM     31  C   UNL     1       5.937   5.089  17.747  0.00  0.00    +0.000 A 
ATOM     32  C   UNL     1       6.034   6.221  16.923  0.00  0.00    +0.000 A 
ATOM     33  C   UNL     1       6.999   7.196  17.175  0.00  0.00    +0.000 A 
ATOM     34  C   UNL     1       7.865   7.055  18.257  0.00  0.00    +0.000 A 
ATOM     35  C   UNL     1       7.753   5.952  19.102  0.00  0.00    +0.000 A 
ATOM     36  C   UNL     1       6.790   4.976  18.852  0.00  0.00    +0.000 A 
ENDBRANCH  30  31
ENDBRANCH  29  30
ENDBRANCH  27  29
ENDBRANCH  26  27
ENDBRANCH  25  26
ENDBRANCH  24  25
ENDBRANCH  23  24
ENDBRANCH  21  23
ENDBRANCH   1  21
TORSDOF 11
ENDMDL
