MODEL 1
REMARK VINA RESULT:      -7.9      0.000      0.000
REMARK  Name = 
REMARK  5 active torsions:
REMARK  status: ('A' for Active; 'I' for Inactive)
REMARK    1  A    between atoms: C_1  and  C_2
REMARK    2  A    between atoms: C_5  and  C_6
REMARK    3  A    between atoms: C_7  and  C_8
REMARK    4  A    between atoms: C_14  and  O_15
REMARK    5  A    between atoms: C_14  and  C_16
REMARK                            x       y       z     vdW  Elec       q    Type
REMARK                         _______ _______ _______ _____ _____    ______ ____
ROOT
ATOM      1  C   UNL     1       4.549   5.400  16.825  0.00  0.00    +0.000 A 
ATOM      2  C   UNL     1       3.884   6.511  17.390  0.00  0.00    +0.000 A 
ATOM      3  C   UNL     1       2.714   6.360  18.146  0.00  0.00    +0.000 A 
ATOM      4  C   UNL     1       2.261   5.079  18.371  0.00  0.00    +0.000 A 
ATOM      5  C   UNL     1       2.908   3.966  17.846  0.00  0.00    +0.000 A 
ATOM      6  C   UNL     1       4.010   4.119  17.023  0.00  0.00    +0.000 A 
ATOM      7  C   UNL     1       2.271   2.696  18.375  0.00  0.00    +0.000 C 
ATOM      8  C   UNL     1       1.040   3.299  19.159  0.00  0.00    +0.000 C 
ATOM      9  O   UNL     1       0.134   2.701  19.717  0.00  0.00    +0.000 OA
ATOM     10  N   UNL     1       1.165   4.688  19.118  0.00  0.00    +0.000 N 
ATOM     11  H   UNL     1       0.509   5.304  19.575  0.00  0.00    +0.000 HD
ENDROOT
BRANCH   1  18
ATOM     12  C   UNL     1       5.484   4.140  13.904  0.00  0.00    +0.000 C 
ATOM     13  C   UNL     1       6.228   5.004  14.855  0.00  0.00    +0.000 A 
ATOM     14  N   UNL     1       7.487   5.348  14.563  0.00  0.00    +0.000 NA
ATOM     15  O   UNL     1       7.936   6.078  15.638  0.00  0.00    +0.000 OA
ATOM     16  C   UNL     1       6.956   6.180  16.576  0.00  0.00    +0.000 A 
ATOM     17  C   UNL     1       7.345   6.930  17.788  0.00  0.00    +0.000 C 
ATOM     18  C   UNL     1       5.821   5.532  16.123  0.00  0.00    +0.000 A 
ENDBRANCH   1  18
BRANCH   7  19
ATOM     19  C   UNL     1       3.292   1.978  19.265  0.00  0.00    +0.000 C 
ATOM     20  C   UNL     1       4.763   2.486  19.337  0.00  0.00    +0.000 C 
ATOM     21  C   UNL     1       4.767   2.059  20.818  0.00  0.00    +0.000 C 
ATOM     22  C   UNL     1       3.232   2.200  20.802  0.00  0.00    +0.000 C 
ENDBRANCH   7  19
BRANCH   7  23
ATOM     23  O   UNL     1       1.931   1.822  17.311  0.00  0.00    +0.000 OA
ATOM     24  H   UNL     1       1.374   1.108  17.660  0.00  0.00    +0.000 HD
ENDBRANCH   7  23
TORSDOF 3
ENDMDL
MODEL 2
REMARK VINA RESULT:      -7.8      2.449      5.903
REMARK  Name = 
REMARK  5 active torsions:
REMARK  status: ('A' for Active; 'I' for Inactive)
REMARK    1  A    between atoms: C_1  and  C_2
REMARK    2  A    between atoms: C_5  and  C_6
REMARK    3  A    between atoms: C_7  and  C_8
REMARK    4  A    between atoms: C_14  and  O_15
REMARK    5  A    between atoms: C_14  and  C_16
REMARK                            x       y       z     vdW  Elec       q    Type
REMARK                         _______ _______ _______ _____ _____    ______ ____
ROOT
ATOM      1  C   UNL     1       3.154   5.282  18.322  0.00  0.00    +0.000 A 
ATOM      2  C   UNL     1       3.010   3.877  18.274  0.00  0.00    +0.000 A 
ATOM      3  C   UNL     1       3.737   3.095  17.367  0.00  0.00    +0.000 A 
ATOM      4  C   UNL     1       4.646   3.737  16.556  0.00  0.00    +0.000 A 
ATOM      5  C   UNL     1       4.825   5.115  16.597  0.00  0.00    +0.000 A 
ATOM      6  C   UNL     1       4.043   5.900  17.427  0.00  0.00    +0.000 A 
ATOM      7  C   UNL     1       5.982   5.517  15.704  0.00  0.00    +0.000 C 
ATOM      8  C   UNL     1       6.311   4.131  15.023  0.00  0.00    +0.000 C 
ATOM      9  O   UNL     1       7.120   3.898  14.139  0.00  0.00    +0.000 OA
ATOM     10  N   UNL     1       5.499   3.171  15.626  0.00  0.00    +0.000 N 
ATOM     11  H   UNL     1       5.542   2.193  15.380  0.00  0.00    +0.000 HD
ENDROOT
BRANCH   1  18
ATOM     12  C   UNL     1       2.392   8.508  18.252  0.00  0.00    +0.000 C 
ATOM     13  C   UNL     1       2.135   7.487  19.299  0.00  0.00    +0.000 A 
ATOM     14  N   UNL     1       1.526   7.862  20.429  0.00  0.00    +0.000 NA
ATOM     15  O   UNL     1       1.487   6.741  21.225  0.00  0.00    +0.000 OA
ATOM     16  C   UNL     1       2.066   5.692  20.583  0.00  0.00    +0.000 A 
ATOM     17  C   UNL     1       2.097   4.439  21.364  0.00  0.00    +0.000 C 
ATOM     18  C   UNL     1       2.482   6.097  19.327  0.00  0.00    +0.000 A 
ENDBRANCH   1  18
BRANCH   7  19
ATOM     19  C   UNL     1       7.108   6.065  16.589  0.00  0.00    +0.000 C 
ATOM     20  C   UNL     1       6.872   7.335  17.459  0.00  0.00    +0.000 C 
ATOM     21  C   UNL     1       7.797   6.701  18.517  0.00  0.00    +0.000 C 
ATOM     22  C   UNL     1       7.445   5.326  17.914  0.00  0.00    +0.000 C 
ENDBRANCH   7  19
BRANCH   7  23
ATOM     23  O   UNL     1       5.593   6.545  14.808  0.00  0.00    +0.000 OA
ATOM     24  H   UNL     1       5.758   7.404  15.229  0.00  0.00    +0.000 HD
ENDBRANCH   7  23
TORSDOF 3
ENDMDL
MODEL 3
REMARK VINA RESULT:      -7.8      3.866      6.489
REMARK  Name = 
REMARK  5 active torsions:
REMARK  status: ('A' for Active; 'I' for Inactive)
REMARK    1  A    between atoms: C_1  and  C_2
REMARK    2  A    between atoms: C_5  and  C_6
REMARK    3  A    between atoms: C_7  and  C_8
REMARK    4  A    between atoms: C_14  and  O_15
REMARK    5  A    between atoms: C_14  and  C_16
REMARK                            x       y       z     vdW  Elec       q    Type
REMARK                         _______ _______ _______ _____ _____    ______ ____
ROOT
ATOM      1  C   UNL     1       1.535   8.717  19.389  0.00  0.00    +0.000 A 
ATOM      2  C   UNL     1       2.125   9.072  18.155  0.00  0.00    +0.000 A 
ATOM      3  C   UNL     1       3.002   8.208  17.486  0.00  0.00    +0.000 A 
ATOM      4  C   UNL     1       3.229   6.970  18.044  0.00  0.00    +0.000 A 
ATOM      5  C   UNL     1       2.644   6.586  19.246  0.00  0.00    +0.000 A 
ATOM      6  C   UNL     1       1.850   7.471  19.954  0.00  0.00    +0.000 A 
ATOM      7  C   UNL     1       2.958   5.132  19.536  0.00  0.00    +0.000 C 
ATOM      8  C   UNL     1       3.967   4.819  18.363  0.00  0.00    +0.000 C 
ATOM      9  O   UNL     1       4.603   3.795  18.167  0.00  0.00    +0.000 OA
ATOM     10  N   UNL     1       4.012   5.946  17.544  0.00  0.00    +0.000 N 
ATOM     11  H   UNL     1       4.571   5.984  16.704  0.00  0.00    +0.000 HD
ENDROOT
BRANCH   1  18
ATOM     12  C   UNL     1       1.159   9.412  22.609  0.00  0.00    +0.000 C 
ATOM     13  C   UNL     1       0.382   9.879  21.433  0.00  0.00    +0.000 A 
ATOM     14  N   UNL     1      -0.663  10.690  21.631  0.00  0.00    +0.000 NA
ATOM     15  O   UNL     1      -1.220  10.897  20.391  0.00  0.00    +0.000 OA
ATOM     16  C   UNL     1      -0.517  10.217  19.445  0.00  0.00    +0.000 A 
ATOM     17  C   UNL     1      -1.049  10.353  18.074  0.00  0.00    +0.000 C 
ATOM     18  C   UNL     1       0.542   9.561  20.045  0.00  0.00    +0.000 A 
ENDBRANCH   1  18
BRANCH   7  19
ATOM     19  C   UNL     1       1.651   4.333  19.471  0.00  0.00    +0.000 C 
ATOM     20  C   UNL     1       1.238   3.612  18.154  0.00  0.00    +0.000 C 
ATOM     21  C   UNL     1       0.626   2.502  19.032  0.00  0.00    +0.000 C 
ATOM     22  C   UNL     1       1.593   2.937  20.151  0.00  0.00    +0.000 C 
ENDBRANCH   7  19
BRANCH   7  23
ATOM     23  O   UNL     1       3.494   4.984  20.841  0.00  0.00    +0.000 OA
ATOM     24  H   UNL     1       2.854   5.331  21.482  0.00  0.00    +0.000 HD
ENDBRANCH   7  23
TORSDOF 3
ENDMDL
MODEL 4
REMARK VINA RESULT:      -7.8      2.553      5.911
REMARK  Name = 
REMARK  5 active torsions:
REMARK  status: ('A' for Active; 'I' for Inactive)
REMARK    1  A    between atoms: C_1  and  C_2
REMARK    2  A    between atoms: C_5  and  C_6
REMARK    3  A    between atoms: C_7  and  C_8
REMARK    4  A    between atoms: C_14  and  O_15
REMARK    5  A    between atoms: C_14  and  C_16
REMARK                            x       y       z     vdW  Elec       q    Type
REMARK                         _______ _______ _______ _____ _____    ______ ____
ROOT
ATOM      1  C   UNL     1       3.157   5.410  18.294  0.00  0.00    +0.000 A 
ATOM      2  C   UNL     1       2.988   4.007  18.271  0.00  0.00    +0.000 A 
ATOM      3  C   UNL     1       3.708   3.195  17.385  0.00  0.00    +0.000 A 
ATOM      4  C   UNL     1       4.634   3.804  16.569  0.00  0.00    +0.000 A 
ATOM      5  C   UNL     1       4.837   5.180  16.585  0.00  0.00    +0.000 A 
ATOM      6  C   UNL     1       4.064   5.994  17.394  0.00  0.00    +0.000 A 
ATOM      7  C   UNL     1       6.008   5.543  15.694  0.00  0.00    +0.000 C 
ATOM      8  C   UNL     1       6.317   4.140  15.042  0.00  0.00    +0.000 C 
ATOM      9  O   UNL     1       7.128   3.875  14.169  0.00  0.00    +0.000 OA
ATOM     10  N   UNL     1       5.483   3.206  15.657  0.00  0.00    +0.000 N 
ATOM     11  H   UNL     1       5.510   2.223  15.429  0.00  0.00    +0.000 HD
ENDROOT
BRANCH   1  18
ATOM     12  C   UNL     1       1.943   4.615  21.275  0.00  0.00    +0.000 C 
ATOM     13  C   UNL     1       1.979   5.924  20.574  0.00  0.00    +0.000 A 
ATOM     14  N   UNL     1       1.432   6.990  21.171  0.00  0.00    +0.000 NA
ATOM     15  O   UNL     1       1.551   8.025  20.274  0.00  0.00    +0.000 OA
ATOM     16  C   UNL     1       2.168   7.593  19.141  0.00  0.00    +0.000 A 
ATOM     17  C   UNL     1       2.324   8.627  18.098  0.00  0.00    +0.000 C 
ATOM     18  C   UNL     1       2.493   6.256  19.279  0.00  0.00    +0.000 A 
ENDBRANCH   1  18
BRANCH   7  19
ATOM     19  C   UNL     1       7.137   6.088  16.578  0.00  0.00    +0.000 C 
ATOM     20  C   UNL     1       6.917   7.375  17.426  0.00  0.00    +0.000 C 
ATOM     21  C   UNL     1       7.825   6.743  18.499  0.00  0.00    +0.000 C 
ATOM     22  C   UNL     1       7.454   5.365  17.916  0.00  0.00    +0.000 C 
ENDBRANCH   7  19
BRANCH   7  23
ATOM     23  O   UNL     1       5.645   6.562  14.776  0.00  0.00    +0.000 OA
ATOM     24  H   UNL     1       6.311   7.267  14.813  0.00  0.00    +0.000 HD
ENDBRANCH   7  23
TORSDOF 3
ENDMDL
MODEL 5
REMARK VINA RESULT:      -7.7      3.788      6.227
REMARK  Name = 
REMARK  5 active torsions:
REMARK  status: ('A' for Active; 'I' for Inactive)
REMARK    1  A    between atoms: C_1  and  C_2
REMARK    2  A    between atoms: C_5  and  C_6
REMARK    3  A    between atoms: C_7  and  C_8
REMARK    4  A    between atoms: C_14  and  O_15
REMARK    5  A    between atoms: C_14  and  C_16
REMARK                            x       y       z     vdW  Elec       q    Type
REMARK                         _______ _______ _______ _____ _____    ______ ____
ROOT
ATOM      1  C   UNL     1       1.622   8.599  19.358  0.00  0.00    +0.000 A 
ATOM      2  C   UNL     1       2.214   8.953  18.124  0.00  0.00    +0.000 A 
ATOM      3  C   UNL     1       3.090   8.088  17.456  0.00  0.00    +0.000 A 
ATOM      4  C   UNL     1       3.315   6.849  18.015  0.00  0.00    +0.000 A 
ATOM      5  C   UNL     1       2.729   6.466  19.216  0.00  0.00    +0.000 A 
ATOM      6  C   UNL     1       1.936   7.353  19.924  0.00  0.00    +0.000 A 
ATOM      7  C   UNL     1       3.041   5.012  19.507  0.00  0.00    +0.000 C 
ATOM      8  C   UNL     1       4.050   4.697  18.335  0.00  0.00    +0.000 C 
ATOM      9  O   UNL     1       4.684   3.672  18.140  0.00  0.00    +0.000 OA
ATOM     10  N   UNL     1       4.097   5.824  17.515  0.00  0.00    +0.000 N 
ATOM     11  H   UNL     1       4.656   5.861  16.676  0.00  0.00    +0.000 HD
ENDROOT
BRANCH   1  18
ATOM     12  C   UNL     1      -0.874  10.332  18.032  0.00  0.00    +0.000 C 
ATOM     13  C   UNL     1      -0.460  10.184  19.450  0.00  0.00    +0.000 A 
ATOM     14  N   UNL     1      -1.141  10.845  20.393  0.00  0.00    +0.000 NA
ATOM     15  O   UNL     1      -0.500  10.576  21.579  0.00  0.00    +0.000 OA
ATOM     16  C   UNL     1       0.563   9.756  21.359  0.00  0.00    +0.000 A 
ATOM     17  C   UNL     1       1.339   9.423  22.571  0.00  0.00    +0.000 C 
ATOM     18  C   UNL     1       0.630   9.445  20.013  0.00  0.00    +0.000 A 
ENDBRANCH   1  18
BRANCH   7  19
ATOM     19  C   UNL     1       1.733   4.214  19.441  0.00  0.00    +0.000 C 
ATOM     20  C   UNL     1       1.241   3.625  18.086  0.00  0.00    +0.000 C 
ATOM     21  C   UNL     1       0.684   2.430  18.884  0.00  0.00    +0.000 C 
ATOM     22  C   UNL     1       1.717   2.758  19.981  0.00  0.00    +0.000 C 
ENDBRANCH   7  19
BRANCH   7  23
ATOM     23  O   UNL     1       3.576   4.863  20.812  0.00  0.00    +0.000 OA
ATOM     24  H   UNL     1       4.494   5.179  20.811  0.00  0.00    +0.000 HD
ENDBRANCH   7  23
TORSDOF 3
ENDMDL
MODEL 6
REMARK VINA RESULT:      -7.7      1.932      6.206
REMARK  Name = 
REMARK  5 active torsions:
REMARK  status: ('A' for Active; 'I' for Inactive)
REMARK    1  A    between atoms: C_1  and  C_2
REMARK    2  A    between atoms: C_5  and  C_6
REMARK    3  A    between atoms: C_7  and  C_8
REMARK    4  A    between atoms: C_14  and  O_15
REMARK    5  A    between atoms: C_14  and  C_16
REMARK                            x       y       z     vdW  Elec       q    Type
REMARK                         _______ _______ _______ _____ _____    ______ ____
ROOT
ATOM      1  C   UNL     1       3.226   4.008  18.061  0.00  0.00    +0.000 A 
ATOM      2  C   UNL     1       3.751   2.748  17.696  0.00  0.00    +0.000 A 
ATOM      3  C   UNL     1       4.843   2.632  16.827  0.00  0.00    +0.000 A 
ATOM      4  C   UNL     1       5.431   3.794  16.381  0.00  0.00    +0.000 A 
ATOM      5  C   UNL     1       4.949   5.048  16.741  0.00  0.00    +0.000 A 
ATOM      6  C   UNL     1       3.815   5.165  17.526  0.00  0.00    +0.000 A 
ATOM      7  C   UNL     1       5.875   6.130  16.221  0.00  0.00    +0.000 C 
ATOM      8  C   UNL     1       6.871   5.262  15.357  0.00  0.00    +0.000 C 
ATOM      9  O   UNL     1       7.781   5.647  14.640  0.00  0.00    +0.000 OA
ATOM     10  N   UNL     1       6.537   3.923  15.561  0.00  0.00    +0.000 N 
ATOM     11  H   UNL     1       7.049   3.166  15.134  0.00  0.00    +0.000 HD
ENDROOT
BRANCH   1  18
ATOM     12  C   UNL     1       0.772   1.912  18.816  0.00  0.00    +0.000 C 
ATOM     13  C   UNL     1       1.102   3.242  19.387  0.00  0.00    +0.000 A 
ATOM     14  N   UNL     1       0.315   3.747  20.343  0.00  0.00    +0.000 NA
ATOM     15  O   UNL     1       0.817   4.995  20.623  0.00  0.00    +0.000 OA
ATOM     16  C   UNL     1       1.904   5.248  19.845  0.00  0.00    +0.000 A 
ATOM     17  C   UNL     1       2.508   6.579  20.051  0.00  0.00    +0.000 C 
ATOM     18  C   UNL     1       2.157   4.149  19.044  0.00  0.00    +0.000 A 
ENDBRANCH   1  18
BRANCH   7  19
ATOM     19  C   UNL     1       6.526   6.827  17.421  0.00  0.00    +0.000 C 
ATOM     20  C   UNL     1       7.571   6.071  18.294  0.00  0.00    +0.000 C 
ATOM     21  C   UNL     1       8.296   7.419  18.475  0.00  0.00    +0.000 C 
ATOM     22  C   UNL     1       7.636   7.883  17.161  0.00  0.00    +0.000 C 
ENDBRANCH   7  19
BRANCH   7  23
ATOM     23  O   UNL     1       5.148   7.107  15.493  0.00  0.00    +0.000 OA
ATOM     24  H   UNL     1       5.777   7.676  15.021  0.00  0.00    +0.000 HD
ENDBRANCH   7  23
TORSDOF 3
ENDMDL
MODEL 7
REMARK VINA RESULT:      -7.7      1.780      6.398
REMARK  Name = 
REMARK  5 active torsions:
REMARK  status: ('A' for Active; 'I' for Inactive)
REMARK    1  A    between atoms: C_1  and  C_2
REMARK    2  A    between atoms: C_5  and  C_6
REMARK    3  A    between atoms: C_7  and  C_8
REMARK    4  A    between atoms: C_14  and  O_15
REMARK    5  A    between atoms: C_14  and  C_16
REMARK                            x       y       z     vdW  Elec       q    Type
REMARK                         _______ _______ _______ _____ _____    ______ ____
ROOT
ATOM      1  C   UNL     1       3.194   4.038  18.008  0.00  0.00    +0.000 A 
ATOM      2  C   UNL     1       3.715   2.774  17.652  0.00  0.00    +0.000 A 
ATOM      3  C   UNL     1       4.818   2.650  16.797  0.00  0.00    +0.000 A 
ATOM      4  C   UNL     1       5.418   3.808  16.355  0.00  0.00    +0.000 A 
ATOM      5  C   UNL     1       4.939   5.065  16.707  0.00  0.00    +0.000 A 
ATOM      6  C   UNL     1       3.796   5.190  17.477  0.00  0.00    +0.000 A 
ATOM      7  C   UNL     1       5.877   6.141  16.196  0.00  0.00    +0.000 C 
ATOM      8  C   UNL     1       6.879   5.266  15.347  0.00  0.00    +0.000 C 
ATOM      9  O   UNL     1       7.800   5.644  14.640  0.00  0.00    +0.000 OA
ATOM     10  N   UNL     1       6.534   3.929  15.549  0.00  0.00    +0.000 N 
ATOM     11  H   UNL     1       7.048   3.168  15.130  0.00  0.00    +0.000 HD
ENDROOT
BRANCH   1  18
ATOM     12  C   UNL     1       2.584   6.521  20.118  0.00  0.00    +0.000 C 
ATOM     13  C   UNL     1       1.834   5.262  19.881  0.00  0.00    +0.000 A 
ATOM     14  N   UNL     1       0.743   5.013  20.615  0.00  0.00    +0.000 NA
ATOM     15  O   UNL     1       0.307   3.768  20.229  0.00  0.00    +0.000 OA
ATOM     16  C   UNL     1       1.124   3.264  19.266  0.00  0.00    +0.000 A 
ATOM     17  C   UNL     1       0.755   1.913  18.796  0.00  0.00    +0.000 C 
ATOM     18  C   UNL     1       2.113   4.186  18.977  0.00  0.00    +0.000 A 
ENDBRANCH   1  18
BRANCH   7  19
ATOM     19  C   UNL     1       6.518   6.836  17.403  0.00  0.00    +0.000 C 
ATOM     20  C   UNL     1       7.553   6.079  18.286  0.00  0.00    +0.000 C 
ATOM     21  C   UNL     1       8.278   7.426  18.475  0.00  0.00    +0.000 C 
ATOM     22  C   UNL     1       7.631   7.892  17.155  0.00  0.00    +0.000 C 
ENDBRANCH   7  19
BRANCH   7  23
ATOM     23  O   UNL     1       5.165   7.120  15.457  0.00  0.00    +0.000 OA
ATOM     24  H   UNL     1       5.105   7.930  15.990  0.00  0.00    +0.000 HD
ENDBRANCH   7  23
TORSDOF 3
ENDMDL
MODEL 8
REMARK VINA RESULT:      -7.7      1.707      6.132
REMARK  Name = 
REMARK  5 active torsions:
REMARK  status: ('A' for Active; 'I' for Inactive)
REMARK    1  A    between atoms: C_1  and  C_2
REMARK    2  A    between atoms: C_5  and  C_6
REMARK    3  A    between atoms: C_7  and  C_8
REMARK    4  A    between atoms: C_14  and  O_15
REMARK    5  A    between atoms: C_14  and  C_16
REMARK                            x       y       z     vdW  Elec       q    Type
REMARK                         _______ _______ _______ _____ _____    ______ ____
ROOT
ATOM      1  C   UNL     1       3.368   4.739  18.567  0.00  0.00    +0.000 A 
ATOM      2  C   UNL     1       2.880   6.037  18.298  0.00  0.00    +0.000 A 
ATOM      3  C   UNL     1       3.721   7.056  17.832  0.00  0.00    +0.000 A 
ATOM      4  C   UNL     1       5.038   6.735  17.588  0.00  0.00    +0.000 A 
ATOM      5  C   UNL     1       5.541   5.461  17.823  0.00  0.00    +0.000 A 
ATOM      6  C   UNL     1       4.734   4.478  18.369  0.00  0.00    +0.000 A 
ATOM      7  C   UNL     1       6.972   5.367  17.331  0.00  0.00    +0.000 C 
ATOM      8  C   UNL     1       7.236   6.871  16.933  0.00  0.00    +0.000 C 
ATOM      9  O   UNL     1       8.277   7.378  16.549  0.00  0.00    +0.000 OA
ATOM     10  N   UNL     1       6.031   7.557  17.088  0.00  0.00    +0.000 N 
ATOM     11  H   UNL     1       5.934   8.538  16.869  0.00  0.00    +0.000 HD
ENDROOT
BRANCH   1  18
ATOM     12  C   UNL     1       0.697   4.778  20.529  0.00  0.00    +0.000 C 
ATOM     13  C   UNL     1       1.322   3.654  19.787  0.00  0.00    +0.000 A 
ATOM     14  N   UNL     1       0.791   2.431  19.902  0.00  0.00    +0.000 NA
ATOM     15  O   UNL     1       1.606   1.598  19.173  0.00  0.00    +0.000 OA
ATOM     16  C   UNL     1       2.625   2.308  18.618  0.00  0.00    +0.000 A 
ATOM     17  C   UNL     1       3.576   1.499  17.830  0.00  0.00    +0.000 C 
ATOM     18  C   UNL     1       2.486   3.643  18.953  0.00  0.00    +0.000 A 
ENDBRANCH   1  18
BRANCH   7  19
ATOM     19  C   UNL     1       7.014   4.387  16.152  0.00  0.00    +0.000 C 
ATOM     20  C   UNL     1       5.706   3.707  15.651  0.00  0.00    +0.000 C 
ATOM     21  C   UNL     1       6.290   3.783  14.227  0.00  0.00    +0.000 C 
ATOM     22  C   UNL     1       7.167   4.955  14.714  0.00  0.00    +0.000 C 
ENDBRANCH   7  19
BRANCH   7  23
ATOM     23  O   UNL     1       7.821   4.860  18.348  0.00  0.00    +0.000 OA
ATOM     24  H   UNL     1       8.043   3.938  18.138  0.00  0.00    +0.000 HD
ENDBRANCH   7  23
TORSDOF 3
ENDMDL
MODEL 9
REMARK VINA RESULT:      -7.6      1.862      5.969
REMARK  Name = 
REMARK  5 active torsions:
REMARK  status: ('A' for Active; 'I' for Inactive)
REMARK    1  A    between atoms: C_1  and  C_2
REMARK    2  A    between atoms: C_5  and  C_6
REMARK    3  A    between atoms: C_7  and  C_8
REMARK    4  A    between atoms: C_14  and  O_15
REMARK    5  A    between atoms: C_14  and  C_16
REMARK                            x       y       z     vdW  Elec       q    Type
REMARK                         _______ _______ _______ _____ _____    ______ ____
ROOT
ATOM      1  C   UNL     1       3.200   5.006  18.464  0.00  0.00    +0.000 A 
ATOM      2  C   UNL     1       2.791   6.319  18.141  0.00  0.00    +0.000 A 
ATOM      3  C   UNL     1       3.700   7.278  17.676  0.00  0.00    +0.000 A 
ATOM      4  C   UNL     1       5.005   6.881  17.487  0.00  0.00    +0.000 A 
ATOM      5  C   UNL     1       5.431   5.589  17.775  0.00  0.00    +0.000 A 
ATOM      6  C   UNL     1       4.555   4.667  18.320  0.00  0.00    +0.000 A 
ATOM      7  C   UNL     1       6.870   5.405  17.335  0.00  0.00    +0.000 C 
ATOM      8  C   UNL     1       7.227   6.881  16.903  0.00  0.00    +0.000 C 
ATOM      9  O   UNL     1       8.306   7.321  16.540  0.00  0.00    +0.000 OA
ATOM     10  N   UNL     1       6.057   7.634  16.998  0.00  0.00    +0.000 N 
ATOM     11  H   UNL     1       6.020   8.611  16.748  0.00  0.00    +0.000 HD
ENDROOT
BRANCH   1  18
ATOM     12  C   UNL     1       2.713   1.999  17.154  0.00  0.00    +0.000 C 
ATOM     13  C   UNL     1       2.042   2.663  18.300  0.00  0.00    +0.000 A 
ATOM     14  N   UNL     1       1.060   2.014  18.937  0.00  0.00    +0.000 NA
ATOM     15  O   UNL     1       0.590   2.886  19.890  0.00  0.00    +0.000 OA
ATOM     16  C   UNL     1       1.281   4.056  19.836  0.00  0.00    +0.000 A 
ATOM     17  C   UNL     1       0.837   5.076  20.808  0.00  0.00    +0.000 C 
ATOM     18  C   UNL     1       2.248   3.970  18.851  0.00  0.00    +0.000 A 
ENDBRANCH   1  18
BRANCH   7  19
ATOM     19  C   UNL     1       6.898   4.390  16.186  0.00  0.00    +0.000 C 
ATOM     20  C   UNL     1       5.571   3.776  15.650  0.00  0.00    +0.000 C 
ATOM     21  C   UNL     1       6.215   3.774  14.250  0.00  0.00    +0.000 C 
ATOM     22  C   UNL     1       7.143   4.903  14.740  0.00  0.00    +0.000 C 
ENDBRANCH   7  19
BRANCH   7  23
ATOM     23  O   UNL     1       7.657   4.886  18.394  0.00  0.00    +0.000 OA
ATOM     24  H   UNL     1       8.199   5.603  18.761  0.00  0.00    +0.000 HD
ENDBRANCH   7  23
TORSDOF 3
ENDMDL
