MODEL 1
REMARK VINA RESULT:      -6.4      0.000      0.000
REMARK  Name = 
REMARK  11 active torsions:
REMARK  status: ('A' for Active; 'I' for Inactive)
REMARK    1  A    between atoms: C_1  and  C_2
REMARK    2  A    between atoms: C_2  and  C_3
REMARK    3  A    between atoms: C_3  and  C_4
REMARK    4  A    between atoms: C_4  and  C_5
REMARK    5  A    between atoms: C_5  and  C_6
REMARK    6  A    between atoms: C_6  and  C_7
REMARK    7  A    between atoms: C_7  and  C_8
REMARK    8  A    between atoms: C_8  and  C_9
REMARK    9  A    between atoms: C_10  and  C_11
REMARK   10  A    between atoms: C_13  and  C_14
REMARK   11  A    between atoms: C_17  and  O_18
REMARK                            x       y       z     vdW  Elec       q    Type
REMARK                         _______ _______ _______ _____ _____    ______ ____
ROOT
ATOM      1  C   UNL     1       4.943   5.830  18.151  0.00  0.00    +0.000 A 
ATOM      2  C   UNL     1       3.628   6.358  18.085  0.00  0.00    +0.000 A 
ATOM      3  C   UNL     1       3.288   7.704  17.497  0.00  0.00    +0.000 C 
ATOM      4  N   UNL     1       2.592   5.616  18.555  0.00  0.00    +0.000 NA
ATOM      5  C   UNL     1       2.754   4.390  19.113  0.00  0.00    +0.000 A 
ATOM      6  C   UNL     1       1.540   3.649  19.578  0.00  0.00    +0.000 C 
ATOM      7  C   UNL     1       4.040   3.839  19.231  0.00  0.00    +0.000 A 
ATOM      8 BR   UNL     1       4.284   2.111  20.047  0.00  0.00    +0.000 Br
ATOM      9  C   UNL     1       5.140   4.566  18.742  0.00  0.00    +0.000 A 
ENDROOT
BRANCH   9  10
ATOM     10  O   UNL     1       6.399   4.075  18.837  0.00  0.00    +0.000 OA
ATOM     11  H   UNL     1       7.192   4.620  18.913  0.00  0.00    +0.000 HD
ENDBRANCH   9  10
BRANCH   1  12
ATOM     12  C   UNL     1       6.128   6.577  17.591  0.00  0.00    +0.000 C 
BRANCH  12  13
ATOM     13  C   UNL     1       6.822   5.764  16.493  0.00  0.00    +0.000 C 
BRANCH  13  14
ATOM     14  C   UNL     1       5.902   5.517  15.295  0.00  0.00    +0.000 C 
BRANCH  14  15
ATOM     15  C   UNL     1       5.911   4.049  14.841  0.00  0.00    +0.000 C 
BRANCH  15  16
ATOM     16  C   UNL     1       5.201   3.911  13.502  0.00  0.00    +0.000 C 
BRANCH  16  17
ATOM     17  C   UNL     1       6.120   3.307  12.441  0.00  0.00    +0.000 C 
BRANCH  17  19
ATOM     18  C   UNL     1       3.959   3.212  11.142  0.00  0.00    +0.000 C 
ATOM     19  C   UNL     1       5.286   2.524  11.425  0.00  0.00    +0.000 C 
ENDBRANCH  17  19
ENDBRANCH  16  17
ENDBRANCH  15  16
ENDBRANCH  14  15
ENDBRANCH  13  14
ENDBRANCH  12  13
ENDBRANCH   1  12
TORSDOF 8
ENDMDL
MODEL 2
REMARK VINA RESULT:      -6.4      3.395      5.496
REMARK  Name = 
REMARK  11 active torsions:
REMARK  status: ('A' for Active; 'I' for Inactive)
REMARK    1  A    between atoms: C_1  and  C_2
REMARK    2  A    between atoms: C_2  and  C_3
REMARK    3  A    between atoms: C_3  and  C_4
REMARK    4  A    between atoms: C_4  and  C_5
REMARK    5  A    between atoms: C_5  and  C_6
REMARK    6  A    between atoms: C_6  and  C_7
REMARK    7  A    between atoms: C_7  and  C_8
REMARK    8  A    between atoms: C_8  and  C_9
REMARK    9  A    between atoms: C_10  and  C_11
REMARK   10  A    between atoms: C_13  and  C_14
REMARK   11  A    between atoms: C_17  and  O_18
REMARK                            x       y       z     vdW  Elec       q    Type
REMARK                         _______ _______ _______ _____ _____    ______ ____
ROOT
ATOM      1  C   UNL     1       4.168   6.011  18.278  0.00  0.00    +0.000 A 
ATOM      2  C   UNL     1       4.185   6.871  17.151  0.00  0.00    +0.000 A 
ATOM      3  C   UNL     1       5.087   6.680  15.957  0.00  0.00    +0.000 C 
ATOM      4  N   UNL     1       3.333   7.928  17.111  0.00  0.00    +0.000 NA
ATOM      5  C   UNL     1       2.471   8.220  18.117  0.00  0.00    +0.000 A 
ATOM      6  C   UNL     1       1.559   9.396  17.959  0.00  0.00    +0.000 C 
ATOM      7  C   UNL     1       2.441   7.417  19.269  0.00  0.00    +0.000 A 
ATOM      8 BR   UNL     1       1.240   7.841  20.715  0.00  0.00    +0.000 Br
ATOM      9  C   UNL     1       3.295   6.303  19.344  0.00  0.00    +0.000 A 
ENDROOT
BRANCH   9  10
ATOM     10  O   UNL     1       3.302   5.503  20.437  0.00  0.00    +0.000 OA
ATOM     11  H   UNL     1       4.093   5.278  20.942  0.00  0.00    +0.000 HD
ENDBRANCH   9  10
BRANCH   1  12
ATOM     12  C   UNL     1       5.047   4.787  18.357  0.00  0.00    +0.000 C 
BRANCH  12  13
ATOM     13  C   UNL     1       4.532   3.680  17.429  0.00  0.00    +0.000 C 
BRANCH  13  14
ATOM     14  C   UNL     1       3.784   2.589  18.198  0.00  0.00    +0.000 C 
BRANCH  14  15
ATOM     15  C   UNL     1       2.374   2.341  17.640  0.00  0.00    +0.000 C 
BRANCH  15  16
ATOM     16  C   UNL     1       1.380   3.293  18.290  0.00  0.00    +0.000 C 
BRANCH  16  17
ATOM     17  C   UNL     1       0.651   2.629  19.458  0.00  0.00    +0.000 C 
BRANCH  17  19
ATOM     18  C   UNL     1       2.032   2.586  21.569  0.00  0.00    +0.000 C 
ATOM     19  C   UNL     1       0.998   3.354  20.759  0.00  0.00    +0.000 C 
ENDBRANCH  17  19
ENDBRANCH  16  17
ENDBRANCH  15  16
ENDBRANCH  14  15
ENDBRANCH  13  14
ENDBRANCH  12  13
ENDBRANCH   1  12
TORSDOF 8
ENDMDL
MODEL 3
REMARK VINA RESULT:      -6.4      1.488      2.078
REMARK  Name = 
REMARK  11 active torsions:
REMARK  status: ('A' for Active; 'I' for Inactive)
REMARK    1  A    between atoms: C_1  and  C_2
REMARK    2  A    between atoms: C_2  and  C_3
REMARK    3  A    between atoms: C_3  and  C_4
REMARK    4  A    between atoms: C_4  and  C_5
REMARK    5  A    between atoms: C_5  and  C_6
REMARK    6  A    between atoms: C_6  and  C_7
REMARK    7  A    between atoms: C_7  and  C_8
REMARK    8  A    between atoms: C_8  and  C_9
REMARK    9  A    between atoms: C_10  and  C_11
REMARK   10  A    between atoms: C_13  and  C_14
REMARK   11  A    between atoms: C_17  and  O_18
REMARK                            x       y       z     vdW  Elec       q    Type
REMARK                         _______ _______ _______ _____ _____    ______ ____
ROOT
ATOM      1  C   UNL     1       4.935   4.402  17.599  0.00  0.00    +0.000 A 
ATOM      2  C   UNL     1       4.761   5.775  17.912  0.00  0.00    +0.000 A 
ATOM      3  C   UNL     1       5.581   6.888  17.311  0.00  0.00    +0.000 C 
ATOM      4  N   UNL     1       3.789   6.135  18.789  0.00  0.00    +0.000 NA
ATOM      5  C   UNL     1       2.980   5.237  19.406  0.00  0.00    +0.000 A 
ATOM      6  C   UNL     1       1.925   5.747  20.338  0.00  0.00    +0.000 C 
ATOM      7  C   UNL     1       3.137   3.865  19.154  0.00  0.00    +0.000 A 
ATOM      8 BR   UNL     1       2.013   2.580  20.048  0.00  0.00    +0.000 Br
ATOM      9  C   UNL     1       4.121   3.448  18.240  0.00  0.00    +0.000 A 
ENDROOT
BRANCH   9  10
ATOM     10  O   UNL     1       4.308   2.135  17.968  0.00  0.00    +0.000 OA
ATOM     11  H   UNL     1       5.003   1.792  17.392  0.00  0.00    +0.000 HD
ENDBRANCH   9  10
BRANCH   1  12
ATOM     12  C   UNL     1       5.956   3.942  16.588  0.00  0.00    +0.000 C 
BRANCH  12  13
ATOM     13  C   UNL     1       5.415   4.074  15.160  0.00  0.00    +0.000 C 
BRANCH  13  14
ATOM     14  C   UNL     1       6.485   4.569  14.184  0.00  0.00    +0.000 C 
BRANCH  14  15
ATOM     15  C   UNL     1       6.539   3.730  12.898  0.00  0.00    +0.000 C 
BRANCH  15  16
ATOM     16  C   UNL     1       5.139   3.566  12.323  0.00  0.00    +0.000 C 
BRANCH  16  17
ATOM     17  C   UNL     1       5.073   2.400  11.337  0.00  0.00    +0.000 C 
BRANCH  17  19
ATOM     18  C   UNL     1       6.161   0.124  11.255  0.00  0.00    +0.000 C 
ATOM     19  C   UNL     1       6.391   1.624  11.369  0.00  0.00    +0.000 C 
ENDBRANCH  17  19
ENDBRANCH  16  17
ENDBRANCH  15  16
ENDBRANCH  14  15
ENDBRANCH  13  14
ENDBRANCH  12  13
ENDBRANCH   1  12
TORSDOF 8
ENDMDL
MODEL 4
REMARK VINA RESULT:      -6.3      1.224      1.374
REMARK  Name = 
REMARK  11 active torsions:
REMARK  status: ('A' for Active; 'I' for Inactive)
REMARK    1  A    between atoms: C_1  and  C_2
REMARK    2  A    between atoms: C_2  and  C_3
REMARK    3  A    between atoms: C_3  and  C_4
REMARK    4  A    between atoms: C_4  and  C_5
REMARK    5  A    between atoms: C_5  and  C_6
REMARK    6  A    between atoms: C_6  and  C_7
REMARK    7  A    between atoms: C_7  and  C_8
REMARK    8  A    between atoms: C_8  and  C_9
REMARK    9  A    between atoms: C_10  and  C_11
REMARK   10  A    between atoms: C_13  and  C_14
REMARK   11  A    between atoms: C_17  and  O_18
REMARK                            x       y       z     vdW  Elec       q    Type
REMARK                         _______ _______ _______ _____ _____    ______ ____
ROOT
ATOM      1  C   UNL     1       4.224   5.432  18.941  0.00  0.00    +0.000 A 
ATOM      2  C   UNL     1       3.008   5.842  19.543  0.00  0.00    +0.000 A 
ATOM      3  C   UNL     1       2.386   7.202  19.347  0.00  0.00    +0.000 C 
ATOM      4  N   UNL     1       2.332   4.968  20.334  0.00  0.00    +0.000 NA
ATOM      5  C   UNL     1       2.778   3.714  20.598  0.00  0.00    +0.000 A 
ATOM      6  C   UNL     1       1.941   2.825  21.464  0.00  0.00    +0.000 C 
ATOM      7  C   UNL     1       3.994   3.274  20.052  0.00  0.00    +0.000 A 
ATOM      8 BR   UNL     1       4.649   1.505  20.445  0.00  0.00    +0.000 Br
ATOM      9  C   UNL     1       4.718   4.141  19.214  0.00  0.00    +0.000 A 
ENDROOT
BRANCH   9  10
ATOM     10  O   UNL     1       5.897   3.759  18.668  0.00  0.00    +0.000 OA
ATOM     11  H   UNL     1       6.725   3.682  19.159  0.00  0.00    +0.000 HD
ENDBRANCH   9  10
BRANCH   1  12
ATOM     12  C   UNL     1       4.991   6.333  18.006  0.00  0.00    +0.000 C 
BRANCH  12  13
ATOM     13  C   UNL     1       4.476   6.201  16.568  0.00  0.00    +0.000 C 
BRANCH  13  14
ATOM     14  C   UNL     1       5.578   5.760  15.602  0.00  0.00    +0.000 C 
BRANCH  14  15
ATOM     15  C   UNL     1       5.264   4.414  14.930  0.00  0.00    +0.000 C 
BRANCH  15  16
ATOM     16  C   UNL     1       6.506   3.874  14.237  0.00  0.00    +0.000 C 
BRANCH  16  17
ATOM     17  C   UNL     1       6.431   4.070  12.723  0.00  0.00    +0.000 C 
BRANCH  17  19
ATOM     18  C   UNL     1       4.361   3.345  11.476  0.00  0.00    +0.000 C 
ATOM     19  C   UNL     1       5.680   2.898  12.089  0.00  0.00    +0.000 C 
ENDBRANCH  17  19
ENDBRANCH  16  17
ENDBRANCH  15  16
ENDBRANCH  14  15
ENDBRANCH  13  14
ENDBRANCH  12  13
ENDBRANCH   1  12
TORSDOF 8
ENDMDL
MODEL 5
REMARK VINA RESULT:      -6.2      0.982      1.191
REMARK  Name = 
REMARK  11 active torsions:
REMARK  status: ('A' for Active; 'I' for Inactive)
REMARK    1  A    between atoms: C_1  and  C_2
REMARK    2  A    between atoms: C_2  and  C_3
REMARK    3  A    between atoms: C_3  and  C_4
REMARK    4  A    between atoms: C_4  and  C_5
REMARK    5  A    between atoms: C_5  and  C_6
REMARK    6  A    between atoms: C_6  and  C_7
REMARK    7  A    between atoms: C_7  and  C_8
REMARK    8  A    between atoms: C_8  and  C_9
REMARK    9  A    between atoms: C_10  and  C_11
REMARK   10  A    between atoms: C_13  and  C_14
REMARK   11  A    between atoms: C_17  and  O_18
REMARK                            x       y       z     vdW  Elec       q    Type
REMARK                         _______ _______ _______ _____ _____    ______ ____
ROOT
ATOM      1  C   UNL     1       4.478   5.443  18.239  0.00  0.00    +0.000 A 
ATOM      2  C   UNL     1       3.178   6.005  18.155  0.00  0.00    +0.000 A 
ATOM      3  C   UNL     1       2.905   7.476  17.969  0.00  0.00    +0.000 C 
ATOM      4  N   UNL     1       2.097   5.185  18.225  0.00  0.00    +0.000 NA
ATOM      5  C   UNL     1       2.197   3.843  18.395  0.00  0.00    +0.000 A 
ATOM      6  C   UNL     1       0.940   3.032  18.435  0.00  0.00    +0.000 C 
ATOM      7  C   UNL     1       3.461   3.245  18.517  0.00  0.00    +0.000 A 
ATOM      8 BR   UNL     1       3.612   1.344  18.788  0.00  0.00    +0.000 Br
ATOM      9  C   UNL     1       4.608   4.054  18.433  0.00  0.00    +0.000 A 
ENDROOT
BRANCH   9  10
ATOM     10  O   UNL     1       5.848   3.520  18.548  0.00  0.00    +0.000 OA
ATOM     11  H   UNL     1       6.446   3.369  17.805  0.00  0.00    +0.000 HD
ENDBRANCH   9  10
BRANCH   1  12
ATOM     12  C   UNL     1       5.719   6.291  18.107  0.00  0.00    +0.000 C 
BRANCH  12  13
ATOM     13  C   UNL     1       6.082   6.511  16.634  0.00  0.00    +0.000 C 
BRANCH  13  14
ATOM     14  C   UNL     1       7.068   5.458  16.123  0.00  0.00    +0.000 C 
BRANCH  14  15
ATOM     15  C   UNL     1       6.817   5.084  14.654  0.00  0.00    +0.000 C 
BRANCH  15  16
ATOM     16  C   UNL     1       5.864   3.900  14.573  0.00  0.00    +0.000 C 
BRANCH  16  17
ATOM     17  C   UNL     1       5.246   3.774  13.180  0.00  0.00    +0.000 C 
BRANCH  17  19
ATOM     18  C   UNL     1       5.747   2.022  11.436  0.00  0.00    +0.000 C 
ATOM     19  C   UNL     1       6.285   3.219  12.205  0.00  0.00    +0.000 C 
ENDBRANCH  17  19
ENDBRANCH  16  17
ENDBRANCH  15  16
ENDBRANCH  14  15
ENDBRANCH  13  14
ENDBRANCH  12  13
ENDBRANCH   1  12
TORSDOF 8
ENDMDL
MODEL 6
REMARK VINA RESULT:      -6.2      2.063      2.413
REMARK  Name = 
REMARK  11 active torsions:
REMARK  status: ('A' for Active; 'I' for Inactive)
REMARK    1  A    between atoms: C_1  and  C_2
REMARK    2  A    between atoms: C_2  and  C_3
REMARK    3  A    between atoms: C_3  and  C_4
REMARK    4  A    between atoms: C_4  and  C_5
REMARK    5  A    between atoms: C_5  and  C_6
REMARK    6  A    between atoms: C_6  and  C_7
REMARK    7  A    between atoms: C_7  and  C_8
REMARK    8  A    between atoms: C_8  and  C_9
REMARK    9  A    between atoms: C_10  and  C_11
REMARK   10  A    between atoms: C_13  and  C_14
REMARK   11  A    between atoms: C_17  and  O_18
REMARK                            x       y       z     vdW  Elec       q    Type
REMARK                         _______ _______ _______ _____ _____    ______ ____
ROOT
ATOM      1  C   UNL     1       4.441   4.035  17.686  0.00  0.00    +0.000 A 
ATOM      2  C   UNL     1       4.939   4.703  18.834  0.00  0.00    +0.000 A 
ATOM      3  C   UNL     1       6.312   5.322  18.920  0.00  0.00    +0.000 C 
ATOM      4  N   UNL     1       4.143   4.824  19.927  0.00  0.00    +0.000 NA
ATOM      5  C   UNL     1       2.887   4.313  19.988  0.00  0.00    +0.000 A 
ATOM      6  C   UNL     1       2.088   4.525  21.235  0.00  0.00    +0.000 C 
ATOM      7  C   UNL     1       2.363   3.614  18.889  0.00  0.00    +0.000 A 
ATOM      8 BR   UNL     1       0.592   2.859  18.976  0.00  0.00    +0.000 Br
ATOM      9  C   UNL     1       3.147   3.479  17.730  0.00  0.00    +0.000 A 
ENDROOT
BRANCH   9  10
ATOM     10  O   UNL     1       2.683   2.810  16.648  0.00  0.00    +0.000 OA
ATOM     11  H   UNL     1       3.227   2.252  16.078  0.00  0.00    +0.000 HD
ENDBRANCH   9  10
BRANCH   1  12
ATOM     12  C   UNL     1       5.253   3.919  16.420  0.00  0.00    +0.000 C 
BRANCH  12  13
ATOM     13  C   UNL     1       5.243   5.237  15.637  0.00  0.00    +0.000 C 
BRANCH  13  14
ATOM     14  C   UNL     1       5.440   5.015  14.136  0.00  0.00    +0.000 C 
BRANCH  14  15
ATOM     15  C   UNL     1       6.332   3.799  13.836  0.00  0.00    +0.000 C 
BRANCH  15  16
ATOM     16  C   UNL     1       5.828   3.076  12.595  0.00  0.00    +0.000 C 
BRANCH  16  17
ATOM     17  C   UNL     1       4.887   3.959  11.777  0.00  0.00    +0.000 C 
BRANCH  17  19
ATOM     18  C   UNL     1       3.120   3.867   9.979  0.00  0.00    +0.000 C 
ATOM     19  C   UNL     1       3.862   3.085  11.052  0.00  0.00    +0.000 C 
ENDBRANCH  17  19
ENDBRANCH  16  17
ENDBRANCH  15  16
ENDBRANCH  14  15
ENDBRANCH  13  14
ENDBRANCH  12  13
ENDBRANCH   1  12
TORSDOF 8
ENDMDL
MODEL 7
REMARK VINA RESULT:      -6.2      3.340      5.931
REMARK  Name = 
REMARK  11 active torsions:
REMARK  status: ('A' for Active; 'I' for Inactive)
REMARK    1  A    between atoms: C_1  and  C_2
REMARK    2  A    between atoms: C_2  and  C_3
REMARK    3  A    between atoms: C_3  and  C_4
REMARK    4  A    between atoms: C_4  and  C_5
REMARK    5  A    between atoms: C_5  and  C_6
REMARK    6  A    between atoms: C_6  and  C_7
REMARK    7  A    between atoms: C_7  and  C_8
REMARK    8  A    between atoms: C_8  and  C_9
REMARK    9  A    between atoms: C_10  and  C_11
REMARK   10  A    between atoms: C_13  and  C_14
REMARK   11  A    between atoms: C_17  and  O_18
REMARK                            x       y       z     vdW  Elec       q    Type
REMARK                         _______ _______ _______ _____ _____    ______ ____
ROOT
ATOM      1  C   UNL     1       4.474   5.365  17.691  0.00  0.00    +0.000 A 
ATOM      2  C   UNL     1       4.522   4.194  16.893  0.00  0.00    +0.000 A 
ATOM      3  C   UNL     1       5.283   4.088  15.595  0.00  0.00    +0.000 C 
ATOM      4  N   UNL     1       3.866   3.081  17.311  0.00  0.00    +0.000 NA
ATOM      5  C   UNL     1       3.140   3.037  18.456  0.00  0.00    +0.000 A 
ATOM      6  C   UNL     1       2.477   1.749  18.833  0.00  0.00    +0.000 C 
ATOM      7  C   UNL     1       3.036   4.181  19.263  0.00  0.00    +0.000 A 
ATOM      8 BR   UNL     1       1.983   4.137  20.876  0.00  0.00    +0.000 Br
ATOM      9  C   UNL     1       3.712   5.351  18.876  0.00  0.00    +0.000 A 
ENDROOT
BRANCH   9  10
ATOM     10  O   UNL     1       3.637   6.479  19.622  0.00  0.00    +0.000 OA
ATOM     11  H   UNL     1       4.145   6.632  20.429  0.00  0.00    +0.000 HD
ENDBRANCH   9  10
BRANCH   1  12
ATOM     12  C   UNL     1       5.230   6.615  17.314  0.00  0.00    +0.000 C 
BRANCH  12  13
ATOM     13  C   UNL     1       6.695   6.527  17.754  0.00  0.00    +0.000 C 
BRANCH  13  14
ATOM     14  C   UNL     1       7.503   7.748  17.308  0.00  0.00    +0.000 C 
BRANCH  14  15
ATOM     15  C   UNL     1       8.401   8.297  18.427  0.00  0.00    +0.000 C 
BRANCH  15  16
ATOM     16  C   UNL     1       8.671   9.778  18.200  0.00  0.00    +0.000 C 
BRANCH  16  17
ATOM     17  C   UNL     1       9.441  10.391  19.369  0.00  0.00    +0.000 C 
BRANCH  17  19
ATOM     18  C   UNL     1      11.058  11.615  17.867  0.00  0.00    +0.000 C 
ATOM     19  C   UNL     1      10.004  11.752  18.956  0.00  0.00    +0.000 C 
ENDBRANCH  17  19
ENDBRANCH  16  17
ENDBRANCH  15  16
ENDBRANCH  14  15
ENDBRANCH  13  14
ENDBRANCH  12  13
ENDBRANCH   1  12
TORSDOF 8
ENDMDL
MODEL 8
REMARK VINA RESULT:      -6.2      2.894      5.964
REMARK  Name = 
REMARK  11 active torsions:
REMARK  status: ('A' for Active; 'I' for Inactive)
REMARK    1  A    between atoms: C_1  and  C_2
REMARK    2  A    between atoms: C_2  and  C_3
REMARK    3  A    between atoms: C_3  and  C_4
REMARK    4  A    between atoms: C_4  and  C_5
REMARK    5  A    between atoms: C_5  and  C_6
REMARK    6  A    between atoms: C_6  and  C_7
REMARK    7  A    between atoms: C_7  and  C_8
REMARK    8  A    between atoms: C_8  and  C_9
REMARK    9  A    between atoms: C_10  and  C_11
REMARK   10  A    between atoms: C_13  and  C_14
REMARK   11  A    between atoms: C_17  and  O_18
REMARK                            x       y       z     vdW  Elec       q    Type
REMARK                         _______ _______ _______ _____ _____    ______ ____
ROOT
ATOM      1  C   UNL     1       5.896   4.672  17.197  0.00  0.00    +0.000 A 
ATOM      2  C   UNL     1       7.006   5.546  17.064  0.00  0.00    +0.000 A 
ATOM      3  C   UNL     1       7.646   6.278  18.217  0.00  0.00    +0.000 C 
ATOM      4  N   UNL     1       7.556   5.735  15.837  0.00  0.00    +0.000 NA
ATOM      5  C   UNL     1       7.080   5.142  14.713  0.00  0.00    +0.000 A 
ATOM      6  C   UNL     1       7.778   5.403  13.416  0.00  0.00    +0.000 C 
ATOM      7  C   UNL     1       5.962   4.295  14.789  0.00  0.00    +0.000 A 
ATOM      8 BR   UNL     1       5.261   3.472  13.195  0.00  0.00    +0.000 Br
ATOM      9  C   UNL     1       5.371   4.058  16.043  0.00  0.00    +0.000 A 
ENDROOT
BRANCH   9  10
ATOM     10  O   UNL     1       4.290   3.251  16.162  0.00  0.00    +0.000 OA
ATOM     11  H   UNL     1       4.262   2.456  16.710  0.00  0.00    +0.000 HD
ENDBRANCH   9  10
BRANCH   1  12
ATOM     12  C   UNL     1       5.278   4.372  18.540  0.00  0.00    +0.000 C 
BRANCH  12  13
ATOM     13  C   UNL     1       4.464   5.567  19.050  0.00  0.00    +0.000 C 
BRANCH  13  14
ATOM     14  C   UNL     1       3.410   6.017  18.037  0.00  0.00    +0.000 C 
BRANCH  14  15
ATOM     15  C   UNL     1       1.985   5.626  18.460  0.00  0.00    +0.000 C 
BRANCH  15  16
ATOM     16  C   UNL     1       1.584   4.317  17.795  0.00  0.00    +0.000 C 
BRANCH  16  17
ATOM     17  C   UNL     1       1.645   3.148  18.778  0.00  0.00    +0.000 C 
BRANCH  17  19
ATOM     18  C   UNL     1       1.704   3.146  21.300  0.00  0.00    +0.000 C 
ATOM     19  C   UNL     1       0.901   3.518  20.062  0.00  0.00    +0.000 C 
ENDBRANCH  17  19
ENDBRANCH  16  17
ENDBRANCH  15  16
ENDBRANCH  14  15
ENDBRANCH  13  14
ENDBRANCH  12  13
ENDBRANCH   1  12
TORSDOF 8
ENDMDL
MODEL 9
REMARK VINA RESULT:      -6.2      1.713      1.932
REMARK  Name = 
REMARK  11 active torsions:
REMARK  status: ('A' for Active; 'I' for Inactive)
REMARK    1  A    between atoms: C_1  and  C_2
REMARK    2  A    between atoms: C_2  and  C_3
REMARK    3  A    between atoms: C_3  and  C_4
REMARK    4  A    between atoms: C_4  and  C_5
REMARK    5  A    between atoms: C_5  and  C_6
REMARK    6  A    between atoms: C_6  and  C_7
REMARK    7  A    between atoms: C_7  and  C_8
REMARK    8  A    between atoms: C_8  and  C_9
REMARK    9  A    between atoms: C_10  and  C_11
REMARK   10  A    between atoms: C_13  and  C_14
REMARK   11  A    between atoms: C_17  and  O_18
REMARK                            x       y       z     vdW  Elec       q    Type
REMARK                         _______ _______ _______ _____ _____    ______ ____
ROOT
ATOM      1  C   UNL     1       3.825   4.563  17.560  0.00  0.00    +0.000 A 
ATOM      2  C   UNL     1       3.749   5.944  17.871  0.00  0.00    +0.000 A 
ATOM      3  C   UNL     1       4.446   7.026  17.085  0.00  0.00    +0.000 C 
ATOM      4  N   UNL     1       2.993   6.345  18.926  0.00  0.00    +0.000 NA
ATOM      5  C   UNL     1       2.316   5.479  19.721  0.00  0.00    +0.000 A 
ATOM      6  C   UNL     1       1.493   6.031  20.843  0.00  0.00    +0.000 C 
ATOM      7  C   UNL     1       2.387   4.099  19.473  0.00  0.00    +0.000 A 
ATOM      8 BR   UNL     1       1.452   2.859  20.613  0.00  0.00    +0.000 Br
ATOM      9  C   UNL     1       3.145   3.641  18.381  0.00  0.00    +0.000 A 
ENDROOT
BRANCH   9  10
ATOM     10  O   UNL     1       3.244   2.319  18.106  0.00  0.00    +0.000 OA
ATOM     11  H   UNL     1       3.349   1.954  17.218  0.00  0.00    +0.000 HD
ENDBRANCH   9  10
BRANCH   1  12
ATOM     12  C   UNL     1       4.598   4.058  16.366  0.00  0.00    +0.000 C 
BRANCH  12  13
ATOM     13  C   UNL     1       6.098   3.985  16.674  0.00  0.00    +0.000 C 
BRANCH  13  14
ATOM     14  C   UNL     1       6.935   4.724  15.627  0.00  0.00    +0.000 C 
BRANCH  14  15
ATOM     15  C   UNL     1       6.246   4.772  14.254  0.00  0.00    +0.000 C 
BRANCH  15  16
ATOM     16  C   UNL     1       7.078   4.019  13.226  0.00  0.00    +0.000 C 
BRANCH  16  17
ATOM     17  C   UNL     1       6.328   3.868  11.902  0.00  0.00    +0.000 C 
BRANCH  17  19
ATOM     18  C   UNL     1       3.998   3.281  11.132  0.00  0.00    +0.000 C 
ATOM     19  C   UNL     1       5.127   2.942  12.095  0.00  0.00    +0.000 C 
ENDBRANCH  17  19
ENDBRANCH  16  17
ENDBRANCH  15  16
ENDBRANCH  14  15
ENDBRANCH  13  14
ENDBRANCH  12  13
ENDBRANCH   1  12
TORSDOF 8
ENDMDL
