MODEL 1
REMARK VINA RESULT:      -8.2      0.000      0.000
REMARK  Name = 
REMARK  6 active torsions:
REMARK  status: ('A' for Active; 'I' for Inactive)
REMARK    1  A    between atoms: C_6  and  O_7
REMARK    2  A    between atoms: C_15  and  N_16
REMARK    3  A    between atoms: N_23  and  C_24
REMARK    4  A    between atoms: C_24  and  C_25
REMARK    5  A    between atoms: C_25  and  C_26
REMARK    6  A    between atoms: C_26  and  N_27
REMARK                            x       y       z     vdW  Elec       q    Type
REMARK                         _______ _______ _______ _____ _____    ______ ____
ROOT
ATOM      1  O   UNL     1      -4.897  12.368  19.937  0.00  0.00    +0.000 OA
ATOM      2  C   UNL     1      -3.765  12.066  19.645  0.00  0.00    +0.000 C 
ATOM      3  C   UNL     1      -3.605  11.660  18.325  0.00  0.00    +0.000 A 
ATOM      4  C   UNL     1      -4.641  11.604  17.417  0.00  0.00    +0.000 A 
ATOM      5  C   UNL     1      -4.294  11.179  16.162  0.00  0.00    +0.000 A 
ATOM      6  C   UNL     1      -2.965  10.841  15.898  0.00  0.00    +0.000 A 
ATOM      7  C   UNL     1      -1.966  10.932  16.879  0.00  0.00    +0.000 A 
ATOM      8  C   UNL     1      -2.280  11.351  18.141  0.00  0.00    +0.000 A 
ATOM      9  C   UNL     1      -1.556  11.566  19.395  0.00  0.00    +0.000 A 
ATOM     10  C   UNL     1      -2.455  11.996  20.293  0.00  0.00    +0.000 A 
ATOM     11  C   UNL     1      -2.108  12.328  21.640  0.00  0.00    +0.000 A 
ATOM     12  C   UNL     1      -3.005  12.896  22.727  0.00  0.00    +0.000 A 
ATOM     13  C   UNL     1      -4.075  12.870  22.326  0.00  0.00    +0.000 A 
ATOM     14  C   UNL     1      -3.453  13.024  23.382  0.00  0.00    +0.000 A 
ATOM     15  C   UNL     1      -1.421  12.556  23.216  0.00  0.00    +0.000 A 
ATOM     16  C   UNL     1      -0.902  12.176  22.041  0.00  0.00    +0.000 A 
ATOM     17  C   UNL     1       0.229  11.693  21.071  0.00  0.00    +0.000 A 
ATOM     18  O   UNL     1       1.398  11.569  21.431  0.00  0.00    +0.000 OA
ATOM     19  N   UNL     1      -0.214  11.393  19.705  0.00  0.00    +0.000 N 
ENDROOT
BRANCH  14  20
ATOM     20  N   UNL     1      -5.318  13.449  23.512  0.00  0.00    +0.000 N 
ATOM     21  O   UNL     1      -6.290  12.592  23.419  0.00  0.00    +0.000 OA
ATOM     22  O   UNL     1      -5.712  14.613  23.694  0.00  0.00    +0.000 OA
ENDBRANCH  14  20
BRANCH   6  23
ATOM     23  O   UNL     1      -2.568  10.403  14.669  0.00  0.00    +0.000 OA
ATOM     24  H   UNL     1      -3.322  10.352  14.055  0.00  0.00    +0.000 HD
ENDBRANCH   6  23
BRANCH  19  25
ATOM     25  C   UNL     1       0.694  10.909  18.618  0.00  0.00    +0.000 C 
BRANCH  25  26
ATOM     26  C   UNL     1       1.040   9.452  18.712  0.00  0.00    +0.000 C 
BRANCH  26  27
ATOM     27  C   UNL     1       2.181   9.026  17.828  0.00  0.00    +0.000 C 
BRANCH  27  28
ATOM     28  N   UNL     1       2.715   7.756  18.285  0.00  0.00    +0.000 N 
ATOM     29  C   UNL     1       2.358   7.057  19.407  0.00  0.00    +0.000 A 
ATOM     30  C   UNL     1       3.133   5.927  19.390  0.00  0.00    +0.000 A 
ATOM     31  N   UNL     1       3.955   5.922  18.297  0.00  0.00    +0.000 NA
ATOM     32  C   UNL     1       3.683   7.034  17.652  0.00  0.00    +0.000 A 
ENDBRANCH  27  28
ENDBRANCH  26  27
ENDBRANCH  25  26
ENDBRANCH  19  25
TORSDOF 6
ENDMDL
MODEL 2
REMARK VINA RESULT:      -8.0      5.150      8.336
REMARK  Name = 
REMARK  6 active torsions:
REMARK  status: ('A' for Active; 'I' for Inactive)
REMARK    1  A    between atoms: C_6  and  O_7
REMARK    2  A    between atoms: C_15  and  N_16
REMARK    3  A    between atoms: N_23  and  C_24
REMARK    4  A    between atoms: C_24  and  C_25
REMARK    5  A    between atoms: C_25  and  C_26
REMARK    6  A    between atoms: C_26  and  N_27
REMARK                            x       y       z     vdW  Elec       q    Type
REMARK                         _______ _______ _______ _____ _____    ______ ____
ROOT
ATOM      1  O   UNL     1       1.715   5.448  21.275  0.00  0.00    +0.000 OA
ATOM      2  C   UNL     1       2.337   5.284  20.253  0.00  0.00    +0.000 C 
ATOM      3  C   UNL     1       2.828   3.994  20.084  0.00  0.00    +0.000 A 
ATOM      4  C   UNL     1       2.628   2.980  20.995  0.00  0.00    +0.000 A 
ATOM      5  C   UNL     1       3.187   1.776  20.659  0.00  0.00    +0.000 A 
ATOM      6  C   UNL     1       3.898   1.663  19.463  0.00  0.00    +0.000 A 
ATOM      7  C   UNL     1       4.051   2.745  18.583  0.00  0.00    +0.000 A 
ATOM      8  C   UNL     1       3.506   3.960  18.891  0.00  0.00    +0.000 A 
ATOM      9  C   UNL     1       3.450   5.282  18.265  0.00  0.00    +0.000 A 
ATOM     10  C   UNL     1       2.746   6.072  19.090  0.00  0.00    +0.000 A 
ATOM     11  C   UNL     1       2.467   7.445  18.800  0.00  0.00    +0.000 A 
ATOM     12  C   UNL     1       1.624   8.420  19.602  0.00  0.00    +0.000 A 
ATOM     13  C   UNL     1       1.363   7.906  20.590  0.00  0.00    +0.000 A 
ATOM     14  C   UNL     1       1.347   9.021  20.059  0.00  0.00    +0.000 A 
ATOM     15  C   UNL     1       2.376   9.083  18.239  0.00  0.00    +0.000 A 
ATOM     16  C   UNL     1       2.936   7.976  17.734  0.00  0.00    +0.000 A 
ATOM     17  C   UNL     1       3.760   7.141  16.696  0.00  0.00    +0.000 A 
ATOM     18  O   UNL     1       4.194   7.627  15.654  0.00  0.00    +0.000 OA
ATOM     19  N   UNL     1       3.981   5.738  17.066  0.00  0.00    +0.000 N 
ENDROOT
BRANCH  14  20
ATOM     20  N   UNL     1       0.407   8.942  21.728  0.00  0.00    +0.000 N 
ATOM     21  O   UNL     1      -0.698   8.291  21.937  0.00  0.00    +0.000 OA
ATOM     22  O   UNL     1       0.818   9.536  22.739  0.00  0.00    +0.000 OA
ENDBRANCH  14  20
BRANCH   6  23
ATOM     23  O   UNL     1       4.482   0.489  19.085  0.00  0.00    +0.000 OA
ATOM     24  H   UNL     1       3.849  -0.084  18.619  0.00  0.00    +0.000 HD
ENDBRANCH   6  23
BRANCH  19  25
ATOM     25  C   UNL     1       4.748   4.763  16.230  0.00  0.00    +0.000 C 
BRANCH  25  26
ATOM     26  C   UNL     1       5.703   5.401  15.264  0.00  0.00    +0.000 C 
BRANCH  26  27
ATOM     27  C   UNL     1       7.155   5.135  15.557  0.00  0.00    +0.000 C 
BRANCH  27  28
ATOM     28  N   UNL     1       7.456   5.489  16.933  0.00  0.00    +0.000 N 
ATOM     29  C   UNL     1       7.517   6.744  17.476  0.00  0.00    +0.000 A 
ATOM     30  C   UNL     1       7.823   6.551  18.798  0.00  0.00    +0.000 A 
ATOM     31  N   UNL     1       7.957   5.218  19.072  0.00  0.00    +0.000 NA
ATOM     32  C   UNL     1       7.734   4.604  17.932  0.00  0.00    +0.000 A 
ENDBRANCH  27  28
ENDBRANCH  26  27
ENDBRANCH  25  26
ENDBRANCH  19  25
TORSDOF 6
ENDMDL
MODEL 3
REMARK VINA RESULT:      -7.9      4.392     10.361
REMARK  Name = 
REMARK  6 active torsions:
REMARK  status: ('A' for Active; 'I' for Inactive)
REMARK    1  A    between atoms: C_6  and  O_7
REMARK    2  A    between atoms: C_15  and  N_16
REMARK    3  A    between atoms: N_23  and  C_24
REMARK    4  A    between atoms: C_24  and  C_25
REMARK    5  A    between atoms: C_25  and  C_26
REMARK    6  A    between atoms: C_26  and  N_27
REMARK                            x       y       z     vdW  Elec       q    Type
REMARK                         _______ _______ _______ _____ _____    ______ ____
ROOT
ATOM      1  O   UNL     1       4.862   3.309  18.148  0.00  0.00    +0.000 OA
ATOM      2  C   UNL     1       4.074   4.082  18.637  0.00  0.00    +0.000 C 
ATOM      3  C   UNL     1       3.344   3.559  19.698  0.00  0.00    +0.000 A 
ATOM      4  C   UNL     1       3.496   2.270  20.162  0.00  0.00    +0.000 A 
ATOM      5  C   UNL     1       2.689   1.930  21.215  0.00  0.00    +0.000 A 
ATOM      6  C   UNL     1       1.798   2.876  21.726  0.00  0.00    +0.000 A 
ATOM      7  C   UNL     1       1.708   4.174  21.200  0.00  0.00    +0.000 A 
ATOM      8  C   UNL     1       2.499   4.543  20.148  0.00  0.00    +0.000 A 
ATOM      9  C   UNL     1       2.693   5.750  19.344  0.00  0.00    +0.000 A 
ATOM     10  C   UNL     1       3.640   5.466  18.438  0.00  0.00    +0.000 A 
ATOM     11  C   UNL     1       4.110   6.419  17.481  0.00  0.00    +0.000 A 
ATOM     12  C   UNL     1       5.223   6.252  16.461  0.00  0.00    +0.000 A 
ATOM     13  C   UNL     1       5.534   5.152  16.479  0.00  0.00    +0.000 A 
ATOM     14  C   UNL     1       5.668   6.172  15.796  0.00  0.00    +0.000 A 
ATOM     15  C   UNL     1       4.404   7.731  16.387  0.00  0.00    +0.000 A 
ATOM     16  C   UNL     1       3.588   7.586  17.439  0.00  0.00    +0.000 A 
ATOM     17  C   UNL     1       2.483   8.027  18.458  0.00  0.00    +0.000 A 
ATOM     18  O   UNL     1       1.990   9.153  18.450  0.00  0.00    +0.000 OA
ATOM     19  N   UNL     1       2.076   6.993  19.415  0.00  0.00    +0.000 N 
ENDROOT
BRANCH  14  20
ATOM     20  N   UNL     1       6.819   4.731  15.272  0.00  0.00    +0.000 N 
ATOM     21  O   UNL     1       6.603   3.923  14.278  0.00  0.00    +0.000 OA
ATOM     22  O   UNL     1       7.872   4.480  15.881  0.00  0.00    +0.000 OA
ENDBRANCH  14  20
BRANCH   6  23
ATOM     23  O   UNL     1       0.966   2.587  22.767  0.00  0.00    +0.000 OA
ATOM     24  H   UNL     1       0.754   3.387  23.279  0.00  0.00    +0.000 HD
ENDBRANCH   6  23
BRANCH  19  25
ATOM     25  C   UNL     1       1.032   7.191  20.469  0.00  0.00    +0.000 C 
BRANCH  25  26
ATOM     26  C   UNL     1       1.328   8.312  21.422  0.00  0.00    +0.000 C 
BRANCH  26  27
ATOM     27  C   UNL     1       0.136   9.160  21.774  0.00  0.00    +0.000 C 
BRANCH  27  28
ATOM     28  N   UNL     1       0.065  10.308  20.889  0.00  0.00    +0.000 N 
ATOM     29  C   UNL     1      -0.812  10.513  19.858  0.00  0.00    +0.000 A 
ATOM     30  C   UNL     1      -0.483  11.739  19.342  0.00  0.00    +0.000 A 
ATOM     31  N   UNL     1       0.572  12.281  20.022  0.00  0.00    +0.000 NA
ATOM     32  C   UNL     1       0.882  11.398  20.945  0.00  0.00    +0.000 A 
ENDBRANCH  27  28
ENDBRANCH  26  27
ENDBRANCH  25  26
ENDBRANCH  19  25
TORSDOF 6
ENDMDL
MODEL 4
REMARK VINA RESULT:      -7.7      1.245      1.687
REMARK  Name = 
REMARK  6 active torsions:
REMARK  status: ('A' for Active; 'I' for Inactive)
REMARK    1  A    between atoms: C_6  and  O_7
REMARK    2  A    between atoms: C_15  and  N_16
REMARK    3  A    between atoms: N_23  and  C_24
REMARK    4  A    between atoms: C_24  and  C_25
REMARK    5  A    between atoms: C_25  and  C_26
REMARK    6  A    between atoms: C_26  and  N_27
REMARK                            x       y       z     vdW  Elec       q    Type
REMARK                         _______ _______ _______ _____ _____    ______ ____
ROOT
ATOM      1  O   UNL     1      -5.695  12.044  20.221  0.00  0.00    +0.000 OA
ATOM      2  C   UNL     1      -4.505  12.131  20.035  0.00  0.00    +0.000 C 
ATOM      3  C   UNL     1      -4.098  11.761  18.758  0.00  0.00    +0.000 A 
ATOM      4  C   UNL     1      -4.968  11.331  17.779  0.00  0.00    +0.000 A 
ATOM      5  C   UNL     1      -4.384  11.007  16.583  0.00  0.00    +0.000 A 
ATOM      6  C   UNL     1      -3.000  11.129  16.442  0.00  0.00    +0.000 A 
ATOM      7  C   UNL     1      -2.184  11.582  17.489  0.00  0.00    +0.000 A 
ATOM      8  C   UNL     1      -2.735  11.911  18.696  0.00  0.00    +0.000 A 
ATOM      9  C   UNL     1      -2.243  12.398  19.985  0.00  0.00    +0.000 A 
ATOM     10  C   UNL     1      -3.312  12.528  20.785  0.00  0.00    +0.000 A 
ATOM     11  C   UNL     1      -3.222  13.001  22.131  0.00  0.00    +0.000 A 
ATOM     12  C   UNL     1      -4.353  13.267  23.109  0.00  0.00    +0.000 A 
ATOM     13  C   UNL     1      -5.312  12.870  22.631  0.00  0.00    +0.000 A 
ATOM     14  C   UNL     1      -4.877  13.258  23.720  0.00  0.00    +0.000 A 
ATOM     15  C   UNL     1      -2.799  13.497  23.738  0.00  0.00    +0.000 A 
ATOM     16  C   UNL     1      -2.077  13.277  22.631  0.00  0.00    +0.000 A 
ATOM     17  C   UNL     1      -0.765  13.173  21.782  0.00  0.00    +0.000 A 
ATOM     18  O   UNL     1       0.340  13.461  22.237  0.00  0.00    +0.000 OA
ATOM     19  N   UNL     1      -0.954  12.698  20.407  0.00  0.00    +0.000 N 
ENDROOT
BRANCH  14  20
ATOM     20  N   UNL     1      -6.780  13.033  23.681  0.00  0.00    +0.000 N 
ATOM     21  O   UNL     1      -7.399  11.902  23.520  0.00  0.00    +0.000 OA
ATOM     22  O   UNL     1      -7.555  13.996  23.807  0.00  0.00    +0.000 OA
ENDBRANCH  14  20
BRANCH   6  23
ATOM     23  O   UNL     1      -2.369  10.811  15.276  0.00  0.00    +0.000 OA
ATOM     24  H   UNL     1      -2.754  10.013  14.875  0.00  0.00    +0.000 HD
ENDBRANCH   6  23
BRANCH  19  25
ATOM     25  C   UNL     1       0.159  12.513  19.424  0.00  0.00    +0.000 C 
BRANCH  25  26
ATOM     26  C   UNL     1       1.109  11.406  19.775  0.00  0.00    +0.000 C 
BRANCH  26  27
ATOM     27  C   UNL     1       0.493  10.033  19.768  0.00  0.00    +0.000 C 
BRANCH  27  28
ATOM     28  N   UNL     1       1.394   9.088  19.134  0.00  0.00    +0.000 N 
ATOM     29  C   UNL     1       1.935   9.166  17.879  0.00  0.00    +0.000 A 
ATOM     30  C   UNL     1       2.720   8.050  17.754  0.00  0.00    +0.000 A 
ATOM     31  N   UNL     1       2.666   7.293  18.892  0.00  0.00    +0.000 NA
ATOM     32  C   UNL     1       1.859   7.940  19.703  0.00  0.00    +0.000 A 
ENDBRANCH  27  28
ENDBRANCH  26  27
ENDBRANCH  25  26
ENDBRANCH  19  25
TORSDOF 6
ENDMDL
MODEL 5
REMARK VINA RESULT:      -7.5      4.725      8.499
REMARK  Name = 
REMARK  6 active torsions:
REMARK  status: ('A' for Active; 'I' for Inactive)
REMARK    1  A    between atoms: C_6  and  O_7
REMARK    2  A    between atoms: C_15  and  N_16
REMARK    3  A    between atoms: N_23  and  C_24
REMARK    4  A    between atoms: C_24  and  C_25
REMARK    5  A    between atoms: C_25  and  C_26
REMARK    6  A    between atoms: C_26  and  N_27
REMARK                            x       y       z     vdW  Elec       q    Type
REMARK                         _______ _______ _______ _____ _____    ______ ____
ROOT
ATOM      1  O   UNL     1       1.427   5.995  21.179  0.00  0.00    +0.000 OA
ATOM      2  C   UNL     1       2.240   5.777  20.313  0.00  0.00    +0.000 C 
ATOM      3  C   UNL     1       2.849   4.530  20.403  0.00  0.00    +0.000 A 
ATOM      4  C   UNL     1       2.557   3.612  21.388  0.00  0.00    +0.000 A 
ATOM      5  C   UNL     1       3.259   2.437  21.316  0.00  0.00    +0.000 A 
ATOM      6  C   UNL     1       4.188   2.258  20.289  0.00  0.00    +0.000 A 
ATOM      7  C   UNL     1       4.422   3.243  19.318  0.00  0.00    +0.000 A 
ATOM      8  C   UNL     1       3.740   4.426  19.363  0.00  0.00    +0.000 A 
ATOM      9  C   UNL     1       3.704   5.657  18.571  0.00  0.00    +0.000 A 
ATOM     10  C   UNL     1       2.801   6.463  19.149  0.00  0.00    +0.000 A 
ATOM     11  C   UNL     1       2.479   7.760  18.638  0.00  0.00    +0.000 A 
ATOM     12  C   UNL     1       1.430   8.734  19.145  0.00  0.00    +0.000 A 
ATOM     13  C   UNL     1       1.028   8.312  20.128  0.00  0.00    +0.000 A 
ATOM     14  C   UNL     1       1.028   9.353  19.463  0.00  0.00    +0.000 A 
ATOM     15  C   UNL     1       2.373   9.307  17.862  0.00  0.00    +0.000 A 
ATOM     16  C   UNL     1       3.099   8.210  17.612  0.00  0.00    +0.000 A 
ATOM     17  C   UNL     1       4.164   7.346  16.854  0.00  0.00    +0.000 A 
ATOM     18  O   UNL     1       4.748   7.750  15.851  0.00  0.00    +0.000 OA
ATOM     19  N   UNL     1       4.415   6.023  17.436  0.00  0.00    +0.000 N 
ENDROOT
BRANCH  14  20
ATOM     20  N   UNL     1      -0.200   9.374  20.935  0.00  0.00    +0.000 N 
ATOM     21  O   UNL     1      -0.681   8.321  21.526  0.00  0.00    +0.000 OA
ATOM     22  O   UNL     1      -0.622  10.437  21.420  0.00  0.00    +0.000 OA
ENDBRANCH  14  20
BRANCH   6  23
ATOM     23  O   UNL     1       4.918   1.112  20.177  0.00  0.00    +0.000 OA
ATOM     24  H   UNL     1       4.680   0.621  19.371  0.00  0.00    +0.000 HD
ENDBRANCH   6  23
BRANCH  19  25
ATOM     25  C   UNL     1       5.397   5.038  16.883  0.00  0.00    +0.000 C 
BRANCH  25  26
ATOM     26  C   UNL     1       4.933   4.345  15.636  0.00  0.00    +0.000 C 
BRANCH  26  27
ATOM     27  C   UNL     1       5.941   3.401  15.038  0.00  0.00    +0.000 C 
BRANCH  27  28
ATOM     28  N   UNL     1       6.590   4.023  13.898  0.00  0.00    +0.000 N 
ATOM     29  C   UNL     1       6.481   3.669  12.581  0.00  0.00    +0.000 A 
ATOM     30  C   UNL     1       7.269   4.561  11.901  0.00  0.00    +0.000 A 
ATOM     31  N   UNL     1       7.859   5.440  12.765  0.00  0.00    +0.000 NA
ATOM     32  C   UNL     1       7.435   5.091  13.960  0.00  0.00    +0.000 A 
ENDBRANCH  27  28
ENDBRANCH  26  27
ENDBRANCH  25  26
ENDBRANCH  19  25
TORSDOF 6
ENDMDL
MODEL 6
REMARK VINA RESULT:      -7.5      2.178      2.571
REMARK  Name = 
REMARK  6 active torsions:
REMARK  status: ('A' for Active; 'I' for Inactive)
REMARK    1  A    between atoms: C_6  and  O_7
REMARK    2  A    between atoms: C_15  and  N_16
REMARK    3  A    between atoms: N_23  and  C_24
REMARK    4  A    between atoms: C_24  and  C_25
REMARK    5  A    between atoms: C_25  and  C_26
REMARK    6  A    between atoms: C_26  and  N_27
REMARK                            x       y       z     vdW  Elec       q    Type
REMARK                         _______ _______ _______ _____ _____    ______ ____
ROOT
ATOM      1  O   UNL     1      -5.641  12.107  19.759  0.00  0.00    +0.000 OA
ATOM      2  C   UNL     1      -4.447  12.106  19.580  0.00  0.00    +0.000 C 
ATOM      3  C   UNL     1      -4.059  11.677  18.316  0.00  0.00    +0.000 A 
ATOM      4  C   UNL     1      -4.950  11.285  17.341  0.00  0.00    +0.000 A 
ATOM      5  C   UNL     1      -4.383  10.892  16.158  0.00  0.00    +0.000 A 
ATOM      6  C   UNL     1      -2.993  10.913  16.026  0.00  0.00    +0.000 A 
ATOM      7  C   UNL     1      -2.153  11.334  17.068  0.00  0.00    +0.000 A 
ATOM      8  C   UNL     1      -2.688  11.730  18.261  0.00  0.00    +0.000 A 
ATOM      9  C   UNL     1      -2.172  12.213  19.543  0.00  0.00    +0.000 A 
ATOM     10  C   UNL     1      -3.234  12.437  20.330  0.00  0.00    +0.000 A 
ATOM     11  C   UNL     1      -3.120  12.936  21.665  0.00  0.00    +0.000 A 
ATOM     12  C   UNL     1      -4.236  13.304  22.628  0.00  0.00    +0.000 A 
ATOM     13  C   UNL     1      -5.217  12.963  22.151  0.00  0.00    +0.000 A 
ATOM     14  C   UNL     1      -4.762  13.346  23.234  0.00  0.00    +0.000 A 
ATOM     15  C   UNL     1      -2.673  13.441  23.263  0.00  0.00    +0.000 A 
ATOM     16  C   UNL     1      -1.961  13.144  22.168  0.00  0.00    +0.000 A 
ATOM     17  C   UNL     1      -0.654  12.928  21.332  0.00  0.00    +0.000 A 
ATOM     18  O   UNL     1       0.465  13.150  21.789  0.00  0.00    +0.000 OA
ATOM     19  N   UNL     1      -0.868  12.433  19.967  0.00  0.00    +0.000 N 
ENDROOT
BRANCH  14  20
ATOM     20  N   UNL     1      -6.677  13.254  23.185  0.00  0.00    +0.000 N 
ATOM     21  O   UNL     1      -7.455  14.118  22.605  0.00  0.00    +0.000 OA
ATOM     22  O   UNL     1      -7.301  12.330  23.731  0.00  0.00    +0.000 OA
ENDBRANCH  14  20
BRANCH   6  23
ATOM     23  O   UNL     1      -2.378  10.524  14.872  0.00  0.00    +0.000 OA
ATOM     24  H   UNL     1      -2.600   9.602  14.650  0.00  0.00    +0.000 HD
ENDBRANCH   6  23
BRANCH  19  25
ATOM     25  C   UNL     1       0.236  12.147  18.998  0.00  0.00    +0.000 C 
BRANCH  25  26
ATOM     26  C   UNL     1       1.052  10.936  19.339  0.00  0.00    +0.000 C 
BRANCH  26  27
ATOM     27  C   UNL     1       0.245   9.750  19.795  0.00  0.00    +0.000 C 
BRANCH  27  28
ATOM     28  N   UNL     1       0.301   9.639  21.242  0.00  0.00    +0.000 N 
ATOM     29  C   UNL     1      -0.752   9.521  22.109  0.00  0.00    +0.000 A 
ATOM     30  C   UNL     1      -0.185   9.438  23.355  0.00  0.00    +0.000 A 
ATOM     31  N   UNL     1       1.178   9.510  23.270  0.00  0.00    +0.000 NA
ATOM     32  C   UNL     1       1.441   9.633  21.988  0.00  0.00    +0.000 A 
ENDBRANCH  27  28
ENDBRANCH  26  27
ENDBRANCH  25  26
ENDBRANCH  19  25
TORSDOF 6
ENDMDL
MODEL 7
REMARK VINA RESULT:      -7.3      2.461      8.530
REMARK  Name = 
REMARK  6 active torsions:
REMARK  status: ('A' for Active; 'I' for Inactive)
REMARK    1  A    between atoms: C_6  and  O_7
REMARK    2  A    between atoms: C_15  and  N_16
REMARK    3  A    between atoms: N_23  and  C_24
REMARK    4  A    between atoms: C_24  and  C_25
REMARK    5  A    between atoms: C_25  and  C_26
REMARK    6  A    between atoms: C_26  and  N_27
REMARK                            x       y       z     vdW  Elec       q    Type
REMARK                         _______ _______ _______ _____ _____    ______ ____
ROOT
ATOM      1  O   UNL     1      -0.057  11.644  20.734  0.00  0.00    +0.000 OA
ATOM      2  C   UNL     1      -1.220  11.935  20.592  0.00  0.00    +0.000 C 
ATOM      3  C   UNL     1      -1.733  12.748  21.596  0.00  0.00    +0.000 A 
ATOM      4  C   UNL     1      -0.988  13.193  22.667  0.00  0.00    +0.000 A 
ATOM      5  C   UNL     1      -1.663  13.985  23.557  0.00  0.00    +0.000 A 
ATOM      6  C   UNL     1      -3.010  14.275  23.330  0.00  0.00    +0.000 A 
ATOM      7  C   UNL     1      -3.696  13.787  22.208  0.00  0.00    +0.000 A 
ATOM      8  C   UNL     1      -3.051  12.993  21.302  0.00  0.00    +0.000 A 
ATOM      9  C   UNL     1      -3.403  12.308  20.057  0.00  0.00    +0.000 A 
ATOM     10  C   UNL     1      -2.298  11.675  19.637  0.00  0.00    +0.000 A 
ATOM     11  C   UNL     1      -2.255  10.906  18.431  0.00  0.00    +0.000 A 
ATOM     12  C   UNL     1      -1.059  10.210  17.806  0.00  0.00    +0.000 A 
ATOM     13  C   UNL     1      -0.201  10.273  18.559  0.00  0.00    +0.000 A 
ATOM     14  C   UNL     1      -0.522   9.682  17.523  0.00  0.00    +0.000 A 
ATOM     15  C   UNL     1      -2.525   9.972  16.996  0.00  0.00    +0.000 A 
ATOM     16  C   UNL     1      -3.316  10.767  17.729  0.00  0.00    +0.000 A 
ATOM     17  C   UNL     1      -4.657  11.474  18.122  0.00  0.00    +0.000 A 
ATOM     18  O   UNL     1      -5.678  11.374  17.445  0.00  0.00    +0.000 OA
ATOM     19  N   UNL     1      -4.604  12.256  19.362  0.00  0.00    +0.000 N 
ENDROOT
BRANCH  14  20
ATOM     20  N   UNL     1       1.312   9.432  18.022  0.00  0.00    +0.000 N 
ATOM     21  O   UNL     1       1.752   8.507  18.822  0.00  0.00    +0.000 OA
ATOM     22  O   UNL     1       2.213  10.172  17.595  0.00  0.00    +0.000 OA
ENDBRANCH  14  20
BRANCH   6  23
ATOM     23  O   UNL     1      -3.730  15.051  24.190  0.00  0.00    +0.000 OA
ATOM     24  H   UNL     1      -3.146  15.616  24.726  0.00  0.00    +0.000 HD
ENDBRANCH   6  23
BRANCH  19  25
ATOM     25  C   UNL     1      -5.769  13.004  19.931  0.00  0.00    +0.000 C 
BRANCH  25  26
ATOM     26  C   UNL     1      -6.692  12.162  20.762  0.00  0.00    +0.000 C 
BRANCH  26  27
ATOM     27  C   UNL     1      -7.910  12.888  21.267  0.00  0.00    +0.000 C 
BRANCH  27  28
ATOM     28  N   UNL     1      -7.525  13.873  22.261  0.00  0.00    +0.000 N 
ATOM     29  C   UNL     1      -7.513  15.235  22.124  0.00  0.00    +0.000 A 
ATOM     30  C   UNL     1      -7.088  15.715  23.335  0.00  0.00    +0.000 A 
ATOM     31  N   UNL     1      -6.833  14.687  24.200  0.00  0.00    +0.000 NA
ATOM     32  C   UNL     1      -7.102  13.591  23.526  0.00  0.00    +0.000 A 
ENDBRANCH  27  28
ENDBRANCH  26  27
ENDBRANCH  25  26
ENDBRANCH  19  25
TORSDOF 6
ENDMDL
MODEL 8
REMARK VINA RESULT:      -7.3      4.457     10.455
REMARK  Name = 
REMARK  6 active torsions:
REMARK  status: ('A' for Active; 'I' for Inactive)
REMARK    1  A    between atoms: C_6  and  O_7
REMARK    2  A    between atoms: C_15  and  N_16
REMARK    3  A    between atoms: N_23  and  C_24
REMARK    4  A    between atoms: C_24  and  C_25
REMARK    5  A    between atoms: C_25  and  C_26
REMARK    6  A    between atoms: C_26  and  N_27
REMARK                            x       y       z     vdW  Elec       q    Type
REMARK                         _______ _______ _______ _____ _____    ______ ____
ROOT
ATOM      1  O   UNL     1       4.728   3.307  17.952  0.00  0.00    +0.000 OA
ATOM      2  C   UNL     1       3.984   4.087  18.498  0.00  0.00    +0.000 C 
ATOM      3  C   UNL     1       3.275   3.549  19.566  0.00  0.00    +0.000 A 
ATOM      4  C   UNL     1       3.401   2.240  19.977  0.00  0.00    +0.000 A 
ATOM      5  C   UNL     1       2.621   1.888  21.047  0.00  0.00    +0.000 A 
ATOM      6  C   UNL     1       1.781   2.843  21.624  0.00  0.00    +0.000 A 
ATOM      7  C   UNL     1       1.716   4.161  21.147  0.00  0.00    +0.000 A 
ATOM      8  C   UNL     1       2.481   4.543  20.081  0.00  0.00    +0.000 A 
ATOM      9  C   UNL     1       2.686   5.772  19.314  0.00  0.00    +0.000 A 
ATOM     10  C   UNL     1       3.591   5.491  18.364  0.00  0.00    +0.000 A 
ATOM     11  C   UNL     1       4.058   6.462  17.425  0.00  0.00    +0.000 A 
ATOM     12  C   UNL     1       5.127   6.298  16.359  0.00  0.00    +0.000 A 
ATOM     13  C   UNL     1       5.402   5.188  16.327  0.00  0.00    +0.000 A 
ATOM     14  C   UNL     1       5.544   6.228  15.675  0.00  0.00    +0.000 A 
ATOM     15  C   UNL     1       4.356   7.804  16.367  0.00  0.00    +0.000 A 
ATOM     16  C   UNL     1       3.574   7.647  17.443  0.00  0.00    +0.000 A 
ATOM     17  C   UNL     1       2.521   8.086  18.517  0.00  0.00    +0.000 A 
ATOM     18  O   UNL     1       2.067   9.226  18.568  0.00  0.00    +0.000 OA
ATOM     19  N   UNL     1       2.114   7.030  19.452  0.00  0.00    +0.000 N 
ENDROOT
BRANCH  14  20
ATOM     20  N   UNL     1       6.627   4.771  15.058  0.00  0.00    +0.000 N 
ATOM     21  O   UNL     1       7.787   4.441  15.541  0.00  0.00    +0.000 OA
ATOM     22  O   UNL     1       6.265   4.037  14.123  0.00  0.00    +0.000 OA
ENDBRANCH  14  20
BRANCH   6  23
ATOM     23  O   UNL     1       0.978   2.542  22.684  0.00  0.00    +0.000 OA
ATOM     24  H   UNL     1       1.178   1.657  23.036  0.00  0.00    +0.000 HD
ENDBRANCH   6  23
BRANCH  19  25
ATOM     25  C   UNL     1       1.116   7.224  20.550  0.00  0.00    +0.000 C 
BRANCH  25  26
ATOM     26  C   UNL     1       0.713   8.652  20.767  0.00  0.00    +0.000 C 
BRANCH  26  27
ATOM     27  C   UNL     1       0.406   9.001  22.199  0.00  0.00    +0.000 C 
BRANCH  27  28
ATOM     28  N   UNL     1      -0.252  10.293  22.264  0.00  0.00    +0.000 N 
ATOM     29  C   UNL     1      -1.125  10.736  23.221  0.00  0.00    +0.000 A 
ATOM     30  C   UNL     1      -1.453  12.013  22.847  0.00  0.00    +0.000 A 
ATOM     31  N   UNL     1      -0.813  12.356  21.688  0.00  0.00    +0.000 NA
ATOM     32  C   UNL     1      -0.100  11.302  21.360  0.00  0.00    +0.000 A 
ENDBRANCH  27  28
ENDBRANCH  26  27
ENDBRANCH  25  26
ENDBRANCH  19  25
TORSDOF 6
ENDMDL
MODEL 9
REMARK VINA RESULT:      -7.3      2.304      2.778
REMARK  Name = 
REMARK  6 active torsions:
REMARK  status: ('A' for Active; 'I' for Inactive)
REMARK    1  A    between atoms: C_6  and  O_7
REMARK    2  A    between atoms: C_15  and  N_16
REMARK    3  A    between atoms: N_23  and  C_24
REMARK    4  A    between atoms: C_24  and  C_25
REMARK    5  A    between atoms: C_25  and  C_26
REMARK    6  A    between atoms: C_26  and  N_27
REMARK                            x       y       z     vdW  Elec       q    Type
REMARK                         _______ _______ _______ _____ _____    ______ ____
ROOT
ATOM      1  O   UNL     1      -5.937  11.854  20.687  0.00  0.00    +0.000 OA
ATOM      2  C   UNL     1      -4.779  12.118  20.465  0.00  0.00    +0.000 C 
ATOM      3  C   UNL     1      -4.369  11.835  19.167  0.00  0.00    +0.000 A 
ATOM      4  C   UNL     1      -5.201  11.301  18.207  0.00  0.00    +0.000 A 
ATOM      5  C   UNL     1      -4.619  11.088  16.985  0.00  0.00    +0.000 A 
ATOM      6  C   UNL     1      -3.274  11.413  16.802  0.00  0.00    +0.000 A 
ATOM      7  C   UNL     1      -2.495  11.962  17.833  0.00  0.00    +0.000 A 
ATOM      8  C   UNL     1      -3.045  12.184  19.064  0.00  0.00    +0.000 A 
ATOM      9  C   UNL     1      -2.584  12.714  20.348  0.00  0.00    +0.000 A 
ATOM     10  C   UNL     1      -3.631  12.671  21.184  0.00  0.00    +0.000 A 
ATOM     11  C   UNL     1      -3.563  13.127  22.538  0.00  0.00    +0.000 A 
ATOM     12  C   UNL     1      -4.685  13.206  23.558  0.00  0.00    +0.000 A 
ATOM     13  C   UNL     1      -5.592  12.682  23.102  0.00  0.00    +0.000 A 
ATOM     14  C   UNL     1      -5.179  13.109  24.185  0.00  0.00    +0.000 A 
ATOM     15  C   UNL     1      -3.160  13.649  24.141  0.00  0.00    +0.000 A 
ATOM     16  C   UNL     1      -2.453  13.558  23.007  0.00  0.00    +0.000 A 
ATOM     17  C   UNL     1      -1.171  13.663  22.113  0.00  0.00    +0.000 A 
ATOM     18  O   UNL     1      -0.104  14.101  22.538  0.00  0.00    +0.000 OA
ATOM     19  N   UNL     1      -1.338  13.191  20.734  0.00  0.00    +0.000 N 
ENDROOT
BRANCH  14  20
ATOM     20  N   UNL     1      -7.030  12.609  24.203  0.00  0.00    +0.000 N 
ATOM     21  O   UNL     1      -7.499  11.454  23.836  0.00  0.00    +0.000 OA
ATOM     22  O   UNL     1      -7.917  13.395  24.576  0.00  0.00    +0.000 OA
ENDBRANCH  14  20
BRANCH   6  23
ATOM     23  O   UNL     1      -2.645  11.214  15.609  0.00  0.00    +0.000 OA
ATOM     24  H   UNL     1      -1.688  11.378  15.685  0.00  0.00    +0.000 HD
ENDBRANCH   6  23
BRANCH  19  25
ATOM     25  C   UNL     1      -0.245  13.190  19.711  0.00  0.00    +0.000 C 
BRANCH  25  26
ATOM     26  C   UNL     1       0.440  11.865  19.548  0.00  0.00    +0.000 C 
BRANCH  26  27
ATOM     27  C   UNL     1       1.216  11.414  20.756  0.00  0.00    +0.000 C 
BRANCH  27  28
ATOM     28  N   UNL     1       0.722  10.128  21.212  0.00  0.00    +0.000 N 
ATOM     29  C   UNL     1       1.163   8.886  20.841  0.00  0.00    +0.000 A 
ATOM     30  C   UNL     1       0.393   8.002  21.551  0.00  0.00    +0.000 A 
ATOM     31  N   UNL     1      -0.509   8.669  22.334  0.00  0.00    +0.000 NA
ATOM     32  C   UNL     1      -0.289   9.945  22.108  0.00  0.00    +0.000 A 
ENDBRANCH  27  28
ENDBRANCH  26  27
ENDBRANCH  25  26
ENDBRANCH  19  25
TORSDOF 6
ENDMDL
