MODEL 1
REMARK VINA RESULT:      -6.5      0.000      0.000
REMARK  Name = 
REMARK  10 active torsions:
REMARK  status: ('A' for Active; 'I' for Inactive)
REMARK    1  A    between atoms: C_1  and  C_2
REMARK    2  A    between atoms: C_2  and  C_3
REMARK    3  A    between atoms: C_3  and  C_4
REMARK    4  A    between atoms: C_4  and  C_5
REMARK    5  A    between atoms: C_5  and  C_6
REMARK    6  A    between atoms: C_10  and  C_11
REMARK    7  A    between atoms: C_11  and  C_12
REMARK    8  A    between atoms: C_11  and  C_13
REMARK    9  A    between atoms: C_13  and  N_14
REMARK   10  A    between atoms: C_15  and  C_16
REMARK                            x       y       z     vdW  Elec       q    Type
REMARK                         _______ _______ _______ _____ _____    ______ ____
ROOT
ATOM      1  C   UNL     1       6.833   4.696  14.221  0.00  0.00    +0.000 C 
ATOM      2  O   UNL     1       7.437   5.531  13.557  0.00  0.00    +0.000 OA
ATOM      3  N   UNL     1       6.684   4.780  15.592  0.00  0.00    +0.000 N 
ATOM      4  C   UNL     1       7.266   5.804  16.467  0.00  0.00    +0.000 C 
ATOM      5  C   UNL     1       6.006   5.671  17.362  0.00  0.00    +0.000 C 
ATOM      6  C   UNL     1       5.474   4.785  16.219  0.00  0.00    +0.000 C 
ATOM      7  O   UNL     1       4.453   4.163  16.013  0.00  0.00    +0.000 OA
ENDROOT
BRANCH   5   8
ATOM      8  C   UNL     1       6.057   5.006  18.749  0.00  0.00    +0.000 C 
ATOM      9  C   UNL     1       7.232   5.533  19.584  0.00  0.00    +0.000 C 
BRANCH   8  10
ATOM     10  C   UNL     1       4.753   5.205  19.545  0.00  0.00    +0.000 C 
BRANCH  10  11
ATOM     11  N   UNL     1       3.659   4.334  19.158  0.00  0.00    +0.000 N 
ATOM     12  C   UNL     1       2.378   4.811  18.986  0.00  0.00    +0.000 C 
ATOM     13  C   UNL     1       1.334   3.755  18.725  0.00  0.00    +0.000 C 
ATOM     14  O   UNL     1       2.095   6.005  19.029  0.00  0.00    +0.000 OA
ATOM     15  H   UNL     1       3.764   3.344  19.349  0.00  0.00    +0.000 HD
ENDBRANCH  10  11
ENDBRANCH   8  10
ENDBRANCH   5   8
BRANCH   1  16
ATOM     16  C   UNL     1       6.125   3.498  13.605  0.00  0.00    +0.000 C 
BRANCH  16  17
ATOM     17  C   UNL     1       6.194   3.510  12.082  0.00  0.00    +0.000 C 
BRANCH  17  18
ATOM     18  C   UNL     1       5.111   2.609  11.486  0.00  0.00    +0.000 C 
BRANCH  18  20
ATOM     19  C   UNL     1       3.428   3.797  10.038  0.00  0.00    +0.000 C 
ATOM     20  C   UNL     1       3.760   3.318  11.442  0.00  0.00    +0.000 C 
ENDBRANCH  18  20
ENDBRANCH  17  18
ENDBRANCH  16  17
ENDBRANCH   1  16
TORSDOF 7
ENDMDL
MODEL 2
REMARK VINA RESULT:      -6.5      2.053      6.688
REMARK  Name = 
REMARK  10 active torsions:
REMARK  status: ('A' for Active; 'I' for Inactive)
REMARK    1  A    between atoms: C_1  and  C_2
REMARK    2  A    between atoms: C_2  and  C_3
REMARK    3  A    between atoms: C_3  and  C_4
REMARK    4  A    between atoms: C_4  and  C_5
REMARK    5  A    between atoms: C_5  and  C_6
REMARK    6  A    between atoms: C_10  and  C_11
REMARK    7  A    between atoms: C_11  and  C_12
REMARK    8  A    between atoms: C_11  and  C_13
REMARK    9  A    between atoms: C_13  and  N_14
REMARK   10  A    between atoms: C_15  and  C_16
REMARK                            x       y       z     vdW  Elec       q    Type
REMARK                         _______ _______ _______ _____ _____    ______ ____
ROOT
ATOM      1  C   UNL     1       5.434   5.126  19.113  0.00  0.00    +0.000 C 
ATOM      2  O   UNL     1       6.253   4.807  19.968  0.00  0.00    +0.000 OA
ATOM      3  N   UNL     1       5.697   5.079  17.757  0.00  0.00    +0.000 N 
ATOM      4  C   UNL     1       6.976   4.725  17.133  0.00  0.00    +0.000 C 
ATOM      5  C   UNL     1       6.167   4.106  15.963  0.00  0.00    +0.000 C 
ATOM      6  C   UNL     1       4.948   4.364  16.870  0.00  0.00    +0.000 C 
ATOM      7  O   UNL     1       3.751   4.184  16.781  0.00  0.00    +0.000 OA
ENDROOT
BRANCH   5   8
ATOM      8  C   UNL     1       6.109   4.765  14.573  0.00  0.00    +0.000 C 
ATOM      9  C   UNL     1       7.515   5.013  14.008  0.00  0.00    +0.000 C 
BRANCH   8  10
ATOM     10  C   UNL     1       5.307   3.928  13.559  0.00  0.00    +0.000 C 
BRANCH  10  11
ATOM     11  N   UNL     1       6.099   3.021  12.748  0.00  0.00    +0.000 N 
ATOM     12  C   UNL     1       5.572   2.389  11.643  0.00  0.00    +0.000 C 
ATOM     13  C   UNL     1       6.480   1.373  10.998  0.00  0.00    +0.000 C 
ATOM     14  O   UNL     1       4.454   2.632  11.200  0.00  0.00    +0.000 OA
ATOM     15  H   UNL     1       6.909   2.596  13.185  0.00  0.00    +0.000 HD
ENDBRANCH  10  11
ENDBRANCH   8  10
ENDBRANCH   5   8
BRANCH   1  16
ATOM     16  C   UNL     1       4.013   5.555  19.442  0.00  0.00    +0.000 C 
BRANCH  16  17
ATOM     17  C   UNL     1       3.291   4.533  20.314  0.00  0.00    +0.000 C 
BRANCH  17  18
ATOM     18  C   UNL     1       1.840   4.955  20.551  0.00  0.00    +0.000 C 
BRANCH  18  20
ATOM     19  C   UNL     1       1.312   2.997  19.061  0.00  0.00    +0.000 C 
ATOM     20  C   UNL     1       0.875   3.807  20.270  0.00  0.00    +0.000 C 
ENDBRANCH  18  20
ENDBRANCH  17  18
ENDBRANCH  16  17
ENDBRANCH   1  16
TORSDOF 7
ENDMDL
MODEL 3
REMARK VINA RESULT:      -6.4      2.424      3.211
REMARK  Name = 
REMARK  10 active torsions:
REMARK  status: ('A' for Active; 'I' for Inactive)
REMARK    1  A    between atoms: C_1  and  C_2
REMARK    2  A    between atoms: C_2  and  C_3
REMARK    3  A    between atoms: C_3  and  C_4
REMARK    4  A    between atoms: C_4  and  C_5
REMARK    5  A    between atoms: C_5  and  C_6
REMARK    6  A    between atoms: C_10  and  C_11
REMARK    7  A    between atoms: C_11  and  C_12
REMARK    8  A    between atoms: C_11  and  C_13
REMARK    9  A    between atoms: C_13  and  N_14
REMARK   10  A    between atoms: C_15  and  C_16
REMARK                            x       y       z     vdW  Elec       q    Type
REMARK                         _______ _______ _______ _____ _____    ______ ____
ROOT
ATOM      1  C   UNL     1       6.849   4.682  16.468  0.00  0.00    +0.000 C 
ATOM      2  O   UNL     1       7.891   4.168  16.863  0.00  0.00    +0.000 OA
ATOM      3  N   UNL     1       5.737   4.852  17.270  0.00  0.00    +0.000 N 
ATOM      4  C   UNL     1       5.588   4.396  18.656  0.00  0.00    +0.000 C 
ATOM      5  C   UNL     1       4.699   5.642  18.908  0.00  0.00    +0.000 C 
ATOM      6  C   UNL     1       5.150   6.061  17.496  0.00  0.00    +0.000 C 
ATOM      7  O   UNL     1       4.933   7.005  16.765  0.00  0.00    +0.000 OA
ENDROOT
BRANCH   5   8
ATOM      8  C   UNL     1       3.178   5.532  19.114  0.00  0.00    +0.000 C 
ATOM      9  C   UNL     1       2.837   4.772  20.404  0.00  0.00    +0.000 C 
BRANCH   8  10
ATOM     10  C   UNL     1       2.488   6.908  19.151  0.00  0.00    +0.000 C 
BRANCH  10  11
ATOM     11  N   UNL     1       2.067   7.349  20.469  0.00  0.00    +0.000 N 
ATOM     12  C   UNL     1       1.347   8.510  20.649  0.00  0.00    +0.000 C 
ATOM     13  C   UNL     1       1.114   8.897  22.087  0.00  0.00    +0.000 C 
ATOM     14  O   UNL     1       0.914   9.182  19.718  0.00  0.00    +0.000 OA
ATOM     15  H   UNL     1       2.587   6.996  21.263  0.00  0.00    +0.000 HD
ENDBRANCH  10  11
ENDBRANCH   8  10
ENDBRANCH   5   8
BRANCH   1  16
ATOM     16  C   UNL     1       6.681   5.246  15.066  0.00  0.00    +0.000 C 
BRANCH  16  17
ATOM     17  C   UNL     1       5.639   4.479  14.259  0.00  0.00    +0.000 C 
BRANCH  17  18
ATOM     18  C   UNL     1       6.307   3.662  13.153  0.00  0.00    +0.000 C 
BRANCH  18  20
ATOM     19  C   UNL     1       5.700   1.932  11.428  0.00  0.00    +0.000 C 
ATOM     20  C   UNL     1       5.300   3.243  12.086  0.00  0.00    +0.000 C 
ENDBRANCH  18  20
ENDBRANCH  17  18
ENDBRANCH  16  17
ENDBRANCH   1  16
TORSDOF 7
ENDMDL
MODEL 4
REMARK VINA RESULT:      -6.4      3.152      4.757
REMARK  Name = 
REMARK  10 active torsions:
REMARK  status: ('A' for Active; 'I' for Inactive)
REMARK    1  A    between atoms: C_1  and  C_2
REMARK    2  A    between atoms: C_2  and  C_3
REMARK    3  A    between atoms: C_3  and  C_4
REMARK    4  A    between atoms: C_4  and  C_5
REMARK    5  A    between atoms: C_5  and  C_6
REMARK    6  A    between atoms: C_10  and  C_11
REMARK    7  A    between atoms: C_11  and  C_12
REMARK    8  A    between atoms: C_11  and  C_13
REMARK    9  A    between atoms: C_13  and  N_14
REMARK   10  A    between atoms: C_15  and  C_16
REMARK                            x       y       z     vdW  Elec       q    Type
REMARK                         _______ _______ _______ _____ _____    ______ ____
ROOT
ATOM      1  C   UNL     1       5.115   6.056  16.129  0.00  0.00    +0.000 C 
ATOM      2  O   UNL     1       5.029   6.770  15.135  0.00  0.00    +0.000 OA
ATOM      3  N   UNL     1       4.372   6.260  17.275  0.00  0.00    +0.000 N 
ATOM      4  C   UNL     1       3.442   7.368  17.522  0.00  0.00    +0.000 C 
ATOM      5  C   UNL     1       2.589   6.385  18.366  0.00  0.00    +0.000 C 
ATOM      6  C   UNL     1       3.553   5.316  17.819  0.00  0.00    +0.000 C 
ATOM      7  O   UNL     1       3.677   4.116  17.952  0.00  0.00    +0.000 OA
ENDROOT
BRANCH   5   8
ATOM      8  C   UNL     1       2.509   6.485  19.900  0.00  0.00    +0.000 C 
ATOM      9  C   UNL     1       1.883   7.814  20.347  0.00  0.00    +0.000 C 
BRANCH   8  10
ATOM     10  C   UNL     1       1.711   5.324  20.524  0.00  0.00    +0.000 C 
BRANCH  10  11
ATOM     11  N   UNL     1       1.210   4.345  19.577  0.00  0.00    +0.000 N 
ATOM     12  C   UNL     1       1.054   3.020  19.919  0.00  0.00    +0.000 C 
ATOM     13  C   UNL     1       0.662   2.111  18.782  0.00  0.00    +0.000 C 
ATOM     14  O   UNL     1       1.210   2.599  21.061  0.00  0.00    +0.000 OA
ATOM     15  H   UNL     1       1.304   4.563  18.592  0.00  0.00    +0.000 HD
ENDBRANCH  10  11
ENDBRANCH   8  10
ENDBRANCH   5   8
BRANCH   1  16
ATOM     16  C   UNL     1       6.008   4.826  16.193  0.00  0.00    +0.000 C 
BRANCH  16  17
ATOM     17  C   UNL     1       7.438   5.174  16.594  0.00  0.00    +0.000 C 
BRANCH  17  18
ATOM     18  C   UNL     1       7.697   4.793  18.053  0.00  0.00    +0.000 C 
BRANCH  18  20
ATOM     19  C   UNL     1       8.010   7.286  18.218  0.00  0.00    +0.000 C 
ATOM     20  C   UNL     1       7.638   6.015  18.965  0.00  0.00    +0.000 C 
ENDBRANCH  18  20
ENDBRANCH  17  18
ENDBRANCH  16  17
ENDBRANCH   1  16
TORSDOF 7
ENDMDL
MODEL 5
REMARK VINA RESULT:      -6.4      1.696      6.383
REMARK  Name = 
REMARK  10 active torsions:
REMARK  status: ('A' for Active; 'I' for Inactive)
REMARK    1  A    between atoms: C_1  and  C_2
REMARK    2  A    between atoms: C_2  and  C_3
REMARK    3  A    between atoms: C_3  and  C_4
REMARK    4  A    between atoms: C_4  and  C_5
REMARK    5  A    between atoms: C_5  and  C_6
REMARK    6  A    between atoms: C_10  and  C_11
REMARK    7  A    between atoms: C_11  and  C_12
REMARK    8  A    between atoms: C_11  and  C_13
REMARK    9  A    between atoms: C_13  and  N_14
REMARK   10  A    between atoms: C_15  and  C_16
REMARK                            x       y       z     vdW  Elec       q    Type
REMARK                         _______ _______ _______ _____ _____    ______ ____
ROOT
ATOM      1  C   UNL     1       2.152   5.052  18.364  0.00  0.00    +0.000 C 
ATOM      2  O   UNL     1       1.552   5.631  19.262  0.00  0.00    +0.000 OA
ATOM      3  N   UNL     1       3.419   5.411  17.944  0.00  0.00    +0.000 N 
ATOM      4  C   UNL     1       4.203   6.552  18.430  0.00  0.00    +0.000 C 
ATOM      5  C   UNL     1       5.477   5.697  18.202  0.00  0.00    +0.000 C 
ATOM      6  C   UNL     1       4.479   4.554  17.934  0.00  0.00    +0.000 C 
ATOM      7  O   UNL     1       4.569   3.380  17.639  0.00  0.00    +0.000 OA
ENDROOT
BRANCH   5   8
ATOM      8  C   UNL     1       6.467   5.995  17.061  0.00  0.00    +0.000 C 
ATOM      9  C   UNL     1       7.454   7.106  17.446  0.00  0.00    +0.000 C 
BRANCH   8  10
ATOM     10  C   UNL     1       7.263   4.748  16.632  0.00  0.00    +0.000 C 
BRANCH  10  11
ATOM     11  N   UNL     1       6.728   4.044  15.482  0.00  0.00    +0.000 N 
ATOM     12  C   UNL     1       6.930   4.496  14.196  0.00  0.00    +0.000 C 
ATOM     13  C   UNL     1       6.189   3.732  13.128  0.00  0.00    +0.000 C 
ATOM     14  O   UNL     1       7.663   5.443  13.925  0.00  0.00    +0.000 OA
ATOM     15  H   UNL     1       5.936   3.432  15.640  0.00  0.00    +0.000 HD
ENDBRANCH  10  11
ENDBRANCH   8  10
ENDBRANCH   5   8
BRANCH   1  16
ATOM     16  C   UNL     1       1.598   3.831  17.647  0.00  0.00    +0.000 C 
BRANCH  16  17
ATOM     17  C   UNL     1       0.868   2.887  18.596  0.00  0.00    +0.000 C 
BRANCH  17  18
ATOM     18  C   UNL     1       1.829   2.327  19.646  0.00  0.00    +0.000 C 
BRANCH  18  20
ATOM     19  C   UNL     1       2.321   3.529  21.802  0.00  0.00    +0.000 C 
ATOM     20  C   UNL     1       1.344   2.629  21.061  0.00  0.00    +0.000 C 
ENDBRANCH  18  20
ENDBRANCH  17  18
ENDBRANCH  16  17
ENDBRANCH   1  16
TORSDOF 7
ENDMDL
MODEL 6
REMARK VINA RESULT:      -6.3      1.128      1.591
REMARK  Name = 
REMARK  10 active torsions:
REMARK  status: ('A' for Active; 'I' for Inactive)
REMARK    1  A    between atoms: C_1  and  C_2
REMARK    2  A    between atoms: C_2  and  C_3
REMARK    3  A    between atoms: C_3  and  C_4
REMARK    4  A    between atoms: C_4  and  C_5
REMARK    5  A    between atoms: C_5  and  C_6
REMARK    6  A    between atoms: C_10  and  C_11
REMARK    7  A    between atoms: C_11  and  C_12
REMARK    8  A    between atoms: C_11  and  C_13
REMARK    9  A    between atoms: C_13  and  N_14
REMARK   10  A    between atoms: C_15  and  C_16
REMARK                            x       y       z     vdW  Elec       q    Type
REMARK                         _______ _______ _______ _____ _____    ______ ____
ROOT
ATOM      1  C   UNL     1       6.765   4.752  14.221  0.00  0.00    +0.000 C 
ATOM      2  O   UNL     1       7.476   5.522  13.586  0.00  0.00    +0.000 OA
ATOM      3  N   UNL     1       6.607   4.822  15.592  0.00  0.00    +0.000 N 
ATOM      4  C   UNL     1       7.297   5.747  16.499  0.00  0.00    +0.000 C 
ATOM      5  C   UNL     1       6.016   5.749  17.375  0.00  0.00    +0.000 C 
ATOM      6  C   UNL     1       5.397   4.961  16.205  0.00  0.00    +0.000 C 
ATOM      7  O   UNL     1       4.311   4.474  15.971  0.00  0.00    +0.000 OA
ENDROOT
BRANCH   5   8
ATOM      8  C   UNL     1       5.965   5.051  18.746  0.00  0.00    +0.000 C 
ATOM      9  C   UNL     1       7.140   5.474  19.639  0.00  0.00    +0.000 C 
BRANCH   8  10
ATOM     10  C   UNL     1       4.647   5.324  19.496  0.00  0.00    +0.000 C 
BRANCH  10  11
ATOM     11  N   UNL     1       3.445   4.910  18.795  0.00  0.00    +0.000 N 
ATOM     12  C   UNL     1       2.477   4.144  19.406  0.00  0.00    +0.000 C 
ATOM     13  C   UNL     1       1.365   3.681  18.500  0.00  0.00    +0.000 C 
ATOM     14  O   UNL     1       2.501   3.860  20.600  0.00  0.00    +0.000 OA
ATOM     15  H   UNL     1       3.482   4.892  17.783  0.00  0.00    +0.000 HD
ENDBRANCH  10  11
ENDBRANCH   8  10
ENDBRANCH   5   8
BRANCH   1  16
ATOM     16  C   UNL     1       5.925   3.665  13.568  0.00  0.00    +0.000 C 
BRANCH  16  17
ATOM     17  C   UNL     1       6.384   3.360  12.146  0.00  0.00    +0.000 C 
BRANCH  17  18
ATOM     18  C   UNL     1       5.636   2.150  11.585  0.00  0.00    +0.000 C 
BRANCH  18  20
ATOM     19  C   UNL     1       6.123  -0.304  11.303  0.00  0.00    +0.000 C 
ATOM     20  C   UNL     1       6.602   1.112  11.022  0.00  0.00    +0.000 C 
ENDBRANCH  18  20
ENDBRANCH  17  18
ENDBRANCH  16  17
ENDBRANCH   1  16
TORSDOF 7
ENDMDL
MODEL 7
REMARK VINA RESULT:      -6.3      2.107      6.598
REMARK  Name = 
REMARK  10 active torsions:
REMARK  status: ('A' for Active; 'I' for Inactive)
REMARK    1  A    between atoms: C_1  and  C_2
REMARK    2  A    between atoms: C_2  and  C_3
REMARK    3  A    between atoms: C_3  and  C_4
REMARK    4  A    between atoms: C_4  and  C_5
REMARK    5  A    between atoms: C_5  and  C_6
REMARK    6  A    between atoms: C_10  and  C_11
REMARK    7  A    between atoms: C_11  and  C_12
REMARK    8  A    between atoms: C_11  and  C_13
REMARK    9  A    between atoms: C_13  and  N_14
REMARK   10  A    between atoms: C_15  and  C_16
REMARK                            x       y       z     vdW  Elec       q    Type
REMARK                         _______ _______ _______ _____ _____    ______ ____
ROOT
ATOM      1  C   UNL     1       4.246   2.404  19.948  0.00  0.00    +0.000 C 
ATOM      2  O   UNL     1       5.195   1.890  20.530  0.00  0.00    +0.000 OA
ATOM      3  N   UNL     1       4.380   3.456  19.062  0.00  0.00    +0.000 N 
ATOM      4  C   UNL     1       5.623   4.162  18.735  0.00  0.00    +0.000 C 
ATOM      5  C   UNL     1       5.065   4.359  17.301  0.00  0.00    +0.000 C 
ATOM      6  C   UNL     1       3.944   3.413  17.771  0.00  0.00    +0.000 C 
ATOM      7  O   UNL     1       2.944   2.943  17.269  0.00  0.00    +0.000 OA
ENDROOT
BRANCH   5   8
ATOM      8  C   UNL     1       4.601   5.735  16.788  0.00  0.00    +0.000 C 
ATOM      9  C   UNL     1       4.853   6.838  17.826  0.00  0.00    +0.000 C 
BRANCH   8  10
ATOM     10  C   UNL     1       5.285   6.130  15.466  0.00  0.00    +0.000 C 
BRANCH  10  11
ATOM     11  N   UNL     1       5.457   5.046  14.516  0.00  0.00    +0.000 N 
ATOM     12  C   UNL     1       6.680   4.771  13.944  0.00  0.00    +0.000 C 
ATOM     13  C   UNL     1       6.659   3.709  12.875  0.00  0.00    +0.000 C 
ATOM     14  O   UNL     1       7.719   5.335  14.277  0.00  0.00    +0.000 OA
ATOM     15  H   UNL     1       4.632   4.723  14.025  0.00  0.00    +0.000 HD
ENDBRANCH  10  11
ENDBRANCH   8  10
ENDBRANCH   5   8
BRANCH   1  16
ATOM     16  C   UNL     1       2.816   1.905  20.087  0.00  0.00    +0.000 C 
BRANCH  16  17
ATOM     17  C   UNL     1       2.005   2.748  21.066  0.00  0.00    +0.000 C 
BRANCH  17  18
ATOM     18  C   UNL     1       0.784   3.356  20.374  0.00  0.00    +0.000 C 
BRANCH  18  20
ATOM     19  C   UNL     1       2.028   5.519  20.706  0.00  0.00    +0.000 C 
ATOM     20  C   UNL     1       1.102   4.731  19.794  0.00  0.00    +0.000 C 
ENDBRANCH  18  20
ENDBRANCH  17  18
ENDBRANCH  16  17
ENDBRANCH   1  16
TORSDOF 7
ENDMDL
MODEL 8
REMARK VINA RESULT:      -6.3      3.015      5.775
REMARK  Name = 
REMARK  10 active torsions:
REMARK  status: ('A' for Active; 'I' for Inactive)
REMARK    1  A    between atoms: C_1  and  C_2
REMARK    2  A    between atoms: C_2  and  C_3
REMARK    3  A    between atoms: C_3  and  C_4
REMARK    4  A    between atoms: C_4  and  C_5
REMARK    5  A    between atoms: C_5  and  C_6
REMARK    6  A    between atoms: C_10  and  C_11
REMARK    7  A    between atoms: C_11  and  C_12
REMARK    8  A    between atoms: C_11  and  C_13
REMARK    9  A    between atoms: C_13  and  N_14
REMARK   10  A    between atoms: C_15  and  C_16
REMARK                            x       y       z     vdW  Elec       q    Type
REMARK                         _______ _______ _______ _____ _____    ______ ____
ROOT
ATOM      1  C   UNL     1       7.112   6.251  16.805  0.00  0.00    +0.000 C 
ATOM      2  O   UNL     1       7.721   6.193  15.742  0.00  0.00    +0.000 OA
ATOM      3  N   UNL     1       5.936   5.566  17.044  0.00  0.00    +0.000 N 
ATOM      4  C   UNL     1       5.201   4.742  16.078  0.00  0.00    +0.000 C 
ATOM      5  C   UNL     1       4.777   3.836  17.264  0.00  0.00    +0.000 C 
ATOM      6  C   UNL     1       5.773   4.688  18.074  0.00  0.00    +0.000 C 
ATOM      7  O   UNL     1       6.148   4.714  19.227  0.00  0.00    +0.000 OA
ENDROOT
BRANCH   5   8
ATOM      8  C   UNL     1       3.333   3.815  17.799  0.00  0.00    +0.000 C 
ATOM      9  C   UNL     1       2.738   2.400  17.759  0.00  0.00    +0.000 C 
BRANCH   8  10
ATOM     10  C   UNL     1       3.231   4.358  19.236  0.00  0.00    +0.000 C 
BRANCH  10  11
ATOM     11  N   UNL     1       2.803   3.389  20.229  0.00  0.00    +0.000 N 
ATOM     12  C   UNL     1       1.551   3.444  20.803  0.00  0.00    +0.000 C 
ATOM     13  C   UNL     1       1.317   2.455  21.915  0.00  0.00    +0.000 C 
ATOM     14  O   UNL     1       0.680   4.228  20.438  0.00  0.00    +0.000 OA
ATOM     15  H   UNL     1       3.527   2.897  20.739  0.00  0.00    +0.000 HD
ENDBRANCH  10  11
ENDBRANCH   8  10
ENDBRANCH   5   8
BRANCH   1  16
ATOM     16  C   UNL     1       7.611   7.038  18.007  0.00  0.00    +0.000 C 
BRANCH  16  17
ATOM     17  C   UNL     1       7.838   8.510  17.678  0.00  0.00    +0.000 C 
BRANCH  17  18
ATOM     18  C   UNL     1       8.824   9.138  18.664  0.00  0.00    +0.000 C 
BRANCH  18  20
ATOM     19  C   UNL     1       9.695  11.368  19.444  0.00  0.00    +0.000 C 
ATOM     20  C   UNL     1       9.179  10.566  18.260  0.00  0.00    +0.000 C 
ENDBRANCH  18  20
ENDBRANCH  17  18
ENDBRANCH  16  17
ENDBRANCH   1  16
TORSDOF 7
ENDMDL
MODEL 9
REMARK VINA RESULT:      -6.2      3.361      5.942
REMARK  Name = 
REMARK  10 active torsions:
REMARK  status: ('A' for Active; 'I' for Inactive)
REMARK    1  A    between atoms: C_1  and  C_2
REMARK    2  A    between atoms: C_2  and  C_3
REMARK    3  A    between atoms: C_3  and  C_4
REMARK    4  A    between atoms: C_4  and  C_5
REMARK    5  A    between atoms: C_5  and  C_6
REMARK    6  A    between atoms: C_10  and  C_11
REMARK    7  A    between atoms: C_11  and  C_12
REMARK    8  A    between atoms: C_11  and  C_13
REMARK    9  A    between atoms: C_13  and  N_14
REMARK   10  A    between atoms: C_15  and  C_16
REMARK                            x       y       z     vdW  Elec       q    Type
REMARK                         _______ _______ _______ _____ _____    ______ ____
ROOT
ATOM      1  C   UNL     1       7.302   6.541  17.157  0.00  0.00    +0.000 C 
ATOM      2  O   UNL     1       7.907   6.528  16.090  0.00  0.00    +0.000 OA
ATOM      3  N   UNL     1       6.235   5.708  17.432  0.00  0.00    +0.000 N 
ATOM      4  C   UNL     1       5.616   4.754  16.505  0.00  0.00    +0.000 C 
ATOM      5  C   UNL     1       5.329   3.843  17.727  0.00  0.00    +0.000 C 
ATOM      6  C   UNL     1       6.200   4.855  18.495  0.00  0.00    +0.000 C 
ATOM      7  O   UNL     1       6.575   4.977  19.643  0.00  0.00    +0.000 OA
ENDROOT
BRANCH   5   8
ATOM      8  C   UNL     1       3.905   3.641  18.278  0.00  0.00    +0.000 C 
ATOM      9  C   UNL     1       2.860   3.651  17.154  0.00  0.00    +0.000 C 
BRANCH   8  10
ATOM     10  C   UNL     1       3.764   2.332  19.077  0.00  0.00    +0.000 C 
BRANCH  10  11
ATOM     11  N   UNL     1       3.170   2.478  20.394  0.00  0.00    +0.000 N 
ATOM     12  C   UNL     1       1.806   2.554  20.569  0.00  0.00    +0.000 C 
ATOM     13  C   UNL     1       1.360   2.847  21.978  0.00  0.00    +0.000 C 
ATOM     14  O   UNL     1       1.002   2.386  19.656  0.00  0.00    +0.000 OA
ATOM     15  H   UNL     1       3.755   2.864  21.126  0.00  0.00    +0.000 HD
ENDBRANCH  10  11
ENDBRANCH   8  10
ENDBRANCH   5   8
BRANCH   1  16
ATOM     16  C   UNL     1       7.693   7.435  18.324  0.00  0.00    +0.000 C 
BRANCH  16  17
ATOM     17  C   UNL     1       8.229   8.785  17.860  0.00  0.00    +0.000 C 
BRANCH  17  18
ATOM     18  C   UNL     1       9.042   9.453  18.970  0.00  0.00    +0.000 C 
BRANCH  18  20
ATOM     19  C   UNL     1      10.270  11.370  17.896  0.00  0.00    +0.000 C 
ATOM     20  C   UNL     1       9.101  10.966  18.781  0.00  0.00    +0.000 C 
ENDBRANCH  18  20
ENDBRANCH  17  18
ENDBRANCH  16  17
ENDBRANCH   1  16
TORSDOF 7
ENDMDL
