MODEL 1
REMARK VINA RESULT:      -7.5      0.000      0.000
REMARK  Name = 
REMARK  8 active torsions:
REMARK  status: ('A' for Active; 'I' for Inactive)
REMARK    1  A    between atoms: C_1  and  C_2
REMARK    2  A    between atoms: C_2  and  C_3
REMARK    3  A    between atoms: C_3  and  N_4
REMARK    4  A    between atoms: C_9  and  C_10
REMARK    5  A    between atoms: C_10  and  C_11
REMARK    6  A    between atoms: C_10  and  C_12
REMARK    7  A    between atoms: C_17  and  C_18
REMARK    8  A    between atoms: C_21  and  O_22
REMARK                            x       y       z     vdW  Elec       q    Type
REMARK                         _______ _______ _______ _____ _____    ______ ____
ROOT
ATOM      1  N   UNL     1       2.820   6.370  18.278  0.00  0.00    +0.000 N 
ATOM      2  C   UNL     1       2.260   5.100  18.265  0.00  0.00    +0.000 C 
ATOM      3  O   UNL     1       2.526   4.312  17.372  0.00  0.00    +0.000 OA
ATOM      4  N   UNL     1       1.480   4.697  19.344  0.00  0.00    +0.000 N 
ATOM      5  C   UNL     1       1.301   3.341  19.784  0.00  0.00    +0.000 C 
ATOM      6  C   UNL     1       2.523   3.211  20.692  0.00  0.00    +0.000 C 
ATOM      7  N   UNL     1       2.577   4.643  21.196  0.00  0.00    +0.000 NA
ATOM      8  C   UNL     1       1.729   5.395  20.518  0.00  0.00    +0.000 C 
ATOM      9  C   UNL     1       1.698   6.902  20.322  0.00  0.00    +0.000 A 
ATOM     10  N   UNL     1       0.979   7.985  20.803  0.00  0.00    +0.000 N 
ATOM     11  C   UNL     1       1.250   8.996  19.886  0.00  0.00    +0.000 A 
ATOM     12  N   UNL     1       2.099   8.584  18.928  0.00  0.00    +0.000 NA
ATOM     13  C   UNL     1       2.294   7.290  19.191  0.00  0.00    +0.000 A 
ATOM     14  H   UNL     1       0.286   7.999  21.575  0.00  0.00    +0.000 HD
ENDROOT
BRANCH  11  15
ATOM     15  C   UNL     1       0.638  10.419  19.724  0.00  0.00    +0.000 C 
ATOM     16  C   UNL     1       0.378  11.181  21.052  0.00  0.00    +0.000 C 
ATOM     17  C   UNL     1      -0.231  12.595  20.775  0.00  0.00    +0.000 C 
ATOM     18  C   UNL     1      -0.423  12.835  19.255  0.00  0.00    +0.000 C 
ATOM     19  C   UNL     1      -1.357  11.743  18.695  0.00  0.00    +0.000 C 
ATOM     20  C   UNL     1      -0.750  10.334  18.972  0.00  0.00    +0.000 C 
ATOM     21  C   UNL     1       0.955  12.698  18.573  0.00  0.00    +0.000 C 
ATOM     22  C   UNL     1       1.558  11.285  18.818  0.00  0.00    +0.000 C 
BRANCH  18  23
ATOM     23  O   UNL     1      -0.936  14.122  18.999  0.00  0.00    +0.000 OA
ATOM     24  H   UNL     1      -1.893  14.132  19.263  0.00  0.00    +0.000 HD
ENDBRANCH  18  23
ENDBRANCH  11  15
BRANCH   6  25
ATOM     25  C   UNL     1       3.700   2.583  19.753  0.00  0.00    +0.000 C 
ATOM     26  C   UNL     1       3.129   1.534  18.725  0.00  0.00    +0.000 C 
ATOM     27  C   UNL     1       4.904   1.852  20.381  0.00  0.00    +0.000 C 
ENDBRANCH   6  25
BRANCH   1  28
ATOM     28  C   UNL     1       3.911   6.819  17.433  0.00  0.00    +0.000 C 
BRANCH  28  30
ATOM     29  C   UNL     1       6.462   6.806  17.364  0.00  0.00    +0.000 C 
ATOM     30  C   UNL     1       5.224   6.134  17.927  0.00  0.00    +0.000 C 
ENDBRANCH  28  30
ENDBRANCH   1  28
TORSDOF 5
ENDMDL
MODEL 2
REMARK VINA RESULT:      -7.5      0.197      1.145
REMARK  Name = 
REMARK  8 active torsions:
REMARK  status: ('A' for Active; 'I' for Inactive)
REMARK    1  A    between atoms: C_1  and  C_2
REMARK    2  A    between atoms: C_2  and  C_3
REMARK    3  A    between atoms: C_3  and  N_4
REMARK    4  A    between atoms: C_9  and  C_10
REMARK    5  A    between atoms: C_10  and  C_11
REMARK    6  A    between atoms: C_10  and  C_12
REMARK    7  A    between atoms: C_17  and  C_18
REMARK    8  A    between atoms: C_21  and  O_22
REMARK                            x       y       z     vdW  Elec       q    Type
REMARK                         _______ _______ _______ _____ _____    ______ ____
ROOT
ATOM      1  N   UNL     1       2.920   6.319  18.135  0.00  0.00    +0.000 N 
ATOM      2  C   UNL     1       2.341   5.057  18.159  0.00  0.00    +0.000 C 
ATOM      3  O   UNL     1       2.605   4.235  17.297  0.00  0.00    +0.000 OA
ATOM      4  N   UNL     1       1.543   4.703  19.243  0.00  0.00    +0.000 N 
ATOM      5  C   UNL     1       1.339   3.366  19.728  0.00  0.00    +0.000 C 
ATOM      6  C   UNL     1       2.550   3.250  20.653  0.00  0.00    +0.000 C 
ATOM      7  N   UNL     1       2.619   4.699  21.108  0.00  0.00    +0.000 NA
ATOM      8  C   UNL     1       1.790   5.439  20.395  0.00  0.00    +0.000 C 
ATOM      9  C   UNL     1       1.783   6.938  20.146  0.00  0.00    +0.000 A 
ATOM     10  N   UNL     1       1.075   8.048  20.581  0.00  0.00    +0.000 N 
ATOM     11  C   UNL     1       1.372   9.022  19.633  0.00  0.00    +0.000 A 
ATOM     12  N   UNL     1       2.225   8.565  18.699  0.00  0.00    +0.000 NA
ATOM     13  C   UNL     1       2.397   7.278  19.009  0.00  0.00    +0.000 A 
ATOM     14  H   UNL     1       0.374   8.099  21.344  0.00  0.00    +0.000 HD
ENDROOT
BRANCH  11  15
ATOM     15  C   UNL     1       0.782  10.447  19.415  0.00  0.00    +0.000 C 
ATOM     16  C   UNL     1       1.721  11.445  18.686  0.00  0.00    +0.000 C 
ATOM     17  C   UNL     1       1.032  12.839  18.515  0.00  0.00    +0.000 C 
ATOM     18  C   UNL     1      -0.389  12.841  19.136  0.00  0.00    +0.000 C 
ATOM     19  C   UNL     1      -0.276  12.492  20.634  0.00  0.00    +0.000 C 
ATOM     20  C   UNL     1       0.413  11.104  20.804  0.00  0.00    +0.000 C 
ATOM     21  C   UNL     1      -1.216  11.740  18.439  0.00  0.00    +0.000 C 
ATOM     22  C   UNL     1      -0.554  10.346  18.626  0.00  0.00    +0.000 C 
BRANCH  18  23
ATOM     23  O   UNL     1      -1.029  14.083  18.951  0.00  0.00    +0.000 OA
ATOM     24  H   UNL     1      -1.649  14.000  18.180  0.00  0.00    +0.000 HD
ENDBRANCH  18  23
ENDBRANCH  11  15
BRANCH   6  25
ATOM     25  C   UNL     1       3.727   2.573  19.751  0.00  0.00    +0.000 C 
ATOM     26  C   UNL     1       3.148   1.515  18.736  0.00  0.00    +0.000 C 
ATOM     27  C   UNL     1       4.901   1.828  20.417  0.00  0.00    +0.000 C 
ENDBRANCH   6  25
BRANCH   1  28
ATOM     28  C   UNL     1       4.026   6.722  17.288  0.00  0.00    +0.000 C 
BRANCH  28  30
ATOM     29  C   UNL     1       6.575   6.825  17.378  0.00  0.00    +0.000 C 
ATOM     30  C   UNL     1       5.335   6.099  17.865  0.00  0.00    +0.000 C 
ENDBRANCH  28  30
ENDBRANCH   1  28
TORSDOF 5
ENDMDL
MODEL 3
REMARK VINA RESULT:      -7.4      0.209      1.203
REMARK  Name = 
REMARK  8 active torsions:
REMARK  status: ('A' for Active; 'I' for Inactive)
REMARK    1  A    between atoms: C_1  and  C_2
REMARK    2  A    between atoms: C_2  and  C_3
REMARK    3  A    between atoms: C_3  and  N_4
REMARK    4  A    between atoms: C_9  and  C_10
REMARK    5  A    between atoms: C_10  and  C_11
REMARK    6  A    between atoms: C_10  and  C_12
REMARK    7  A    between atoms: C_17  and  C_18
REMARK    8  A    between atoms: C_21  and  O_22
REMARK                            x       y       z     vdW  Elec       q    Type
REMARK                         _______ _______ _______ _____ _____    ______ ____
ROOT
ATOM      1  N   UNL     1       2.908   6.339  18.158  0.00  0.00    +0.000 N 
ATOM      2  C   UNL     1       2.351   5.067  18.175  0.00  0.00    +0.000 C 
ATOM      3  O   UNL     1       2.641   4.251  17.316  0.00  0.00    +0.000 OA
ATOM      4  N   UNL     1       1.546   4.699  19.248  0.00  0.00    +0.000 N 
ATOM      5  C   UNL     1       1.360   3.359  19.730  0.00  0.00    +0.000 C 
ATOM      6  C   UNL     1       2.560   3.264  20.671  0.00  0.00    +0.000 C 
ATOM      7  N   UNL     1       2.598   4.713  21.127  0.00  0.00    +0.000 NA
ATOM      8  C   UNL     1       1.765   5.439  20.403  0.00  0.00    +0.000 C 
ATOM      9  C   UNL     1       1.735   6.937  20.155  0.00  0.00    +0.000 A 
ATOM     10  N   UNL     1       1.002   8.034  20.580  0.00  0.00    +0.000 N 
ATOM     11  C   UNL     1       1.293   9.014  19.636  0.00  0.00    +0.000 A 
ATOM     12  N   UNL     1       2.166   8.573  18.713  0.00  0.00    +0.000 NA
ATOM     13  C   UNL     1       2.357   7.289  19.026  0.00  0.00    +0.000 A 
ATOM     14  H   UNL     1       0.290   8.072  21.334  0.00  0.00    +0.000 HD
ENDROOT
BRANCH  11  15
ATOM     15  C   UNL     1       0.681  10.429  19.411  0.00  0.00    +0.000 C 
ATOM     16  C   UNL     1      -0.633  10.455  18.585  0.00  0.00    +0.000 C 
ATOM     17  C   UNL     1      -1.163  11.918  18.423  0.00  0.00    +0.000 C 
ATOM     18  C   UNL     1      -0.219  12.935  19.116  0.00  0.00    +0.000 C 
ATOM     19  C   UNL     1       1.186  12.814  18.491  0.00  0.00    +0.000 C 
ATOM     20  C   UNL     1       1.712  11.355  18.652  0.00  0.00    +0.000 C 
ATOM     21  C   UNL     1      -0.125  12.558  20.609  0.00  0.00    +0.000 C 
ATOM     22  C   UNL     1       0.427  11.114  20.784  0.00  0.00    +0.000 C 
BRANCH  18  23
ATOM     23  O   UNL     1      -0.712  14.251  19.005  0.00  0.00    +0.000 OA
ATOM     24  H   UNL     1      -0.147  14.739  18.351  0.00  0.00    +0.000 HD
ENDBRANCH  18  23
ENDBRANCH  11  15
BRANCH   6  25
ATOM     25  C   UNL     1       3.761   2.608  19.784  0.00  0.00    +0.000 C 
ATOM     26  C   UNL     1       3.215   1.539  18.761  0.00  0.00    +0.000 C 
ATOM     27  C   UNL     1       4.940   1.884  20.464  0.00  0.00    +0.000 C 
ENDBRANCH   6  25
BRANCH   1  28
ATOM     28  C   UNL     1       4.018   6.763  17.325  0.00  0.00    +0.000 C 
BRANCH  28  30
ATOM     29  C   UNL     1       6.570   6.797  17.336  0.00  0.00    +0.000 C 
ATOM     30  C   UNL     1       5.326   6.136  17.900  0.00  0.00    +0.000 C 
ENDBRANCH  28  30
ENDBRANCH   1  28
TORSDOF 5
ENDMDL
MODEL 4
REMARK VINA RESULT:      -7.3      1.886      8.187
REMARK  Name = 
REMARK  8 active torsions:
REMARK  status: ('A' for Active; 'I' for Inactive)
REMARK    1  A    between atoms: C_1  and  C_2
REMARK    2  A    between atoms: C_2  and  C_3
REMARK    3  A    between atoms: C_3  and  N_4
REMARK    4  A    between atoms: C_9  and  C_10
REMARK    5  A    between atoms: C_10  and  C_11
REMARK    6  A    between atoms: C_10  and  C_12
REMARK    7  A    between atoms: C_17  and  C_18
REMARK    8  A    between atoms: C_21  and  O_22
REMARK                            x       y       z     vdW  Elec       q    Type
REMARK                         _______ _______ _______ _____ _____    ______ ____
ROOT
ATOM      1  N   UNL     1       0.355   9.189  20.259  0.00  0.00    +0.000 N 
ATOM      2  C   UNL     1      -0.426  10.104  19.565  0.00  0.00    +0.000 C 
ATOM      3  O   UNL     1      -1.512  10.449  20.001  0.00  0.00    +0.000 OA
ATOM      4  N   UNL     1       0.096  10.707  18.425  0.00  0.00    +0.000 N 
ATOM      5  C   UNL     1      -0.269  12.004  17.927  0.00  0.00    +0.000 C 
ATOM      6  C   UNL     1       0.688  12.865  18.751  0.00  0.00    +0.000 C 
ATOM      7  N   UNL     1       1.850  11.888  18.831  0.00  0.00    +0.000 NA
ATOM      8  C   UNL     1       1.483  10.708  18.366  0.00  0.00    +0.000 C 
ATOM      9  C   UNL     1       2.081   9.332  18.609  0.00  0.00    +0.000 A 
ATOM     10  N   UNL     1       2.876   8.423  17.928  0.00  0.00    +0.000 N 
ATOM     11  C   UNL     1       2.688   7.232  18.622  0.00  0.00    +0.000 A 
ATOM     12  N   UNL     1       1.867   7.394  19.675  0.00  0.00    +0.000 NA
ATOM     13  C   UNL     1       1.469   8.666  19.592  0.00  0.00    +0.000 A 
ATOM     14  H   UNL     1       3.373   8.560  17.027  0.00  0.00    +0.000 HD
ENDROOT
BRANCH  11  15
ATOM     15  C   UNL     1       3.144   5.778  18.299  0.00  0.00    +0.000 C 
ATOM     16  C   UNL     1       4.184   5.653  17.154  0.00  0.00    +0.000 C 
ATOM     17  C   UNL     1       4.577   4.157  16.916  0.00  0.00    +0.000 C 
ATOM     18  C   UNL     1       3.803   3.216  17.877  0.00  0.00    +0.000 C 
ATOM     19  C   UNL     1       2.290   3.405  17.645  0.00  0.00    +0.000 C 
ATOM     20  C   UNL     1       1.901   4.896  17.881  0.00  0.00    +0.000 C 
ATOM     21  C   UNL     1       4.133   3.636  19.324  0.00  0.00    +0.000 C 
ATOM     22  C   UNL     1       3.723   5.114  19.581  0.00  0.00    +0.000 C 
BRANCH  18  23
ATOM     23  O   UNL     1       4.181   1.871  17.691  0.00  0.00    +0.000 OA
ATOM     24  H   UNL     1       3.731   1.532  16.874  0.00  0.00    +0.000 HD
ENDBRANCH  18  23
ENDBRANCH  11  15
BRANCH   6  25
ATOM     25  C   UNL     1      -0.155  13.312  20.074  0.00  0.00    +0.000 C 
ATOM     26  C   UNL     1      -0.831  14.724  19.885  0.00  0.00    +0.000 C 
ATOM     27  C   UNL     1       0.535  13.424  21.448  0.00  0.00    +0.000 C 
ENDBRANCH   6  25
BRANCH   1  28
ATOM     28  C   UNL     1       0.120   8.739  21.618  0.00  0.00    +0.000 C 
BRANCH  28  30
ATOM     29  C   UNL     1      -0.887  10.391  23.283  0.00  0.00    +0.000 C 
ATOM     30  C   UNL     1       0.380   9.940  22.581  0.00  0.00    +0.000 C 
ENDBRANCH  28  30
ENDBRANCH   1  28
TORSDOF 5
ENDMDL
MODEL 5
REMARK VINA RESULT:      -7.3      1.917      8.231
REMARK  Name = 
REMARK  8 active torsions:
REMARK  status: ('A' for Active; 'I' for Inactive)
REMARK    1  A    between atoms: C_1  and  C_2
REMARK    2  A    between atoms: C_2  and  C_3
REMARK    3  A    between atoms: C_3  and  N_4
REMARK    4  A    between atoms: C_9  and  C_10
REMARK    5  A    between atoms: C_10  and  C_11
REMARK    6  A    between atoms: C_10  and  C_12
REMARK    7  A    between atoms: C_17  and  C_18
REMARK    8  A    between atoms: C_21  and  O_22
REMARK                            x       y       z     vdW  Elec       q    Type
REMARK                         _______ _______ _______ _____ _____    ______ ____
ROOT
ATOM      1  N   UNL     1       0.099   9.425  20.293  0.00  0.00    +0.000 N 
ATOM      2  C   UNL     1      -0.627  10.379  19.591  0.00  0.00    +0.000 C 
ATOM      3  O   UNL     1      -1.732  10.723  19.974  0.00  0.00    +0.000 OA
ATOM      4  N   UNL     1      -0.029  11.019  18.510  0.00  0.00    +0.000 N 
ATOM      5  C   UNL     1      -0.346  12.340  18.044  0.00  0.00    +0.000 C 
ATOM      6  C   UNL     1       0.570  13.152  18.958  0.00  0.00    +0.000 C 
ATOM      7  N   UNL     1       1.712  12.155  19.068  0.00  0.00    +0.000 NA
ATOM      8  C   UNL     1       1.359  11.000  18.534  0.00  0.00    +0.000 C 
ATOM      9  C   UNL     1       1.923   9.607  18.756  0.00  0.00    +0.000 A 
ATOM     10  N   UNL     1       2.746   8.714  18.087  0.00  0.00    +0.000 N 
ATOM     11  C   UNL     1       2.501   7.499  18.720  0.00  0.00    +0.000 A 
ATOM     12  N   UNL     1       1.620   7.632  19.728  0.00  0.00    +0.000 NA
ATOM     13  C   UNL     1       1.244   8.912  19.673  0.00  0.00    +0.000 A 
ATOM     14  H   UNL     1       3.298   8.878  17.225  0.00  0.00    +0.000 HD
ENDROOT
BRANCH  11  15
ATOM     15  C   UNL     1       2.957   6.052  18.366  0.00  0.00    +0.000 C 
ATOM     16  C   UNL     1       1.830   5.108  17.872  0.00  0.00    +0.000 C 
ATOM     17  C   UNL     1       2.395   3.687  17.540  0.00  0.00    +0.000 C 
ATOM     18  C   UNL     1       3.920   3.614  17.815  0.00  0.00    +0.000 C 
ATOM     19  C   UNL     1       4.172   3.945  19.300  0.00  0.00    +0.000 C 
ATOM     20  C   UNL     1       3.607   5.360  19.630  0.00  0.00    +0.000 C 
ATOM     21  C   UNL     1       4.613   4.686  16.949  0.00  0.00    +0.000 C 
ATOM     22  C   UNL     1       4.078   6.106  17.289  0.00  0.00    +0.000 C 
BRANCH  18  23
ATOM     23  O   UNL     1       4.441   2.347  17.482  0.00  0.00    +0.000 OA
ATOM     24  H   UNL     1       4.448   2.265  16.493  0.00  0.00    +0.000 HD
ENDBRANCH  18  23
ENDBRANCH  11  15
BRANCH   6  25
ATOM     25  C   UNL     1      -0.345  13.560  20.245  0.00  0.00    +0.000 C 
ATOM     26  C   UNL     1      -1.046  14.957  20.043  0.00  0.00    +0.000 C 
ATOM     27  C   UNL     1       0.276  13.668  21.652  0.00  0.00    +0.000 C 
ENDBRANCH   6  25
BRANCH   1  28
ATOM     28  C   UNL     1      -0.223   8.925  21.616  0.00  0.00    +0.000 C 
BRANCH  28  30
ATOM     29  C   UNL     1      -1.096  10.672  23.259  0.00  0.00    +0.000 C 
ATOM     30  C   UNL     1       0.139  10.030  22.656  0.00  0.00    +0.000 C 
ENDBRANCH  28  30
ENDBRANCH   1  28
TORSDOF 5
ENDMDL
MODEL 6
REMARK VINA RESULT:      -7.2      1.910      8.195
REMARK  Name = 
REMARK  8 active torsions:
REMARK  status: ('A' for Active; 'I' for Inactive)
REMARK    1  A    between atoms: C_1  and  C_2
REMARK    2  A    between atoms: C_2  and  C_3
REMARK    3  A    between atoms: C_3  and  N_4
REMARK    4  A    between atoms: C_9  and  C_10
REMARK    5  A    between atoms: C_10  and  C_11
REMARK    6  A    between atoms: C_10  and  C_12
REMARK    7  A    between atoms: C_17  and  C_18
REMARK    8  A    between atoms: C_21  and  O_22
REMARK                            x       y       z     vdW  Elec       q    Type
REMARK                         _______ _______ _______ _____ _____    ______ ____
ROOT
ATOM      1  N   UNL     1       0.374   9.222  20.318  0.00  0.00    +0.000 N 
ATOM      2  C   UNL     1      -0.443  10.100  19.618  0.00  0.00    +0.000 C 
ATOM      3  O   UNL     1      -1.523  10.440  20.071  0.00  0.00    +0.000 OA
ATOM      4  N   UNL     1       0.038  10.676  18.446  0.00  0.00    +0.000 N 
ATOM      5  C   UNL     1      -0.365  11.950  17.917  0.00  0.00    +0.000 C 
ATOM      6  C   UNL     1       0.597  12.854  18.688  0.00  0.00    +0.000 C 
ATOM      7  N   UNL     1       1.779  11.901  18.767  0.00  0.00    +0.000 NA
ATOM      8  C   UNL     1       1.423  10.700  18.349  0.00  0.00    +0.000 C 
ATOM      9  C   UNL     1       2.053   9.344  18.618  0.00  0.00    +0.000 A 
ATOM     10  N   UNL     1       2.846   8.429  17.944  0.00  0.00    +0.000 N 
ATOM     11  C   UNL     1       2.700   7.258  18.681  0.00  0.00    +0.000 A 
ATOM     12  N   UNL     1       1.904   7.438  19.750  0.00  0.00    +0.000 NA
ATOM     13  C   UNL     1       1.480   8.699  19.638  0.00  0.00    +0.000 A 
ATOM     14  H   UNL     1       3.317   8.546  17.027  0.00  0.00    +0.000 HD
ENDROOT
BRANCH  11  15
ATOM     15  C   UNL     1       3.175   5.803  18.391  0.00  0.00    +0.000 C 
ATOM     16  C   UNL     1       3.880   5.090  19.576  0.00  0.00    +0.000 C 
ATOM     17  C   UNL     1       4.310   3.639  19.181  0.00  0.00    +0.000 C 
ATOM     18  C   UNL     1       3.930   3.324  17.710  0.00  0.00    +0.000 C 
ATOM     19  C   UNL     1       4.625   4.347  16.788  0.00  0.00    +0.000 C 
ATOM     20  C   UNL     1       4.196   5.792  17.184  0.00  0.00    +0.000 C 
ATOM     21  C   UNL     1       2.403   3.492  17.566  0.00  0.00    +0.000 C 
ATOM     22  C   UNL     1       1.967   4.939  17.930  0.00  0.00    +0.000 C 
BRANCH  18  23
ATOM     23  O   UNL     1       4.282   2.004  17.361  0.00  0.00    +0.000 OA
ATOM     24  H   UNL     1       4.340   1.951  16.372  0.00  0.00    +0.000 HD
ENDBRANCH  18  23
ENDBRANCH  11  15
BRANCH   6  25
ATOM     25  C   UNL     1      -0.219  13.327  20.018  0.00  0.00    +0.000 C 
ATOM     26  C   UNL     1      -0.931  14.717  19.802  0.00  0.00    +0.000 C 
ATOM     27  C   UNL     1       0.505  13.500  21.368  0.00  0.00    +0.000 C 
ENDBRANCH   6  25
BRANCH   1  28
ATOM     28  C   UNL     1       0.184   8.812  21.696  0.00  0.00    +0.000 C 
BRANCH  28  30
ATOM     29  C   UNL     1      -0.929  10.495  23.259  0.00  0.00    +0.000 C 
ATOM     30  C   UNL     1       0.372  10.064  22.609  0.00  0.00    +0.000 C 
ENDBRANCH  28  30
ENDBRANCH   1  28
TORSDOF 5
ENDMDL
MODEL 7
REMARK VINA RESULT:      -7.0      2.039      8.029
REMARK  Name = 
REMARK  8 active torsions:
REMARK  status: ('A' for Active; 'I' for Inactive)
REMARK    1  A    between atoms: C_1  and  C_2
REMARK    2  A    between atoms: C_2  and  C_3
REMARK    3  A    between atoms: C_3  and  N_4
REMARK    4  A    between atoms: C_9  and  C_10
REMARK    5  A    between atoms: C_10  and  C_11
REMARK    6  A    between atoms: C_10  and  C_12
REMARK    7  A    between atoms: C_17  and  C_18
REMARK    8  A    between atoms: C_21  and  O_22
REMARK                            x       y       z     vdW  Elec       q    Type
REMARK                         _______ _______ _______ _____ _____    ______ ____
ROOT
ATOM      1  N   UNL     1       0.184  10.192  18.567  0.00  0.00    +0.000 N 
ATOM      2  C   UNL     1       0.438  11.413  19.178  0.00  0.00    +0.000 C 
ATOM      3  O   UNL     1       0.094  12.457  18.648  0.00  0.00    +0.000 OA
ATOM      4  N   UNL     1       0.987  11.424  20.457  0.00  0.00    +0.000 N 
ATOM      5  C   UNL     1       0.804  12.462  21.433  0.00  0.00    +0.000 C 
ATOM      6  C   UNL     1      -0.504  11.983  22.062  0.00  0.00    +0.000 C 
ATOM      7  N   UNL     1      -0.281  10.487  21.921  0.00  0.00    +0.000 NA
ATOM      8  C   UNL     1       0.782  10.254  21.174  0.00  0.00    +0.000 C 
ATOM      9  C   UNL     1       1.177   9.011  20.394  0.00  0.00    +0.000 A 
ATOM     10  N   UNL     1       2.070   7.958  20.523  0.00  0.00    +0.000 N 
ATOM     11  C   UNL     1       2.134   7.419  19.242  0.00  0.00    +0.000 A 
ATOM     12  N   UNL     1       1.319   8.065  18.389  0.00  0.00    +0.000 NA
ATOM     13  C   UNL     1       0.808   9.064  19.111  0.00  0.00    +0.000 A 
ATOM     14  H   UNL     1       2.663   7.721  21.341  0.00  0.00    +0.000 HD
ENDROOT
BRANCH  11  15
ATOM     15  C   UNL     1       3.069   6.329  18.638  0.00  0.00    +0.000 C 
ATOM     16  C   UNL     1       4.068   5.689  19.639  0.00  0.00    +0.000 C 
ATOM     17  C   UNL     1       4.952   4.608  18.933  0.00  0.00    +0.000 C 
ATOM     18  C   UNL     1       4.597   4.491  17.428  0.00  0.00    +0.000 C 
ATOM     19  C   UNL     1       4.813   5.864  16.759  0.00  0.00    +0.000 C 
ATOM     20  C   UNL     1       3.933   6.940  17.464  0.00  0.00    +0.000 C 
ATOM     21  C   UNL     1       3.103   4.122  17.318  0.00  0.00    +0.000 C 
ATOM     22  C   UNL     1       2.212   5.204  17.993  0.00  0.00    +0.000 C 
BRANCH  18  23
ATOM     23  O   UNL     1       5.365   3.492  16.796  0.00  0.00    +0.000 OA
ATOM     24  H   UNL     1       6.287   3.532  17.162  0.00  0.00    +0.000 HD
ENDBRANCH  18  23
ENDBRANCH  11  15
BRANCH   6  25
ATOM     25  C   UNL     1      -1.688  12.759  21.251  0.00  0.00    +0.000 C 
ATOM     26  C   UNL     1      -1.410  14.308  21.153  0.00  0.00    +0.000 C 
ATOM     27  C   UNL     1      -3.151  12.686  21.731  0.00  0.00    +0.000 C 
ENDBRANCH   6  25
BRANCH   1  28
ATOM     28  C   UNL     1      -0.680   9.988  17.420  0.00  0.00    +0.000 C 
BRANCH  28  30
ATOM     29  C   UNL     1      -3.147   9.895  16.771  0.00  0.00    +0.000 C 
ATOM     30  C   UNL     1      -2.159   9.977  17.919  0.00  0.00    +0.000 C 
ENDBRANCH  28  30
ENDBRANCH   1  28
TORSDOF 5
ENDMDL
MODEL 8
REMARK VINA RESULT:      -7.0      2.070      8.028
REMARK  Name = 
REMARK  8 active torsions:
REMARK  status: ('A' for Active; 'I' for Inactive)
REMARK    1  A    between atoms: C_1  and  C_2
REMARK    2  A    between atoms: C_2  and  C_3
REMARK    3  A    between atoms: C_3  and  N_4
REMARK    4  A    between atoms: C_9  and  C_10
REMARK    5  A    between atoms: C_10  and  C_11
REMARK    6  A    between atoms: C_10  and  C_12
REMARK    7  A    between atoms: C_17  and  C_18
REMARK    8  A    between atoms: C_21  and  O_22
REMARK                            x       y       z     vdW  Elec       q    Type
REMARK                         _______ _______ _______ _____ _____    ______ ____
ROOT
ATOM      1  N   UNL     1       0.174  10.190  18.545  0.00  0.00    +0.000 N 
ATOM      2  C   UNL     1       0.436  11.404  19.167  0.00  0.00    +0.000 C 
ATOM      3  O   UNL     1       0.082  12.453  18.656  0.00  0.00    +0.000 OA
ATOM      4  N   UNL     1       1.007  11.400  20.436  0.00  0.00    +0.000 N 
ATOM      5  C   UNL     1       0.839  12.424  21.429  0.00  0.00    +0.000 C 
ATOM      6  C   UNL     1      -0.458  11.935  22.073  0.00  0.00    +0.000 C 
ATOM      7  N   UNL     1      -0.235  10.441  21.910  0.00  0.00    +0.000 NA
ATOM      8  C   UNL     1       0.816  10.219  21.142  0.00  0.00    +0.000 C 
ATOM      9  C   UNL     1       1.201   8.988  20.340  0.00  0.00    +0.000 A 
ATOM     10  N   UNL     1       2.097   7.935  20.441  0.00  0.00    +0.000 N 
ATOM     11  C   UNL     1       2.141   7.413  19.152  0.00  0.00    +0.000 A 
ATOM     12  N   UNL     1       1.311   8.067  18.321  0.00  0.00    +0.000 NA
ATOM     13  C   UNL     1       0.810   9.056  19.064  0.00  0.00    +0.000 A 
ATOM     14  H   UNL     1       2.704   7.689  21.245  0.00  0.00    +0.000 HD
ENDROOT
BRANCH  11  15
ATOM     15  C   UNL     1       3.068   6.332  18.519  0.00  0.00    +0.000 C 
ATOM     16  C   UNL     1       2.334   5.109  17.908  0.00  0.00    +0.000 C 
ATOM     17  C   UNL     1       3.354   4.092  17.297  0.00  0.00    +0.000 C 
ATOM     18  C   UNL     1       4.814   4.580  17.489  0.00  0.00    +0.000 C 
ATOM     19  C   UNL     1       5.085   4.754  18.997  0.00  0.00    +0.000 C 
ATOM     20  C   UNL     1       4.067   5.766  19.605  0.00  0.00    +0.000 C 
ATOM     21  C   UNL     1       4.950   5.957  16.806  0.00  0.00    +0.000 C 
ATOM     22  C   UNL     1       3.959   6.984  17.423  0.00  0.00    +0.000 C 
BRANCH  18  23
ATOM     23  O   UNL     1       5.734   3.685  16.907  0.00  0.00    +0.000 OA
ATOM     24  H   UNL     1       5.297   3.254  16.127  0.00  0.00    +0.000 HD
ENDBRANCH  18  23
ENDBRANCH  11  15
BRANCH   6  25
ATOM     25  C   UNL     1      -1.657  12.718  21.292  0.00  0.00    +0.000 C 
ATOM     26  C   UNL     1      -1.372  14.265  21.188  0.00  0.00    +0.000 C 
ATOM     27  C   UNL     1      -3.108  12.653  21.808  0.00  0.00    +0.000 C 
ENDBRANCH   6  25
BRANCH   1  28
ATOM     28  C   UNL     1      -0.708   9.998  17.410  0.00  0.00    +0.000 C 
BRANCH  28  30
ATOM     29  C   UNL     1      -3.183   9.881  16.797  0.00  0.00    +0.000 C 
ATOM     30  C   UNL     1      -2.181  10.058  17.922  0.00  0.00    +0.000 C 
ENDBRANCH  28  30
ENDBRANCH   1  28
TORSDOF 5
ENDMDL
MODEL 9
REMARK VINA RESULT:      -7.0      1.869      8.202
REMARK  Name = 
REMARK  8 active torsions:
REMARK  status: ('A' for Active; 'I' for Inactive)
REMARK    1  A    between atoms: C_1  and  C_2
REMARK    2  A    between atoms: C_2  and  C_3
REMARK    3  A    between atoms: C_3  and  N_4
REMARK    4  A    between atoms: C_9  and  C_10
REMARK    5  A    between atoms: C_10  and  C_11
REMARK    6  A    between atoms: C_10  and  C_12
REMARK    7  A    between atoms: C_17  and  C_18
REMARK    8  A    between atoms: C_21  and  O_22
REMARK                            x       y       z     vdW  Elec       q    Type
REMARK                         _______ _______ _______ _____ _____    ______ ____
ROOT
ATOM      1  N   UNL     1       0.874   9.723  20.736  0.00  0.00    +0.000 N 
ATOM      2  C   UNL     1       0.069  10.621  20.046  0.00  0.00    +0.000 C 
ATOM      3  O   UNL     1      -0.758  11.295  20.638  0.00  0.00    +0.000 OA
ATOM      4  N   UNL     1       0.298  10.825  18.689  0.00  0.00    +0.000 N 
ATOM      5  C   UNL     1       0.005  12.031  17.966  0.00  0.00    +0.000 C 
ATOM      6  C   UNL     1       1.294  12.804  18.240  0.00  0.00    +0.000 C 
ATOM      7  N   UNL     1       2.253  11.626  18.280  0.00  0.00    +0.000 NA
ATOM      8  C   UNL     1       1.579  10.491  18.271  0.00  0.00    +0.000 C 
ATOM      9  C   UNL     1       1.998   9.101  18.718  0.00  0.00    +0.000 A 
ATOM     10  N   UNL     1       2.387   7.907  18.131  0.00  0.00    +0.000 N 
ATOM     11  C   UNL     1       2.241   6.972  19.151  0.00  0.00    +0.000 A 
ATOM     12  N   UNL     1       1.825   7.545  20.295  0.00  0.00    +0.000 NA
ATOM     13  C   UNL     1       1.626   8.825  19.972  0.00  0.00    +0.000 A 
ATOM     14  H   UNL     1       2.594   7.725  17.131  0.00  0.00    +0.000 HD
ENDROOT
BRANCH  11  15
ATOM     15  C   UNL     1       2.338   5.417  19.134  0.00  0.00    +0.000 C 
ATOM     16  C   UNL     1       1.522   4.693  20.237  0.00  0.00    +0.000 C 
ATOM     17  C   UNL     1       1.686   3.141  20.126  0.00  0.00    +0.000 C 
ATOM     18  C   UNL     1       2.632   2.760  18.957  0.00  0.00    +0.000 C 
ATOM     19  C   UNL     1       4.006   3.417  19.198  0.00  0.00    +0.000 C 
ATOM     20  C   UNL     1       3.842   4.963  19.310  0.00  0.00    +0.000 C 
ATOM     21  C   UNL     1       2.036   3.335  17.655  0.00  0.00    +0.000 C 
ATOM     22  C   UNL     1       1.894   4.881  17.744  0.00  0.00    +0.000 C 
BRANCH  18  23
ATOM     23  O   UNL     1       2.752   1.362  18.829  0.00  0.00    +0.000 OA
ATOM     24  H   UNL     1       2.695   0.962  19.736  0.00  0.00    +0.000 HD
ENDBRANCH  18  23
ENDBRANCH  11  15
BRANCH   6  25
ATOM     25  C   UNL     1       0.987  13.711  19.561  0.00  0.00    +0.000 C 
ATOM     26  C   UNL     1       0.823  15.236  19.196  0.00  0.00    +0.000 C 
ATOM     27  C   UNL     1       1.967  13.729  20.750  0.00  0.00    +0.000 C 
ENDBRANCH   6  25
BRANCH   1  28
ATOM     28  C   UNL     1       1.007   9.647  22.178  0.00  0.00    +0.000 C 
BRANCH  28  30
ATOM     29  C   UNL     1      -1.123  10.331  23.407  0.00  0.00    +0.000 C 
ATOM     30  C   UNL     1      -0.361   9.184  22.770  0.00  0.00    +0.000 C 
ENDBRANCH  28  30
ENDBRANCH   1  28
TORSDOF 5
ENDMDL
