MODEL 1
REMARK VINA RESULT:      -7.7      0.000      0.000
REMARK  Name = 
REMARK  5 active torsions:
REMARK  status: ('A' for Active; 'I' for Inactive)
REMARK    1  A    between atoms: C_1  and  O_2
REMARK    2  A    between atoms: O_2  and  C_3
REMARK    3  A    between atoms: N_14  and  C_15
REMARK    4  A    between atoms: C_28  and  O_29
REMARK    5  A    between atoms: O_29  and  C_30
REMARK                            x       y       z     vdW  Elec       q    Type
REMARK                         _______ _______ _______ _____ _____    ______ ____
ROOT
ATOM      1  C   UNL     1       2.666   3.936  20.420  0.00  0.00    +0.000 A 
ATOM      2  C   UNL     1       2.146   5.119  20.963  0.00  0.00    +0.000 A 
ATOM      3  C   UNL     1       2.160   6.315  20.265  0.00  0.00    +0.000 A 
ATOM      4  N   UNL     1       1.609   7.394  20.828  0.00  0.00    +0.000 NA
ATOM      5  C   UNL     1       1.554   8.528  20.119  0.00  0.00    +0.000 A 
ATOM      6  N   UNL     1       0.877   9.597  20.644  0.00  0.00    +0.000 N 
ATOM      7  C   UNL     1       0.800  10.846  19.891  0.00  0.00    +0.000 C 
ATOM      8  C   UNL     1      -0.588  11.465  20.097  0.00  0.00    +0.000 C 
ATOM      9  N   UNL     1      -0.908  11.611  21.529  0.00  0.00    +0.000 N 
ATOM     10  C   UNL     1      -1.504  12.795  21.925  0.00  0.00    +0.000 C 
ATOM     11  O   UNL     1      -1.736  13.670  21.090  0.00  0.00    +0.000 OA
ATOM     12  N   UNL     1      -1.762  12.927  23.268  0.00  0.00    +0.000 N 
ATOM     13  C   UNL     1      -0.790  10.354  22.289  0.00  0.00    +0.000 C 
ATOM     14  C   UNL     1       0.589   9.687  22.076  0.00  0.00    +0.000 C 
ATOM     15  N   UNL     1       2.069   8.634  18.886  0.00  0.00    +0.000 NA
ATOM     16  C   UNL     1       2.649   7.559  18.345  0.00  0.00    +0.000 A 
ATOM     17  N   UNL     1       3.134   7.739  17.044  0.00  0.00    +0.000 N 
ATOM     18  C   UNL     1       2.724   6.331  18.994  0.00  0.00    +0.000 A 
ATOM     19  C   UNL     1       3.299   5.159  18.449  0.00  0.00    +0.000 A 
ATOM     20  C   UNL     1       3.287   3.960  19.161  0.00  0.00    +0.000 A 
ATOM     21  H   UNL     1      -1.233  12.340  23.886  0.00  0.00    +0.000 HD
ATOM     22  H   UNL     1       2.981   8.716  16.806  0.00  0.00    +0.000 HD
ATOM     23  H   UNL     1       4.114   7.488  16.975  0.00  0.00    +0.000 HD
ENDROOT
BRANCH  12  24
ATOM     24  C   UNL     1      -2.410  14.036  23.868  0.00  0.00    +0.000 A 
ATOM     25  C   UNL     1      -3.776  14.291  23.735  0.00  0.00    +0.000 A 
ATOM     26  C   UNL     1      -4.354  15.429  24.301  0.00  0.00    +0.000 A 
ATOM     27  C   UNL     1      -3.571  16.319  25.028  0.00  0.00    +0.000 A 
ATOM     28  C   UNL     1      -2.213  16.060  25.201  0.00  0.00    +0.000 A 
ATOM     29  C   UNL     1      -1.634  14.919  24.630  0.00  0.00    +0.000 A 
ENDBRANCH  12  24
BRANCH   1  31
ATOM     30  C   UNL     1       1.438   2.521  21.856  0.00  0.00    +0.000 C 
ATOM     31  O   UNL     1       2.623   2.737  21.092  0.00  0.00    +0.000 OA
ENDBRANCH   1  31
BRANCH  20  32
ATOM     32  O   UNL     1       3.827   2.785  18.703  0.00  0.00    +0.000 OA
ATOM     33  C   UNL     1       3.049   2.027  17.781  0.00  0.00    +0.000 C 
ENDBRANCH  20  32
TORSDOF 3
ENDMDL
MODEL 2
REMARK VINA RESULT:      -7.4      2.103     10.569
REMARK  Name = 
REMARK  5 active torsions:
REMARK  status: ('A' for Active; 'I' for Inactive)
REMARK    1  A    between atoms: C_1  and  O_2
REMARK    2  A    between atoms: O_2  and  C_3
REMARK    3  A    between atoms: N_14  and  C_15
REMARK    4  A    between atoms: C_28  and  O_29
REMARK    5  A    between atoms: O_29  and  C_30
REMARK                            x       y       z     vdW  Elec       q    Type
REMARK                         _______ _______ _______ _____ _____    ______ ____
ROOT
ATOM      1  C   UNL     1      -1.414  14.660  23.571  0.00  0.00    +0.000 A 
ATOM      2  C   UNL     1      -1.065  13.376  23.134  0.00  0.00    +0.000 A 
ATOM      3  C   UNL     1      -0.774  13.105  21.808  0.00  0.00    +0.000 A 
ATOM      4  N   UNL     1      -0.408  11.865  21.470  0.00  0.00    +0.000 NA
ATOM      5  C   UNL     1      -0.052  11.626  20.202  0.00  0.00    +0.000 A 
ATOM      6  N   UNL     1       0.445  10.390  19.883  0.00  0.00    +0.000 N 
ATOM      7  C   UNL     1       0.843  10.103  18.507  0.00  0.00    +0.000 C 
ATOM      8  C   UNL     1       2.096   9.218  18.527  0.00  0.00    +0.000 C 
ATOM      9  N   UNL     1       1.895   8.014  19.353  0.00  0.00    +0.000 N 
ATOM     10  C   UNL     1       2.367   6.816  18.849  0.00  0.00    +0.000 C 
ATOM     11  O   UNL     1       2.921   6.793  17.749  0.00  0.00    +0.000 OA
ATOM     12  N   UNL     1       2.139   5.700  19.617  0.00  0.00    +0.000 N 
ATOM     13  C   UNL     1       1.455   8.312  20.729  0.00  0.00    +0.000 C 
ATOM     14  C   UNL     1       0.212   9.230  20.743  0.00  0.00    +0.000 C 
ATOM     15  N   UNL     1      -0.091  12.570  19.252  0.00  0.00    +0.000 NA
ATOM     16  C   UNL     1      -0.493  13.798  19.591  0.00  0.00    +0.000 A 
ATOM     17  N   UNL     1      -0.477  14.736  18.552  0.00  0.00    +0.000 N 
ATOM     18  C   UNL     1      -0.850  14.146  20.889  0.00  0.00    +0.000 A 
ATOM     19  C   UNL     1      -1.250  15.440  21.303  0.00  0.00    +0.000 A 
ATOM     20  C   UNL     1      -1.547  15.702  22.639  0.00  0.00    +0.000 A 
ATOM     21  H   UNL     1       1.398   5.763  20.290  0.00  0.00    +0.000 HD
ATOM     22  H   UNL     1      -0.203  14.235  17.709  0.00  0.00    +0.000 HD
ATOM     23  H   UNL     1      -1.379  15.185  18.442  0.00  0.00    +0.000 HD
ENDROOT
BRANCH  12  24
ATOM     24  C   UNL     1       2.583   4.391  19.304  0.00  0.00    +0.000 A 
ATOM     25  C   UNL     1       3.844   3.904  19.657  0.00  0.00    +0.000 A 
ATOM     26  C   UNL     1       4.253   2.624  19.275  0.00  0.00    +0.000 A 
ATOM     27  C   UNL     1       3.394   1.806  18.551  0.00  0.00    +0.000 A 
ATOM     28  C   UNL     1       2.120   2.263  18.221  0.00  0.00    +0.000 A 
ATOM     29  C   UNL     1       1.712   3.548  18.603  0.00  0.00    +0.000 A 
ENDBRANCH  12  24
BRANCH   1  31
ATOM     30  C   UNL     1      -2.994  14.640  25.325  0.00  0.00    +0.000 C 
ATOM     31  O   UNL     1      -1.669  14.945  24.892  0.00  0.00    +0.000 OA
ENDBRANCH   1  31
BRANCH  20  32
ATOM     32  O   UNL     1      -1.945  16.925  23.115  0.00  0.00    +0.000 OA
ATOM     33  C   UNL     1      -3.239  17.383  22.733  0.00  0.00    +0.000 C 
ENDBRANCH  20  32
TORSDOF 3
ENDMDL
MODEL 3
REMARK VINA RESULT:      -7.3      1.553      1.805
REMARK  Name = 
REMARK  5 active torsions:
REMARK  status: ('A' for Active; 'I' for Inactive)
REMARK    1  A    between atoms: C_1  and  O_2
REMARK    2  A    between atoms: O_2  and  C_3
REMARK    3  A    between atoms: N_14  and  C_15
REMARK    4  A    between atoms: C_28  and  O_29
REMARK    5  A    between atoms: O_29  and  C_30
REMARK                            x       y       z     vdW  Elec       q    Type
REMARK                         _______ _______ _______ _____ _____    ______ ____
ROOT
ATOM      1  C   UNL     1       2.859   3.667  20.463  0.00  0.00    +0.000 A 
ATOM      2  C   UNL     1       2.293   4.919  20.738  0.00  0.00    +0.000 A 
ATOM      3  C   UNL     1       2.479   6.008  19.904  0.00  0.00    +0.000 A 
ATOM      4  N   UNL     1       1.874   7.161  20.206  0.00  0.00    +0.000 NA
ATOM      5  C   UNL     1       1.993   8.188  19.357  0.00  0.00    +0.000 A 
ATOM      6  N   UNL     1       1.271   9.326  19.600  0.00  0.00    +0.000 N 
ATOM      7  C   UNL     1       1.381  10.462  18.688  0.00  0.00    +0.000 C 
ATOM      8  C   UNL     1       0.002  11.120  18.547  0.00  0.00    +0.000 C 
ATOM      9  N   UNL     1      -0.570  11.464  19.862  0.00  0.00    +0.000 N 
ATOM     10  C   UNL     1      -1.184  12.698  19.980  0.00  0.00    +0.000 C 
ATOM     11  O   UNL     1      -1.226  13.454  19.008  0.00  0.00    +0.000 OA
ATOM     12  N   UNL     1      -1.679  13.015  21.221  0.00  0.00    +0.000 N 
ATOM     13  C   UNL     1      -0.640  10.321  20.790  0.00  0.00    +0.000 C 
ATOM     14  C   UNL     1       0.729   9.614  20.928  0.00  0.00    +0.000 C 
ATOM     15  N   UNL     1       2.729   8.119  18.239  0.00  0.00    +0.000 NA
ATOM     16  C   UNL     1       3.359   6.973  17.962  0.00  0.00    +0.000 A 
ATOM     17  N   UNL     1       4.081   6.968  16.763  0.00  0.00    +0.000 N 
ATOM     18  C   UNL     1       3.267   5.845  18.770  0.00  0.00    +0.000 A 
ATOM     19  C   UNL     1       3.888   4.601  18.501  0.00  0.00    +0.000 A 
ATOM     20  C   UNL     1       3.701   3.511  19.350  0.00  0.00    +0.000 A 
ATOM     21  H   UNL     1      -1.295  12.511  21.999  0.00  0.00    +0.000 HD
ATOM     22  H   UNL     1       4.010   7.905  16.374  0.00  0.00    +0.000 HD
ATOM     23  H   UNL     1       5.046   6.698  16.912  0.00  0.00    +0.000 HD
ENDROOT
BRANCH  12  24
ATOM     24  C   UNL     1      -2.384  14.203  21.538  0.00  0.00    +0.000 A 
ATOM     25  C   UNL     1      -1.756  15.379  21.954  0.00  0.00    +0.000 A 
ATOM     26  C   UNL     1      -2.502  16.506  22.308  0.00  0.00    +0.000 A 
ATOM     27  C   UNL     1      -3.890  16.476  22.229  0.00  0.00    +0.000 A 
ATOM     28  C   UNL     1      -4.529  15.322  21.782  0.00  0.00    +0.000 A 
ATOM     29  C   UNL     1      -3.780  14.191  21.430  0.00  0.00    +0.000 A 
ENDBRANCH  12  24
BRANCH   1  31
ATOM     30  C   UNL     1       1.366   2.524  21.890  0.00  0.00    +0.000 C 
ATOM     31  O   UNL     1       2.648   2.571  21.267  0.00  0.00    +0.000 OA
ENDBRANCH   1  31
BRANCH  20  32
ATOM     32  O   UNL     1       4.271   2.279  19.160  0.00  0.00    +0.000 OA
ATOM     33  C   UNL     1       3.620   1.392  18.255  0.00  0.00    +0.000 C 
ENDBRANCH  20  32
TORSDOF 3
ENDMDL
MODEL 4
REMARK VINA RESULT:      -7.0      2.076      3.354
REMARK  Name = 
REMARK  5 active torsions:
REMARK  status: ('A' for Active; 'I' for Inactive)
REMARK    1  A    between atoms: C_1  and  O_2
REMARK    2  A    between atoms: O_2  and  C_3
REMARK    3  A    between atoms: N_14  and  C_15
REMARK    4  A    between atoms: C_28  and  O_29
REMARK    5  A    between atoms: O_29  and  C_30
REMARK                            x       y       z     vdW  Elec       q    Type
REMARK                         _______ _______ _______ _____ _____    ______ ____
ROOT
ATOM      1  C   UNL     1       4.981   6.471  17.380  0.00  0.00    +0.000 A 
ATOM      2  C   UNL     1       4.023   7.401  17.806  0.00  0.00    +0.000 A 
ATOM      3  C   UNL     1       3.092   7.099  18.785  0.00  0.00    +0.000 A 
ATOM      4  N   UNL     1       2.234   8.048  19.171  0.00  0.00    +0.000 NA
ATOM      5  C   UNL     1       1.388   7.777  20.172  0.00  0.00    +0.000 A 
ATOM      6  N   UNL     1       0.598   8.787  20.654  0.00  0.00    +0.000 N 
ATOM      7  C   UNL     1      -0.333   8.520  21.747  0.00  0.00    +0.000 C 
ATOM      8  C   UNL     1      -0.371   9.740  22.676  0.00  0.00    +0.000 C 
ATOM      9  N   UNL     1      -0.665  10.978  21.932  0.00  0.00    +0.000 N 
ATOM     10  C   UNL     1      -1.564  11.860  22.504  0.00  0.00    +0.000 C 
ATOM     11  O   UNL     1      -2.082  11.586  23.587  0.00  0.00    +0.000 OA
ATOM     12  N   UNL     1      -1.852  12.991  21.779  0.00  0.00    +0.000 N 
ATOM     13  C   UNL     1       0.255  11.220  20.806  0.00  0.00    +0.000 C 
ATOM     14  C   UNL     1       0.341   9.994  19.867  0.00  0.00    +0.000 C 
ATOM     15  N   UNL     1       1.338   6.579  20.771  0.00  0.00    +0.000 NA
ATOM     16  C   UNL     1       2.175   5.625  20.354  0.00  0.00    +0.000 A 
ATOM     17  N   UNL     1       2.086   4.412  21.049  0.00  0.00    +0.000 N 
ATOM     18  C   UNL     1       3.110   5.826  19.344  0.00  0.00    +0.000 A 
ATOM     19  C   UNL     1       4.038   4.857  18.892  0.00  0.00    +0.000 A 
ATOM     20  C   UNL     1       4.968   5.167  17.900  0.00  0.00    +0.000 A 
ATOM     21  H   UNL     1      -1.666  12.952  20.794  0.00  0.00    +0.000 HD
ATOM     22  H   UNL     1       1.323   4.512  21.714  0.00  0.00    +0.000 HD
ATOM     23  H   UNL     1       1.931   3.634  20.419  0.00  0.00    +0.000 HD
ENDROOT
BRANCH  12  24
ATOM     24  C   UNL     1      -2.705  14.038  22.208  0.00  0.00    +0.000 A 
ATOM     25  C   UNL     1      -2.255  15.151  22.921  0.00  0.00    +0.000 A 
ATOM     26  C   UNL     1      -3.147  16.128  23.369  0.00  0.00    +0.000 A 
ATOM     27  C   UNL     1      -4.504  16.013  23.089  0.00  0.00    +0.000 A 
ATOM     28  C   UNL     1      -4.964  14.927  22.348  0.00  0.00    +0.000 A 
ATOM     29  C   UNL     1      -4.068  13.946  21.901  0.00  0.00    +0.000 A 
ENDBRANCH  12  24
BRANCH   1  31
ATOM     30  C   UNL     1       7.165   7.263  16.961  0.00  0.00    +0.000 C 
ATOM     31  O   UNL     1       5.932   6.775  16.434  0.00  0.00    +0.000 OA
ENDBRANCH   1  31
BRANCH  20  32
ATOM     32  O   UNL     1       5.894   4.283  17.408  0.00  0.00    +0.000 OA
ATOM     33  C   UNL     1       5.608   3.673  16.153  0.00  0.00    +0.000 C 
ENDBRANCH  20  32
TORSDOF 3
ENDMDL
MODEL 5
REMARK VINA RESULT:      -6.9      2.304     10.621
REMARK  Name = 
REMARK  5 active torsions:
REMARK  status: ('A' for Active; 'I' for Inactive)
REMARK    1  A    between atoms: C_1  and  O_2
REMARK    2  A    between atoms: O_2  and  C_3
REMARK    3  A    between atoms: N_14  and  C_15
REMARK    4  A    between atoms: C_28  and  O_29
REMARK    5  A    between atoms: O_29  and  C_30
REMARK                            x       y       z     vdW  Elec       q    Type
REMARK                         _______ _______ _______ _____ _____    ______ ____
ROOT
ATOM      1  C   UNL     1      -2.034  14.710  23.666  0.00  0.00    +0.000 A 
ATOM      2  C   UNL     1      -1.603  13.484  23.142  0.00  0.00    +0.000 A 
ATOM      3  C   UNL     1      -1.207  13.348  21.822  0.00  0.00    +0.000 A 
ATOM      4  N   UNL     1      -0.768  12.159  21.401  0.00  0.00    +0.000 NA
ATOM      5  C   UNL     1      -0.313  12.052  20.148  0.00  0.00    +0.000 A 
ATOM      6  N   UNL     1       0.255  10.869  19.755  0.00  0.00    +0.000 N 
ATOM      7  C   UNL     1       0.762  10.725  18.393  0.00  0.00    +0.000 C 
ATOM      8  C   UNL     1       2.045   9.884  18.427  0.00  0.00    +0.000 C 
ATOM      9  N   UNL     1       1.832   8.601  19.122  0.00  0.00    +0.000 N 
ATOM     10  C   UNL     1       2.386   7.472  18.547  0.00  0.00    +0.000 C 
ATOM     11  O   UNL     1       3.019   7.571  17.495  0.00  0.00    +0.000 OA
ATOM     12  N   UNL     1       2.148   6.282  19.190  0.00  0.00    +0.000 N 
ATOM     13  C   UNL     1       1.283   8.754  20.482  0.00  0.00    +0.000 C 
ATOM     14  C   UNL     1       0.006   9.626  20.486  0.00  0.00    +0.000 C 
ATOM     15  N   UNL     1      -0.320  13.079  19.287  0.00  0.00    +0.000 NA
ATOM     16  C   UNL     1      -0.793  14.256  19.706  0.00  0.00    +0.000 A 
ATOM     17  N   UNL     1      -0.739  15.288  18.761  0.00  0.00    +0.000 N 
ATOM     18  C   UNL     1      -1.257  14.469  20.999  0.00  0.00    +0.000 A 
ATOM     19  C   UNL     1      -1.736  15.704  21.498  0.00  0.00    +0.000 A 
ATOM     20  C   UNL     1      -2.140  15.830  22.826  0.00  0.00    +0.000 A 
ATOM     21  H   UNL     1       1.358   6.257  19.809  0.00  0.00    +0.000 HD
ATOM     22  H   UNL     1      -0.385  14.878  17.899  0.00  0.00    +0.000 HD
ATOM     23  H   UNL     1      -1.647  15.715  18.624  0.00  0.00    +0.000 HD
ENDROOT
BRANCH  12  24
ATOM     24  C   UNL     1       2.665   5.023  18.794  0.00  0.00    +0.000 A 
ATOM     25  C   UNL     1       2.063   4.217  17.825  0.00  0.00    +0.000 A 
ATOM     26  C   UNL     1       2.583   2.960  17.511  0.00  0.00    +0.000 A 
ATOM     27  C   UNL     1       3.729   2.501  18.150  0.00  0.00    +0.000 A 
ATOM     28  C   UNL     1       4.362   3.308  19.093  0.00  0.00    +0.000 A 
ATOM     29  C   UNL     1       3.838   4.568  19.409  0.00  0.00    +0.000 A 
ENDBRANCH  12  24
BRANCH   1  31
ATOM     30  C   UNL     1      -1.371  15.385  25.829  0.00  0.00    +0.000 C 
ATOM     31  O   UNL     1      -2.395  14.860  24.985  0.00  0.00    +0.000 OA
ENDBRANCH   1  31
BRANCH  20  32
ATOM     32  O   UNL     1      -2.619  16.989  23.381  0.00  0.00    +0.000 OA
ATOM     33  C   UNL     1      -1.975  18.204  23.008  0.00  0.00    +0.000 C 
ENDBRANCH  20  32
TORSDOF 3
ENDMDL
MODEL 6
REMARK VINA RESULT:      -6.9      0.938      1.320
REMARK  Name = 
REMARK  5 active torsions:
REMARK  status: ('A' for Active; 'I' for Inactive)
REMARK    1  A    between atoms: C_1  and  O_2
REMARK    2  A    between atoms: O_2  and  C_3
REMARK    3  A    between atoms: N_14  and  C_15
REMARK    4  A    between atoms: C_28  and  O_29
REMARK    5  A    between atoms: O_29  and  C_30
REMARK                            x       y       z     vdW  Elec       q    Type
REMARK                         _______ _______ _______ _____ _____    ______ ____
ROOT
ATOM      1  C   UNL     1       2.379   4.726  20.645  0.00  0.00    +0.000 A 
ATOM      2  C   UNL     1       1.808   5.902  21.150  0.00  0.00    +0.000 A 
ATOM      3  C   UNL     1       1.778   7.077  20.418  0.00  0.00    +0.000 A 
ATOM      4  N   UNL     1       1.180   8.148  20.946  0.00  0.00    +0.000 NA
ATOM      5  C   UNL     1       1.084   9.258  20.204  0.00  0.00    +0.000 A 
ATOM      6  N   UNL     1       0.360  10.313  20.693  0.00  0.00    +0.000 N 
ATOM      7  C   UNL     1       0.239  11.536  19.904  0.00  0.00    +0.000 C 
ATOM      8  C   UNL     1      -1.175  12.104  20.084  0.00  0.00    +0.000 C 
ATOM      9  N   UNL     1      -1.511  12.278  21.509  0.00  0.00    +0.000 N 
ATOM     10  C   UNL     1      -2.157  13.447  21.867  0.00  0.00    +0.000 C 
ATOM     11  O   UNL     1      -2.418  14.288  21.006  0.00  0.00    +0.000 OA
ATOM     12  N   UNL     1      -2.430  13.607  23.203  0.00  0.00    +0.000 N 
ATOM     13  C   UNL     1      -1.347  11.049  22.306  0.00  0.00    +0.000 C 
ATOM     14  C   UNL     1       0.059  10.433  22.120  0.00  0.00    +0.000 C 
ATOM     15  N   UNL     1       1.603   9.349  18.972  0.00  0.00    +0.000 NA
ATOM     16  C   UNL     1       2.230   8.284  18.465  0.00  0.00    +0.000 A 
ATOM     17  N   UNL     1       2.717   8.446  17.162  0.00  0.00    +0.000 N 
ATOM     18  C   UNL     1       2.350   7.080  19.150  0.00  0.00    +0.000 A 
ATOM     19  C   UNL     1       2.976   5.916  18.643  0.00  0.00    +0.000 A 
ATOM     20  C   UNL     1       3.007   4.739  19.389  0.00  0.00    +0.000 A 
ATOM     21  H   UNL     1      -1.882  13.060  23.842  0.00  0.00    +0.000 HD
ATOM     22  H   UNL     1       2.526   9.409  16.896  0.00  0.00    +0.000 HD
ATOM     23  H   UNL     1       3.706   8.233  17.106  0.00  0.00    +0.000 HD
ENDROOT
BRANCH  12  24
ATOM     24  C   UNL     1      -3.126  14.706  23.767  0.00  0.00    +0.000 A 
ATOM     25  C   UNL     1      -2.497  15.724  24.488  0.00  0.00    +0.000 A 
ATOM     26  C   UNL     1      -3.237  16.755  25.071  0.00  0.00    +0.000 A 
ATOM     27  C   UNL     1      -4.618  16.792  24.921  0.00  0.00    +0.000 A 
ATOM     28  C   UNL     1      -5.257  15.804  24.174  0.00  0.00    +0.000 A 
ATOM     29  C   UNL     1      -4.514  14.768  23.592  0.00  0.00    +0.000 A 
ENDBRANCH  12  24
BRANCH   1  31
ATOM     30  C   UNL     1       1.192   2.768  21.218  0.00  0.00    +0.000 C 
ATOM     31  O   UNL     1       2.380   3.546  21.351  0.00  0.00    +0.000 OA
ENDBRANCH   1  31
BRANCH  20  32
ATOM     32  O   UNL     1       3.597   3.574  18.969  0.00  0.00    +0.000 OA
ATOM     33  C   UNL     1       4.495   3.660  17.866  0.00  0.00    +0.000 C 
ENDBRANCH  20  32
TORSDOF 3
ENDMDL
MODEL 7
REMARK VINA RESULT:      -6.8      3.423      4.445
REMARK  Name = 
REMARK  5 active torsions:
REMARK  status: ('A' for Active; 'I' for Inactive)
REMARK    1  A    between atoms: C_1  and  O_2
REMARK    2  A    between atoms: O_2  and  C_3
REMARK    3  A    between atoms: N_14  and  C_15
REMARK    4  A    between atoms: C_28  and  O_29
REMARK    5  A    between atoms: O_29  and  C_30
REMARK                            x       y       z     vdW  Elec       q    Type
REMARK                         _______ _______ _______ _____ _____    ______ ____
ROOT
ATOM      1  C   UNL     1       4.528   4.822  16.974  0.00  0.00    +0.000 A 
ATOM      2  C   UNL     1       4.024   6.128  17.036  0.00  0.00    +0.000 A 
ATOM      3  C   UNL     1       3.155   6.532  18.035  0.00  0.00    +0.000 A 
ATOM      4  N   UNL     1       2.747   7.805  18.057  0.00  0.00    +0.000 NA
ATOM      5  C   UNL     1       1.970   8.210  19.068  0.00  0.00    +0.000 A 
ATOM      6  N   UNL     1       1.657   9.541  19.161  0.00  0.00    +0.000 N 
ATOM      7  C   UNL     1       0.811  10.011  20.255  0.00  0.00    +0.000 C 
ATOM      8  C   UNL     1       1.317  11.383  20.719  0.00  0.00    +0.000 C 
ATOM      9  N   UNL     1       1.418  12.330  19.594  0.00  0.00    +0.000 N 
ATOM     10  C   UNL     1       0.967  13.620  19.812  0.00  0.00    +0.000 C 
ATOM     11  O   UNL     1       0.501  13.925  20.910  0.00  0.00    +0.000 OA
ATOM     12  N   UNL     1       1.037  14.478  18.742  0.00  0.00    +0.000 N 
ATOM     13  C   UNL     1       2.241  11.831  18.477  0.00  0.00    +0.000 C 
ATOM     14  C   UNL     1       1.776  10.433  18.008  0.00  0.00    +0.000 C 
ATOM     15  N   UNL     1       1.550   7.381  20.033  0.00  0.00    +0.000 NA
ATOM     16  C   UNL     1       1.933   6.102  19.984  0.00  0.00    +0.000 A 
ATOM     17  N   UNL     1       1.481   5.306  21.044  0.00  0.00    +0.000 N 
ATOM     18  C   UNL     1       2.766   5.599  18.990  0.00  0.00    +0.000 A 
ATOM     19  C   UNL     1       3.225   4.262  18.915  0.00  0.00    +0.000 A 
ATOM     20  C   UNL     1       4.095   3.862  17.902  0.00  0.00    +0.000 A 
ATOM     21  H   UNL     1       1.092  14.058  17.832  0.00  0.00    +0.000 HD
ATOM     22  H   UNL     1       0.881   5.894  21.617  0.00  0.00    +0.000 HD
ATOM     23  H   UNL     1       0.989   4.486  20.708  0.00  0.00    +0.000 HD
ENDROOT
BRANCH  12  24
ATOM     24  C   UNL     1       0.673  15.848  18.771  0.00  0.00    +0.000 A 
ATOM     25  C   UNL     1      -0.642  16.296  18.629  0.00  0.00    +0.000 A 
ATOM     26  C   UNL     1      -0.939  17.660  18.609  0.00  0.00    +0.000 A 
ATOM     27  C   UNL     1       0.079  18.596  18.753  0.00  0.00    +0.000 A 
ATOM     28  C   UNL     1       1.392  18.166  18.932  0.00  0.00    +0.000 A 
ATOM     29  C   UNL     1       1.688  16.796  18.949  0.00  0.00    +0.000 A 
ENDBRANCH  12  24
BRANCH   1  31
ATOM     30  C   UNL     1       6.752   4.901  16.187  0.00  0.00    +0.000 C 
ATOM     31  O   UNL     1       5.420   4.423  16.006  0.00  0.00    +0.000 OA
ENDBRANCH   1  31
BRANCH  20  32
ATOM     32  O   UNL     1       4.579   2.586  17.760  0.00  0.00    +0.000 OA
ATOM     33  C   UNL     1       3.755   1.522  18.225  0.00  0.00    +0.000 C 
ENDBRANCH  20  32
TORSDOF 3
ENDMDL
MODEL 8
REMARK VINA RESULT:      -6.8      3.010     11.156
REMARK  Name = 
REMARK  5 active torsions:
REMARK  status: ('A' for Active; 'I' for Inactive)
REMARK    1  A    between atoms: C_1  and  O_2
REMARK    2  A    between atoms: O_2  and  C_3
REMARK    3  A    between atoms: N_14  and  C_15
REMARK    4  A    between atoms: C_28  and  O_29
REMARK    5  A    between atoms: O_29  and  C_30
REMARK                            x       y       z     vdW  Elec       q    Type
REMARK                         _______ _______ _______ _____ _____    ______ ____
ROOT
ATOM      1  C   UNL     1      -1.319  16.993  19.380  0.00  0.00    +0.000 A 
ATOM      2  C   UNL     1      -0.661  15.777  19.150  0.00  0.00    +0.000 A 
ATOM      3  C   UNL     1      -0.445  14.856  20.160  0.00  0.00    +0.000 A 
ATOM      4  N   UNL     1       0.152  13.699  19.860  0.00  0.00    +0.000 NA
ATOM      5  C   UNL     1       0.287  12.780  20.823  0.00  0.00    +0.000 A 
ATOM      6  N   UNL     1       0.782  11.547  20.487  0.00  0.00    +0.000 N 
ATOM      7  C   UNL     1       0.939  10.525  21.518  0.00  0.00    +0.000 C 
ATOM      8  C   UNL     1       0.584   9.158  20.919  0.00  0.00    +0.000 C 
ATOM      9  N   UNL     1       1.354   8.889  19.691  0.00  0.00    +0.000 N 
ATOM     10  C   UNL     1       1.878   7.618  19.540  0.00  0.00    +0.000 C 
ATOM     11  O   UNL     1       1.695   6.774  20.418  0.00  0.00    +0.000 OA
ATOM     12  N   UNL     1       2.622   7.397  18.406  0.00  0.00    +0.000 N 
ATOM     13  C   UNL     1       1.222   9.946  18.671  0.00  0.00    +0.000 C 
ATOM     14  C   UNL     1       1.541  11.342  19.254  0.00  0.00    +0.000 C 
ATOM     15  N   UNL     1      -0.113  12.991  22.084  0.00  0.00    +0.000 NA
ATOM     16  C   UNL     1      -0.678  14.165  22.384  0.00  0.00    +0.000 A 
ATOM     17  N   UNL     1      -1.098  14.299  23.713  0.00  0.00    +0.000 N 
ATOM     18  C   UNL     1      -0.888  15.166  21.442  0.00  0.00    +0.000 A 
ATOM     19  C   UNL     1      -1.511  16.410  21.704  0.00  0.00    +0.000 A 
ATOM     20  C   UNL     1      -1.717  17.335  20.682  0.00  0.00    +0.000 A 
ATOM     21  H   UNL     1       2.999   8.209  17.952  0.00  0.00    +0.000 HD
ATOM     22  H   UNL     1      -0.814  13.450  24.197  0.00  0.00    +0.000 HD
ATOM     23  H   UNL     1      -0.702  15.125  24.146  0.00  0.00    +0.000 HD
ENDROOT
BRANCH  12  24
ATOM     24  C   UNL     1       3.202   6.157  18.041  0.00  0.00    +0.000 A 
ATOM     25  C   UNL     1       4.573   5.980  17.841  0.00  0.00    +0.000 A 
ATOM     26  C   UNL     1       5.087   4.750  17.427  0.00  0.00    +0.000 A 
ATOM     27  C   UNL     1       4.234   3.670  17.229  0.00  0.00    +0.000 A 
ATOM     28  C   UNL     1       2.868   3.819  17.459  0.00  0.00    +0.000 A 
ATOM     29  C   UNL     1       2.353   5.056  17.872  0.00  0.00    +0.000 A 
ENDBRANCH  12  24
BRANCH   1  31
ATOM     30  C   UNL     1      -0.563  17.960  17.364  0.00  0.00    +0.000 C 
ATOM     31  O   UNL     1      -1.569  17.897  18.374  0.00  0.00    +0.000 OA
ENDBRANCH   1  31
BRANCH  20  32
ATOM     32  O   UNL     1      -2.308  18.560  20.858  0.00  0.00    +0.000 OA
ATOM     33  C   UNL     1      -3.508  18.601  21.623  0.00  0.00    +0.000 C 
ENDBRANCH  20  32
TORSDOF 3
ENDMDL
MODEL 9
REMARK VINA RESULT:      -6.8      2.657     10.914
REMARK  Name = 
REMARK  5 active torsions:
REMARK  status: ('A' for Active; 'I' for Inactive)
REMARK    1  A    between atoms: C_1  and  O_2
REMARK    2  A    between atoms: O_2  and  C_3
REMARK    3  A    between atoms: N_14  and  C_15
REMARK    4  A    between atoms: C_28  and  O_29
REMARK    5  A    between atoms: O_29  and  C_30
REMARK                            x       y       z     vdW  Elec       q    Type
REMARK                         _______ _______ _______ _____ _____    ______ ____
ROOT
ATOM      1  C   UNL     1      -1.997  15.624  25.106  0.00  0.00    +0.000 A 
ATOM      2  C   UNL     1      -1.471  14.503  24.450  0.00  0.00    +0.000 A 
ATOM      3  C   UNL     1      -1.841  14.167  23.159  0.00  0.00    +0.000 A 
ATOM      4  N   UNL     1      -1.268  13.109  22.580  0.00  0.00    +0.000 NA
ATOM      5  C   UNL     1      -1.571  12.834  21.306  0.00  0.00    +0.000 A 
ATOM      6  N   UNL     1      -0.889  11.828  20.672  0.00  0.00    +0.000 N 
ATOM      7  C   UNL     1      -1.198  11.508  19.281  0.00  0.00    +0.000 C 
ATOM      8  C   UNL     1       0.104  11.148  18.553  0.00  0.00    +0.000 C 
ATOM      9  N   UNL     1       0.842  10.086  19.260  0.00  0.00    +0.000 N 
ATOM     10  C   UNL     1       1.393   9.080  18.487  0.00  0.00    +0.000 C 
ATOM     11  O   UNL     1       1.247   9.100  17.264  0.00  0.00    +0.000 OA
ATOM     12  N   UNL     1       2.047   8.080  19.166  0.00  0.00    +0.000 N 
ATOM     13  C   UNL     1       1.115  10.400  20.674  0.00  0.00    +0.000 C 
ATOM     14  C   UNL     1      -0.174  10.800  21.428  0.00  0.00    +0.000 C 
ATOM     15  N   UNL     1      -2.458  13.552  20.604  0.00  0.00    +0.000 NA
ATOM     16  C   UNL     1      -3.053  14.587  21.202  0.00  0.00    +0.000 A 
ATOM     17  N   UNL     1      -3.943  15.307  20.395  0.00  0.00    +0.000 N 
ATOM     18  C   UNL     1      -2.777  14.966  22.511  0.00  0.00    +0.000 A 
ATOM     19  C   UNL     1      -3.357  16.074  23.175  0.00  0.00    +0.000 A 
ATOM     20  C   UNL     1      -2.983  16.401  24.478  0.00  0.00    +0.000 A 
ATOM     21  H   UNL     1       1.812   7.968  20.135  0.00  0.00    +0.000 HD
ATOM     22  H   UNL     1      -3.986  14.823  19.502  0.00  0.00    +0.000 HD
ATOM     23  H   UNL     1      -4.858  15.379  20.824  0.00  0.00    +0.000 HD
ENDROOT
BRANCH  12  24
ATOM     24  C   UNL     1       2.720   6.989  18.560  0.00  0.00    +0.000 A 
ATOM     25  C   UNL     1       3.850   7.137  17.753  0.00  0.00    +0.000 A 
ATOM     26  C   UNL     1       4.442   6.034  17.135  0.00  0.00    +0.000 A 
ATOM     27  C   UNL     1       3.921   4.761  17.336  0.00  0.00    +0.000 A 
ATOM     28  C   UNL     1       2.816   4.591  18.167  0.00  0.00    +0.000 A 
ATOM     29  C   UNL     1       2.221   5.700  18.785  0.00  0.00    +0.000 A 
ENDBRANCH  12  24
BRANCH   1  31
ATOM     30  C   UNL     1      -0.316  16.588  26.454  0.00  0.00    +0.000 C 
ATOM     31  O   UNL     1      -1.606  15.985  26.374  0.00  0.00    +0.000 OA
ENDBRANCH   1  31
BRANCH  20  32
ATOM     32  O   UNL     1      -3.502  17.453  25.188  0.00  0.00    +0.000 OA
ATOM     33  C   UNL     1      -4.921  17.550  25.265  0.00  0.00    +0.000 C 
ENDBRANCH  20  32
TORSDOF 3
ENDMDL
