MODEL 1
REMARK VINA RESULT:      -8.6      0.000      0.000
REMARK  Name = 
REMARK  9 active torsions:
REMARK  status: ('A' for Active; 'I' for Inactive)
REMARK    1  A    between atoms: C_1  and  N_2
REMARK    2  A    between atoms: N_2  and  C_3
REMARK    3  A    between atoms: N_2  and  C_4
REMARK    4  A    between atoms: C_7  and  P_8
REMARK    5  A    between atoms: P_8  and  O_10
REMARK    6  A    between atoms: P_8  and  C_17
REMARK    7  A    between atoms: O_10  and  C_11
REMARK    8  A    between atoms: C_17  and  O_18
REMARK    9  A    between atoms: C_17  and  C_19
REMARK                            x       y       z     vdW  Elec       q    Type
REMARK                         _______ _______ _______ _____ _____    ______ ____
ROOT
ATOM      1  P   UNL     1       4.167   5.450  17.772  0.00  0.00    +0.000 P 
ATOM      2  O   UNL     1       5.420   6.298  18.074  0.00  0.00    +0.000 OA
ENDROOT
BRANCH   1   6
ATOM      3  C   UNL     1       1.353   8.880  19.302  0.00  0.00    +0.000 A 
ATOM      4  C   UNL     1       1.827   7.851  20.132  0.00  0.00    +0.000 A 
ATOM      5  C   UNL     1       2.656   6.829  19.650  0.00  0.00    +0.000 A 
ATOM      6  C   UNL     1       3.099   6.831  18.322  0.00  0.00    +0.000 A 
ATOM      7  C   UNL     1       2.727   7.906  17.510  0.00  0.00    +0.000 A 
ATOM      8  C   UNL     1       1.868   8.902  17.994  0.00  0.00    +0.000 A 
BRANCH   3  10
ATOM      9  C   UNL     1      -0.204   9.660  21.049  0.00  0.00    +0.000 C 
ATOM     10  N   UNL     1       0.433   9.842  19.747  0.00  0.00    +0.000 N 
ATOM     11  C   UNL     1      -0.395  10.484  18.721  0.00  0.00    +0.000 C 
ENDBRANCH   3  10
ENDBRANCH   1   6
BRANCH   1  12
ATOM     12  O   UNL     1       3.829   4.571  19.176  0.00  0.00    +0.000 OA
BRANCH  12  13
ATOM     13  C   UNL     1       3.146   3.312  19.157  0.00  0.00    +0.000 C 
ATOM     14  C   UNL     1       3.439   2.467  20.397  0.00  0.00    +0.000 C 
ATOM     15  C   UNL     1       2.623   2.876  21.621  0.00  0.00    +0.000 C 
ATOM     16  C   UNL     1       1.134   2.867  21.312  0.00  0.00    +0.000 C 
ATOM     17  C   UNL     1       0.824   3.839  20.185  0.00  0.00    +0.000 C 
ATOM     18  C   UNL     1       1.636   3.520  18.926  0.00  0.00    +0.000 C 
ENDBRANCH  12  13
ENDBRANCH   1  12
BRANCH   1  19
ATOM     19  C   UNL     1       5.235   4.069  17.223  0.00  0.00    +0.000 C 
BRANCH  19  20
ATOM     20  C   UNL     1       5.985   4.244  15.911  0.00  0.00    +0.000 A 
ATOM     21  C   UNL     1       5.570   3.691  14.698  0.00  0.00    +0.000 A 
ATOM     22  C   UNL     1       6.235   4.037  13.523  0.00  0.00    +0.000 A 
ATOM     23  C   UNL     1       7.304   4.921  13.594  0.00  0.00    +0.000 A 
ATOM     24  N   UNL     1       7.747   5.459  14.742  0.00  0.00    +0.000 NA
ATOM     25  C   UNL     1       7.073   5.127  15.870  0.00  0.00    +0.000 A 
ENDBRANCH  19  20
BRANCH  19  26
ATOM     26  O   UNL     1       4.445   2.859  17.140  0.00  0.00    +0.000 OA
ATOM     27  H   UNL     1       5.021   2.098  17.305  0.00  0.00    +0.000 HD
ENDBRANCH  19  26
ENDBRANCH   1  19
TORSDOF 7
ENDMDL
MODEL 2
REMARK VINA RESULT:      -8.3      0.992      1.725
REMARK  Name = 
REMARK  9 active torsions:
REMARK  status: ('A' for Active; 'I' for Inactive)
REMARK    1  A    between atoms: C_1  and  N_2
REMARK    2  A    between atoms: N_2  and  C_3
REMARK    3  A    between atoms: N_2  and  C_4
REMARK    4  A    between atoms: C_7  and  P_8
REMARK    5  A    between atoms: P_8  and  O_10
REMARK    6  A    between atoms: P_8  and  C_17
REMARK    7  A    between atoms: O_10  and  C_11
REMARK    8  A    between atoms: C_17  and  O_18
REMARK    9  A    between atoms: C_17  and  C_19
REMARK                            x       y       z     vdW  Elec       q    Type
REMARK                         _______ _______ _______ _____ _____    ______ ____
ROOT
ATOM      1  P   UNL     1       4.131   5.823  18.233  0.00  0.00    +0.000 P 
ATOM      2  O   UNL     1       5.190   6.486  19.138  0.00  0.00    +0.000 OA
ENDROOT
BRANCH   1   6
ATOM      3  C   UNL     1       1.193   9.378  19.103  0.00  0.00    +0.000 A 
ATOM      4  C   UNL     1       1.720   9.114  17.829  0.00  0.00    +0.000 A 
ATOM      5  C   UNL     1       2.607   8.055  17.594  0.00  0.00    +0.000 A 
ATOM      6  C   UNL     1       2.955   7.169  18.623  0.00  0.00    +0.000 A 
ATOM      7  C   UNL     1       2.353   7.350  19.871  0.00  0.00    +0.000 A 
ATOM      8  C   UNL     1       1.497   8.435  20.102  0.00  0.00    +0.000 A 
BRANCH   3  10
ATOM      9  C   UNL     1      -1.025  10.455  19.032  0.00  0.00    +0.000 C 
ATOM     10  N   UNL     1       0.395  10.501  19.370  0.00  0.00    +0.000 N 
ATOM     11  C   UNL     1       1.037  11.811  19.231  0.00  0.00    +0.000 C 
ENDBRANCH   3  10
ENDBRANCH   1   6
BRANCH   1  12
ATOM     12  O   UNL     1       3.276   4.735  19.206  0.00  0.00    +0.000 OA
BRANCH  12  13
ATOM     13  C   UNL     1       1.850   4.612  19.162  0.00  0.00    +0.000 C 
ATOM     14  C   UNL     1       1.370   3.774  17.977  0.00  0.00    +0.000 C 
ATOM     15  C   UNL     1       1.479   2.268  18.211  0.00  0.00    +0.000 C 
ATOM     16  C   UNL     1       0.751   1.859  19.481  0.00  0.00    +0.000 C 
ATOM     17  C   UNL     1       1.346   2.573  20.685  0.00  0.00    +0.000 C 
ATOM     18  C   UNL     1       1.311   4.095  20.511  0.00  0.00    +0.000 C 
ENDBRANCH  12  13
ENDBRANCH   1  12
BRANCH   1  19
ATOM     19  C   UNL     1       5.307   4.476  17.844  0.00  0.00    +0.000 C 
BRANCH  19  20
ATOM     20  C   UNL     1       5.914   4.459  16.449  0.00  0.00    +0.000 A 
ATOM     21  C   UNL     1       5.295   3.884  15.338  0.00  0.00    +0.000 A 
ATOM     22  C   UNL     1       5.856   4.057  14.074  0.00  0.00    +0.000 A 
ATOM     23  C   UNL     1       7.027   4.794  13.956  0.00  0.00    +0.000 A 
ATOM     24  N   UNL     1       7.665   5.346  15.002  0.00  0.00    +0.000 NA
ATOM     25  C   UNL     1       7.092   5.185  16.218  0.00  0.00    +0.000 A 
ENDBRANCH  19  20
BRANCH  19  26
ATOM     26  O   UNL     1       4.665   3.200  18.079  0.00  0.00    +0.000 OA
ATOM     27  H   UNL     1       5.163   2.510  17.616  0.00  0.00    +0.000 HD
ENDBRANCH  19  26
ENDBRANCH   1  19
TORSDOF 7
ENDMDL
MODEL 3
REMARK VINA RESULT:      -8.2      0.859      1.317
REMARK  Name = 
REMARK  9 active torsions:
REMARK  status: ('A' for Active; 'I' for Inactive)
REMARK    1  A    between atoms: C_1  and  N_2
REMARK    2  A    between atoms: N_2  and  C_3
REMARK    3  A    between atoms: N_2  and  C_4
REMARK    4  A    between atoms: C_7  and  P_8
REMARK    5  A    between atoms: P_8  and  O_10
REMARK    6  A    between atoms: P_8  and  C_17
REMARK    7  A    between atoms: O_10  and  C_11
REMARK    8  A    between atoms: C_17  and  O_18
REMARK    9  A    between atoms: C_17  and  C_19
REMARK                            x       y       z     vdW  Elec       q    Type
REMARK                         _______ _______ _______ _____ _____    ______ ____
ROOT
ATOM      1  P   UNL     1       4.130   5.836  18.146  0.00  0.00    +0.000 P 
ATOM      2  O   UNL     1       5.206   6.527  19.009  0.00  0.00    +0.000 OA
ENDROOT
BRANCH   1   6
ATOM      3  C   UNL     1       1.070   9.234  19.203  0.00  0.00    +0.000 A 
ATOM      4  C   UNL     1       1.595   8.351  20.160  0.00  0.00    +0.000 A 
ATOM      5  C   UNL     1       2.498   7.335  19.820  0.00  0.00    +0.000 A 
ATOM      6  C   UNL     1       2.965   7.200  18.506  0.00  0.00    +0.000 A 
ATOM      7  C   UNL     1       2.538   8.138  17.562  0.00  0.00    +0.000 A 
ATOM      8  C   UNL     1       1.607   9.127  17.907  0.00  0.00    +0.000 A 
BRANCH   3  10
ATOM      9  C   UNL     1      -0.333  10.338  20.905  0.00  0.00    +0.000 C 
ATOM     10  N   UNL     1       0.081  10.180  19.513  0.00  0.00    +0.000 N 
ATOM     11  C   UNL     1      -0.971  10.384  18.513  0.00  0.00    +0.000 C 
ENDBRANCH   3  10
ENDBRANCH   1   6
BRANCH   1  12
ATOM     12  O   UNL     1       3.289   4.787  19.172  0.00  0.00    +0.000 OA
BRANCH  12  13
ATOM     13  C   UNL     1       1.862   4.671  19.159  0.00  0.00    +0.000 C 
ATOM     14  C   UNL     1       1.351   3.842  17.980  0.00  0.00    +0.000 C 
ATOM     15  C   UNL     1       1.459   2.335  18.202  0.00  0.00    +0.000 C 
ATOM     16  C   UNL     1       0.757   1.920  19.485  0.00  0.00    +0.000 C 
ATOM     17  C   UNL     1       1.382   2.625  20.679  0.00  0.00    +0.000 C 
ATOM     18  C   UNL     1       1.350   4.148  20.516  0.00  0.00    +0.000 C 
ENDBRANCH  12  13
ENDBRANCH   1  12
BRANCH   1  19
ATOM     19  C   UNL     1       5.296   4.472  17.787  0.00  0.00    +0.000 C 
BRANCH  19  20
ATOM     20  C   UNL     1       5.949   4.455  16.413  0.00  0.00    +0.000 A 
ATOM     21  C   UNL     1       5.427   3.773  15.312  0.00  0.00    +0.000 A 
ATOM     22  C   UNL     1       6.011   3.945  14.058  0.00  0.00    +0.000 A 
ATOM     23  C   UNL     1       7.109   4.788  13.941  0.00  0.00    +0.000 A 
ATOM     24  N   UNL     1       7.653   5.446  14.978  0.00  0.00    +0.000 NA
ATOM     25  C   UNL     1       7.057   5.283  16.183  0.00  0.00    +0.000 A 
ENDBRANCH  19  20
BRANCH  19  26
ATOM     26  O   UNL     1       4.625   3.206  17.990  0.00  0.00    +0.000 OA
ATOM     27  H   UNL     1       4.681   2.969  18.928  0.00  0.00    +0.000 HD
ENDBRANCH  19  26
ENDBRANCH   1  19
TORSDOF 7
ENDMDL
MODEL 4
REMARK VINA RESULT:      -8.0      1.163      1.579
REMARK  Name = 
REMARK  9 active torsions:
REMARK  status: ('A' for Active; 'I' for Inactive)
REMARK    1  A    between atoms: C_1  and  N_2
REMARK    2  A    between atoms: N_2  and  C_3
REMARK    3  A    between atoms: N_2  and  C_4
REMARK    4  A    between atoms: C_7  and  P_8
REMARK    5  A    between atoms: P_8  and  O_10
REMARK    6  A    between atoms: P_8  and  C_17
REMARK    7  A    between atoms: O_10  and  C_11
REMARK    8  A    between atoms: C_17  and  O_18
REMARK    9  A    between atoms: C_17  and  C_19
REMARK                            x       y       z     vdW  Elec       q    Type
REMARK                         _______ _______ _______ _____ _____    ______ ____
ROOT
ATOM      1  P   UNL     1       4.701   5.861  18.158  0.00  0.00    +0.000 P 
ATOM      2  O   UNL     1       5.452   6.258  19.446  0.00  0.00    +0.000 OA
ENDROOT
BRANCH   1   6
ATOM      3  C   UNL     1       1.283   8.912  19.171  0.00  0.00    +0.000 A 
ATOM      4  C   UNL     1       1.895   8.840  17.910  0.00  0.00    +0.000 A 
ATOM      5  C   UNL     1       2.924   7.929  17.633  0.00  0.00    +0.000 A 
ATOM      6  C   UNL     1       3.341   7.003  18.598  0.00  0.00    +0.000 A 
ATOM      7  C   UNL     1       2.668   6.987  19.823  0.00  0.00    +0.000 A 
ATOM      8  C   UNL     1       1.666   7.927  20.099  0.00  0.00    +0.000 A 
BRANCH   3  10
ATOM      9  C   UNL     1      -0.249   9.902  20.832  0.00  0.00    +0.000 C 
ATOM     10  N   UNL     1       0.333   9.894  19.492  0.00  0.00    +0.000 N 
ATOM     11  C   UNL     1      -0.560  10.323  18.411  0.00  0.00    +0.000 C 
ENDBRANCH   3  10
ENDBRANCH   1   6
BRANCH   1  12
ATOM     12  O   UNL     1       3.756   4.514  18.545  0.00  0.00    +0.000 OA
BRANCH  12  13
ATOM     13  C   UNL     1       2.756   3.990  17.664  0.00  0.00    +0.000 C 
ATOM     14  C   UNL     1       2.880   2.478  17.470  0.00  0.00    +0.000 C 
ATOM     15  C   UNL     1       2.278   1.665  18.615  0.00  0.00    +0.000 C 
ATOM     16  C   UNL     1       0.828   2.052  18.856  0.00  0.00    +0.000 C 
ATOM     17  C   UNL     1       0.728   3.527  19.214  0.00  0.00    +0.000 C 
ATOM     18  C   UNL     1       1.349   4.414  18.130  0.00  0.00    +0.000 C 
ENDBRANCH  12  13
ENDBRANCH   1  12
BRANCH   1  19
ATOM     19  C   UNL     1       6.062   4.718  17.717  0.00  0.00    +0.000 C 
BRANCH  19  20
ATOM     20  C   UNL     1       6.365   4.530  16.239  0.00  0.00    +0.000 A 
ATOM     21  C   UNL     1       5.620   3.711  15.390  0.00  0.00    +0.000 A 
ATOM     22  C   UNL     1       5.879   3.725  14.020  0.00  0.00    +0.000 A 
ATOM     23  C   UNL     1       6.884   4.553  13.538  0.00  0.00    +0.000 A 
ATOM     24  N   UNL     1       7.638   5.340  14.323  0.00  0.00    +0.000 NA
ATOM     25  C   UNL     1       7.355   5.328  15.648  0.00  0.00    +0.000 A 
ENDBRANCH  19  20
BRANCH  19  26
ATOM     26  O   UNL     1       5.800   3.419  18.300  0.00  0.00    +0.000 OA
ATOM     27  H   UNL     1       6.259   3.361  19.151  0.00  0.00    +0.000 HD
ENDBRANCH  19  26
ENDBRANCH   1  19
TORSDOF 7
ENDMDL
MODEL 5
REMARK VINA RESULT:      -7.8      0.650      1.357
REMARK  Name = 
REMARK  9 active torsions:
REMARK  status: ('A' for Active; 'I' for Inactive)
REMARK    1  A    between atoms: C_1  and  N_2
REMARK    2  A    between atoms: N_2  and  C_3
REMARK    3  A    between atoms: N_2  and  C_4
REMARK    4  A    between atoms: C_7  and  P_8
REMARK    5  A    between atoms: P_8  and  O_10
REMARK    6  A    between atoms: P_8  and  C_17
REMARK    7  A    between atoms: O_10  and  C_11
REMARK    8  A    between atoms: C_17  and  O_18
REMARK    9  A    between atoms: C_17  and  C_19
REMARK                            x       y       z     vdW  Elec       q    Type
REMARK                         _______ _______ _______ _____ _____    ______ ____
ROOT
ATOM      1  P   UNL     1       4.103   5.507  17.773  0.00  0.00    +0.000 P 
ATOM      2  O   UNL     1       5.335   6.397  18.037  0.00  0.00    +0.000 OA
ENDROOT
BRANCH   1   6
ATOM      3  C   UNL     1       1.379   8.995  19.337  0.00  0.00    +0.000 A 
ATOM      4  C   UNL     1       1.798   8.891  18.001  0.00  0.00    +0.000 A 
ATOM      5  C   UNL     1       2.623   7.847  17.558  0.00  0.00    +0.000 A 
ATOM      6  C   UNL     1       3.012   6.822  18.430  0.00  0.00    +0.000 A 
ATOM      7  C   UNL     1       2.515   6.850  19.736  0.00  0.00    +0.000 A 
ATOM      8  C   UNL     1       1.721   7.918  20.175  0.00  0.00    +0.000 A 
BRANCH   3  10
ATOM      9  C   UNL     1       0.368  10.189  21.244  0.00  0.00    +0.000 C 
ATOM     10  N   UNL     1       0.648  10.094  19.813  0.00  0.00    +0.000 N 
ATOM     11  C   UNL     1      -0.392  10.626  18.928  0.00  0.00    +0.000 C 
ENDBRANCH   3  10
ENDBRANCH   1   6
BRANCH   1  12
ATOM     12  O   UNL     1       3.879   4.567  19.161  0.00  0.00    +0.000 OA
BRANCH  12  13
ATOM     13  C   UNL     1       3.202   3.306  19.142  0.00  0.00    +0.000 C 
ATOM     14  C   UNL     1       3.474   2.475  20.396  0.00  0.00    +0.000 C 
ATOM     15  C   UNL     1       2.632   2.893  21.600  0.00  0.00    +0.000 C 
ATOM     16  C   UNL     1       1.150   2.876  21.262  0.00  0.00    +0.000 C 
ATOM     17  C   UNL     1       0.858   3.834  20.118  0.00  0.00    +0.000 C 
ATOM     18  C   UNL     1       1.696   3.505  18.879  0.00  0.00    +0.000 C 
ENDBRANCH  12  13
ENDBRANCH   1  12
BRANCH   1  19
ATOM     19  C   UNL     1       5.193   4.192  17.117  0.00  0.00    +0.000 C 
BRANCH  19  20
ATOM     20  C   UNL     1       5.818   4.421  15.749  0.00  0.00    +0.000 A 
ATOM     21  C   UNL     1       7.031   5.082  15.549  0.00  0.00    +0.000 A 
ATOM     22  C   UNL     1       7.599   5.104  14.276  0.00  0.00    +0.000 A 
ATOM     23  C   UNL     1       6.933   4.471  13.235  0.00  0.00    +0.000 A 
ATOM     24  N   UNL     1       5.755   3.842  13.381  0.00  0.00    +0.000 NA
ATOM     25  C   UNL     1       5.231   3.813  14.630  0.00  0.00    +0.000 A 
ENDBRANCH  19  20
BRANCH  19  26
ATOM     26  O   UNL     1       4.464   2.942  17.084  0.00  0.00    +0.000 OA
ATOM     27  H   UNL     1       3.831   2.969  16.351  0.00  0.00    +0.000 HD
ENDBRANCH  19  26
ENDBRANCH   1  19
TORSDOF 7
ENDMDL
MODEL 6
REMARK VINA RESULT:      -7.8      0.822      1.260
REMARK  Name = 
REMARK  9 active torsions:
REMARK  status: ('A' for Active; 'I' for Inactive)
REMARK    1  A    between atoms: C_1  and  N_2
REMARK    2  A    between atoms: N_2  and  C_3
REMARK    3  A    between atoms: N_2  and  C_4
REMARK    4  A    between atoms: C_7  and  P_8
REMARK    5  A    between atoms: P_8  and  O_10
REMARK    6  A    between atoms: P_8  and  C_17
REMARK    7  A    between atoms: O_10  and  C_11
REMARK    8  A    between atoms: C_17  and  O_18
REMARK    9  A    between atoms: C_17  and  C_19
REMARK                            x       y       z     vdW  Elec       q    Type
REMARK                         _______ _______ _______ _____ _____    ______ ____
ROOT
ATOM      1  P   UNL     1       4.033   5.431  17.752  0.00  0.00    +0.000 P 
ATOM      2  O   UNL     1       5.031   5.674  18.903  0.00  0.00    +0.000 OA
ENDROOT
BRANCH   1   6
ATOM      3  C   UNL     1       1.514   9.140  19.138  0.00  0.00    +0.000 A 
ATOM      4  C   UNL     1       2.022   9.003  17.837  0.00  0.00    +0.000 A 
ATOM      5  C   UNL     1       2.783   7.892  17.448  0.00  0.00    +0.000 A 
ATOM      6  C   UNL     1       3.015   6.835  18.337  0.00  0.00    +0.000 A 
ATOM      7  C   UNL     1       2.425   6.903  19.601  0.00  0.00    +0.000 A 
ATOM      8  C   UNL     1       1.696   8.035  19.990  0.00  0.00    +0.000 A 
BRANCH   3  10
ATOM      9  C   UNL     1      -0.591  10.235  19.814  0.00  0.00    +0.000 C 
ATOM     10  N   UNL     1       0.848  10.298  19.569  0.00  0.00    +0.000 N 
ATOM     11  C   UNL     1       1.346  11.575  19.048  0.00  0.00    +0.000 C 
ENDBRANCH   3  10
ENDBRANCH   1   6
BRANCH   1  12
ATOM     12  O   UNL     1       2.899   4.314  18.321  0.00  0.00    +0.000 OA
BRANCH  12  13
ATOM     13  C   UNL     1       3.233   3.277  19.251  0.00  0.00    +0.000 C 
ATOM     14  C   UNL     1       3.408   3.802  20.676  0.00  0.00    +0.000 C 
ATOM     15  C   UNL     1       2.088   4.018  21.413  0.00  0.00    +0.000 C 
ATOM     16  C   UNL     1       1.248   2.752  21.414  0.00  0.00    +0.000 C 
ATOM     17  C   UNL     1       0.934   2.326  19.987  0.00  0.00    +0.000 C 
ATOM     18  C   UNL     1       2.212   2.125  19.165  0.00  0.00    +0.000 C 
ENDBRANCH  12  13
ENDBRANCH   1  12
BRANCH   1  19
ATOM     19  C   UNL     1       5.051   4.027  17.167  0.00  0.00    +0.000 C 
BRANCH  19  20
ATOM     20  C   UNL     1       5.916   4.256  15.936  0.00  0.00    +0.000 A 
ATOM     21  C   UNL     1       5.677   3.662  14.696  0.00  0.00    +0.000 A 
ATOM     22  C   UNL     1       6.429   4.053  13.590  0.00  0.00    +0.000 A 
ATOM     23  C   UNL     1       7.408   5.025  13.758  0.00  0.00    +0.000 A 
ATOM     24  N   UNL     1       7.683   5.606  14.937  0.00  0.00    +0.000 NA
ATOM     25  C   UNL     1       6.926   5.227  15.994  0.00  0.00    +0.000 A 
ENDBRANCH  19  20
BRANCH  19  26
ATOM     26  O   UNL     1       4.193   2.888  16.918  0.00  0.00    +0.000 OA
ATOM     27  H   UNL     1       3.272   3.188  16.898  0.00  0.00    +0.000 HD
ENDBRANCH  19  26
ENDBRANCH   1  19
TORSDOF 7
ENDMDL
MODEL 7
REMARK VINA RESULT:      -7.8      0.941      1.487
REMARK  Name = 
REMARK  9 active torsions:
REMARK  status: ('A' for Active; 'I' for Inactive)
REMARK    1  A    between atoms: C_1  and  N_2
REMARK    2  A    between atoms: N_2  and  C_3
REMARK    3  A    between atoms: N_2  and  C_4
REMARK    4  A    between atoms: C_7  and  P_8
REMARK    5  A    between atoms: P_8  and  O_10
REMARK    6  A    between atoms: P_8  and  C_17
REMARK    7  A    between atoms: O_10  and  C_11
REMARK    8  A    between atoms: C_17  and  O_18
REMARK    9  A    between atoms: C_17  and  C_19
REMARK                            x       y       z     vdW  Elec       q    Type
REMARK                         _______ _______ _______ _____ _____    ______ ____
ROOT
ATOM      1  P   UNL     1       3.326   5.366  17.819  0.00  0.00    +0.000 P 
ATOM      2  O   UNL     1       4.607   6.205  17.625  0.00  0.00    +0.000 OA
ENDROOT
BRANCH   1   6
ATOM      3  C   UNL     1       1.303   9.152  19.717  0.00  0.00    +0.000 A 
ATOM      4  C   UNL     1       1.600   9.047  18.349  0.00  0.00    +0.000 A 
ATOM      5  C   UNL     1       2.217   7.912  17.806  0.00  0.00    +0.000 A 
ATOM      6  C   UNL     1       2.506   6.800  18.607  0.00  0.00    +0.000 A 
ATOM      7  C   UNL     1       2.117   6.843  19.948  0.00  0.00    +0.000 A 
ATOM      8  C   UNL     1       1.534   7.997  20.487  0.00  0.00    +0.000 A 
BRANCH   3  10
ATOM      9  C   UNL     1       1.177  11.615  19.721  0.00  0.00    +0.000 C 
ATOM     10  N   UNL     1       0.790  10.326  20.289  0.00  0.00    +0.000 N 
ATOM     11  C   UNL     1       0.575  10.312  21.739  0.00  0.00    +0.000 C 
ENDBRANCH   3  10
ENDBRANCH   1   6
BRANCH   1  12
ATOM     12  O   UNL     1       3.483   4.581  19.308  0.00  0.00    +0.000 OA
BRANCH  12  13
ATOM     13  C   UNL     1       3.088   3.219  19.511  0.00  0.00    +0.000 C 
ATOM     14  C   UNL     1       3.449   2.706  20.906  0.00  0.00    +0.000 C 
ATOM     15  C   UNL     1       2.463   3.139  21.989  0.00  0.00    +0.000 C 
ATOM     16  C   UNL     1       1.043   2.738  21.627  0.00  0.00    +0.000 C 
ATOM     17  C   UNL     1       0.628   3.389  20.316  0.00  0.00    +0.000 C 
ATOM     18  C   UNL     1       1.594   3.034  19.181  0.00  0.00    +0.000 C 
ENDBRANCH  12  13
ENDBRANCH   1  12
BRANCH   1  19
ATOM     19  C   UNL     1       4.146   3.932  17.031  0.00  0.00    +0.000 C 
BRANCH  19  20
ATOM     20  C   UNL     1       5.337   4.217  16.129  0.00  0.00    +0.000 A 
ATOM     21  C   UNL     1       5.227   4.544  14.777  0.00  0.00    +0.000 A 
ATOM     22  C   UNL     1       6.363   4.941  14.072  0.00  0.00    +0.000 A 
ATOM     23  C   UNL     1       7.580   4.992  14.738  0.00  0.00    +0.000 A 
ATOM     24  N   UNL     1       7.732   4.666  16.033  0.00  0.00    +0.000 NA
ATOM     25  C   UNL     1       6.613   4.304  16.705  0.00  0.00    +0.000 A 
ENDBRANCH  19  20
BRANCH  19  26
ATOM     26  O   UNL     1       3.168   3.180  16.274  0.00  0.00    +0.000 OA
ATOM     27  H   UNL     1       3.523   2.297  16.096  0.00  0.00    +0.000 HD
ENDBRANCH  19  26
ENDBRANCH   1  19
TORSDOF 7
ENDMDL
MODEL 8
REMARK VINA RESULT:      -7.8      0.692      1.185
REMARK  Name = 
REMARK  9 active torsions:
REMARK  status: ('A' for Active; 'I' for Inactive)
REMARK    1  A    between atoms: C_1  and  N_2
REMARK    2  A    between atoms: N_2  and  C_3
REMARK    3  A    between atoms: N_2  and  C_4
REMARK    4  A    between atoms: C_7  and  P_8
REMARK    5  A    between atoms: P_8  and  O_10
REMARK    6  A    between atoms: P_8  and  C_17
REMARK    7  A    between atoms: O_10  and  C_11
REMARK    8  A    between atoms: C_17  and  O_18
REMARK    9  A    between atoms: C_17  and  C_19
REMARK                            x       y       z     vdW  Elec       q    Type
REMARK                         _______ _______ _______ _____ _____    ______ ____
ROOT
ATOM      1  P   UNL     1       4.081   5.562  17.717  0.00  0.00    +0.000 P 
ATOM      2  O   UNL     1       5.326   6.432  17.985  0.00  0.00    +0.000 OA
ENDROOT
BRANCH   1   6
ATOM      3  C   UNL     1       1.259   8.877  19.470  0.00  0.00    +0.000 A 
ATOM      4  C   UNL     1       1.780   7.828  20.243  0.00  0.00    +0.000 A 
ATOM      5  C   UNL     1       2.611   6.840  19.695  0.00  0.00    +0.000 A 
ATOM      6  C   UNL     1       3.008   6.901  18.354  0.00  0.00    +0.000 A 
ATOM      7  C   UNL     1       2.588   7.998  17.597  0.00  0.00    +0.000 A 
ATOM      8  C   UNL     1       1.729   8.958  18.146  0.00  0.00    +0.000 A 
BRANCH   3  10
ATOM      9  C   UNL     1      -0.559  10.492  19.055  0.00  0.00    +0.000 C 
ATOM     10  N   UNL     1       0.338   9.804  19.981  0.00  0.00    +0.000 N 
ATOM     11  C   UNL     1       0.768  10.585  21.144  0.00  0.00    +0.000 C 
ENDBRANCH   3  10
ENDBRANCH   1   6
BRANCH   1  12
ATOM     12  O   UNL     1       3.828   4.636  19.109  0.00  0.00    +0.000 OA
BRANCH  12  13
ATOM     13  C   UNL     1       3.160   3.370  19.086  0.00  0.00    +0.000 C 
ATOM     14  C   UNL     1       3.478   2.517  20.315  0.00  0.00    +0.000 C 
ATOM     15  C   UNL     1       2.670   2.906  21.552  0.00  0.00    +0.000 C 
ATOM     16  C   UNL     1       1.178   2.882  21.260  0.00  0.00    +0.000 C 
ATOM     17  C   UNL     1       0.843   3.859  20.144  0.00  0.00    +0.000 C 
ATOM     18  C   UNL     1       1.645   3.561  18.873  0.00  0.00    +0.000 C 
ENDBRANCH  12  13
ENDBRANCH   1  12
BRANCH   1  19
ATOM     19  C   UNL     1       5.154   4.223  17.080  0.00  0.00    +0.000 C 
BRANCH  19  20
ATOM     20  C   UNL     1       5.802   4.434  15.719  0.00  0.00    +0.000 A 
ATOM     21  C   UNL     1       7.027   5.075  15.533  0.00  0.00    +0.000 A 
ATOM     22  C   UNL     1       7.614   5.082  14.268  0.00  0.00    +0.000 A 
ATOM     23  C   UNL     1       6.952   4.453  13.221  0.00  0.00    +0.000 A 
ATOM     24  N   UNL     1       5.763   3.843  13.354  0.00  0.00    +0.000 NA
ATOM     25  C   UNL     1       5.221   3.829  14.596  0.00  0.00    +0.000 A 
ENDBRANCH  19  20
BRANCH  19  26
ATOM     26  O   UNL     1       4.402   2.987  17.041  0.00  0.00    +0.000 OA
ATOM     27  H   UNL     1       3.485   3.187  16.798  0.00  0.00    +0.000 HD
ENDBRANCH  19  26
ENDBRANCH   1  19
TORSDOF 7
ENDMDL
MODEL 9
REMARK VINA RESULT:      -7.7      4.380      9.689
REMARK  Name = 
REMARK  9 active torsions:
REMARK  status: ('A' for Active; 'I' for Inactive)
REMARK    1  A    between atoms: C_1  and  N_2
REMARK    2  A    between atoms: N_2  and  C_3
REMARK    3  A    between atoms: N_2  and  C_4
REMARK    4  A    between atoms: C_7  and  P_8
REMARK    5  A    between atoms: P_8  and  O_10
REMARK    6  A    between atoms: P_8  and  C_17
REMARK    7  A    between atoms: O_10  and  C_11
REMARK    8  A    between atoms: C_17  and  O_18
REMARK    9  A    between atoms: C_17  and  C_19
REMARK                            x       y       z     vdW  Elec       q    Type
REMARK                         _______ _______ _______ _____ _____    ______ ____
ROOT
ATOM      1  P   UNL     1       0.245  11.548  19.572  0.00  0.00    +0.000 P 
ATOM      2  O   UNL     1       1.480  12.332  19.082  0.00  0.00    +0.000 OA
ENDROOT
BRANCH   1   6
ATOM      3  C   UNL     1       2.449   7.491  18.733  0.00  0.00    +0.000 A 
ATOM      4  C   UNL     1       1.793   7.770  19.942  0.00  0.00    +0.000 A 
ATOM      5  C   UNL     1       1.152   8.994  20.177  0.00  0.00    +0.000 A 
ATOM      6  C   UNL     1       1.088   9.973  19.177  0.00  0.00    +0.000 A 
ATOM      7  C   UNL     1       1.640   9.669  17.929  0.00  0.00    +0.000 A 
ATOM      8  C   UNL     1       2.309   8.456  17.720  0.00  0.00    +0.000 A 
BRANCH   3  10
ATOM      9  C   UNL     1       3.444   5.438  19.672  0.00  0.00    +0.000 C 
ATOM     10  N   UNL     1       3.189   6.315  18.532  0.00  0.00    +0.000 N 
ATOM     11  C   UNL     1       4.253   6.373  17.526  0.00  0.00    +0.000 C 
ENDBRANCH   3  10
ENDBRANCH   1   6
BRANCH   1  12
ATOM     12  O   UNL     1      -0.783  11.384  18.240  0.00  0.00    +0.000 OA
BRANCH  12  13
ATOM     13  C   UNL     1      -1.802  10.381  18.166  0.00  0.00    +0.000 C 
ATOM     14  C   UNL     1      -3.168  10.897  18.623  0.00  0.00    +0.000 C 
ATOM     15  C   UNL     1      -3.903  11.702  17.554  0.00  0.00    +0.000 C 
ATOM     16  C   UNL     1      -4.040  10.905  16.266  0.00  0.00    +0.000 C 
ATOM     17  C   UNL     1      -2.667  10.537  15.726  0.00  0.00    +0.000 C 
ATOM     18  C   UNL     1      -1.845   9.756  16.758  0.00  0.00    +0.000 C 
ENDBRANCH  12  13
ENDBRANCH   1  12
BRANCH   1  19
ATOM     19  C   UNL     1      -0.598  13.124  19.968  0.00  0.00    +0.000 C 
BRANCH  19  20
ATOM     20  C   UNL     1      -1.712  13.080  21.003  0.00  0.00    +0.000 A 
ATOM     21  C   UNL     1      -2.929  13.747  20.864  0.00  0.00    +0.000 A 
ATOM     22  C   UNL     1      -3.947  13.521  21.790  0.00  0.00    +0.000 A 
ATOM     23  C   UNL     1      -3.714  12.638  22.836  0.00  0.00    +0.000 A 
ATOM     24  N   UNL     1      -2.550  11.992  23.018  0.00  0.00    +0.000 NA
ATOM     25  C   UNL     1      -1.583  12.209  22.095  0.00  0.00    +0.000 A 
ENDBRANCH  19  20
BRANCH  19  26
ATOM     26  O   UNL     1      -1.127  13.700  18.750  0.00  0.00    +0.000 OA
ATOM     27  H   UNL     1      -0.389  14.007  18.203  0.00  0.00    +0.000 HD
ENDBRANCH  19  26
ENDBRANCH   1  19
TORSDOF 7
ENDMDL
