MODEL 1
REMARK VINA RESULT:      -8.6      0.000      0.000
REMARK  Name = 
REMARK  8 active torsions:
REMARK  status: ('A' for Active; 'I' for Inactive)
REMARK    1  A    between atoms: C_1  and  C_2
REMARK    2  A    between atoms: C_6  and  C_7
REMARK    3  A    between atoms: C_7  and  N_8
REMARK    4  A    between atoms: N_11  and  C_12
REMARK    5  A    between atoms: C_18  and  C_19
REMARK    6  A    between atoms: C_19  and  O_20
REMARK    7  A    between atoms: O_20  and  C_21
REMARK    8  A    between atoms: C_21  and  C_22
REMARK                            x       y       z     vdW  Elec       q    Type
REMARK                         _______ _______ _______ _____ _____    ______ ____
ROOT
ATOM      1  C   UNL     1       5.677   4.809  17.390  0.00  0.00    +0.000 C 
ATOM      2  C   UNL     1       5.922   5.931  18.412  0.00  0.00    +0.000 C 
ATOM      3  S   UNL     1       7.621   5.804  18.939  0.00  0.00    +0.000 S 
ATOM      4  O   UNL     1       8.322   6.998  18.526  0.00  0.00    +0.000 OA
ATOM      5  O   UNL     1       7.689   5.273  20.273  0.00  0.00    +0.000 OA
ATOM      6  N   UNL     1       8.055   4.538  17.897  0.00  0.00    +0.000 NA
ATOM      7  C   UNL     1       7.084   4.467  16.768  0.00  0.00    +0.000 C 
ATOM      8  H   UNL     1       8.175   3.667  18.417  0.00  0.00    +0.000 HD
ENDROOT
BRANCH   1  12
ATOM      9  N   UNL     1       2.465   2.149  18.975  0.00  0.00    +0.000 NA
ATOM     10  C   UNL     1       2.819   2.170  17.552  0.00  0.00    +0.000 C 
ATOM     11  C   UNL     1       3.657   3.388  17.082  0.00  0.00    +0.000 C 
ATOM     12  N   UNL     1       4.873   3.643  17.886  0.00  0.00    +0.000 NA
ATOM     13  C   UNL     1       4.549   3.654  19.321  0.00  0.00    +0.000 C 
ATOM     14  C   UNL     1       3.614   2.515  19.811  0.00  0.00    +0.000 C 
BRANCH   9  15
ATOM     15  C   UNL     1       1.207   2.831  19.304  0.00  0.00    +0.000 C 
BRANCH  15  21
ATOM     16  C   UNL     1       2.522   7.460  17.642  0.00  0.00    +0.000 C 
ATOM     17  C   UNL     1       2.026   6.562  18.743  0.00  0.00    +0.000 A 
ATOM     18  C   UNL     1       1.932   7.053  20.050  0.00  0.00    +0.000 A 
ATOM     19  C   UNL     1       1.570   6.206  21.091  0.00  0.00    +0.000 A 
ATOM     20  C   UNL     1       1.312   4.855  20.839  0.00  0.00    +0.000 A 
ATOM     21  C   UNL     1       1.388   4.332  19.538  0.00  0.00    +0.000 A 
ATOM     22  C   UNL     1       1.742   5.204  18.493  0.00  0.00    +0.000 A 
ENDBRANCH  15  21
ENDBRANCH   9  15
ENDBRANCH   1  12
BRANCH   7  23
ATOM     23  C   UNL     1       7.525   5.459  15.650  0.00  0.00    +0.000 C 
BRANCH  23  24
ATOM     24  O   UNL     1       6.750   5.381  14.437  0.00  0.00    +0.000 OA
BRANCH  24  25
ATOM     25  C   UNL     1       7.442   4.737  13.368  0.00  0.00    +0.000 C 
BRANCH  25  26
ATOM     26  C   UNL     1       6.599   3.783  12.545  0.00  0.00    +0.000 A 
ATOM     27  C   UNL     1       7.120   2.690  11.839  0.00  0.00    +0.000 A 
ATOM     28  C   UNL     1       6.271   1.849  11.110  0.00  0.00    +0.000 A 
ATOM     29  C   UNL     1       4.897   2.087  11.076  0.00  0.00    +0.000 A 
ATOM     30  C   UNL     1       4.365   3.171  11.765  0.00  0.00    +0.000 A 
ATOM     31  C   UNL     1       5.211   4.012  12.492  0.00  0.00    +0.000 A 
ENDBRANCH  25  26
ENDBRANCH  24  25
ENDBRANCH  23  24
ENDBRANCH   7  23
TORSDOF 7
ENDMDL
MODEL 2
REMARK VINA RESULT:      -8.5      7.315      9.689
REMARK  Name = 
REMARK  8 active torsions:
REMARK  status: ('A' for Active; 'I' for Inactive)
REMARK    1  A    between atoms: C_1  and  C_2
REMARK    2  A    between atoms: C_6  and  C_7
REMARK    3  A    between atoms: C_7  and  N_8
REMARK    4  A    between atoms: N_11  and  C_12
REMARK    5  A    between atoms: C_18  and  C_19
REMARK    6  A    between atoms: C_19  and  O_20
REMARK    7  A    between atoms: O_20  and  C_21
REMARK    8  A    between atoms: C_21  and  C_22
REMARK                            x       y       z     vdW  Elec       q    Type
REMARK                         _______ _______ _______ _____ _____    ______ ____
ROOT
ATOM      1  C   UNL     1       0.525  10.318  20.004  0.00  0.00    +0.000 C 
ATOM      2  C   UNL     1       0.707  11.063  21.337  0.00  0.00    +0.000 C 
ATOM      3  S   UNL     1      -0.139  10.118  22.590  0.00  0.00    +0.000 S 
ATOM      4  O   UNL     1       0.835   9.639  23.542  0.00  0.00    +0.000 OA
ATOM      5  O   UNL     1      -1.356  10.781  22.975  0.00  0.00    +0.000 OA
ATOM      6  N   UNL     1      -0.594   8.827  21.588  0.00  0.00    +0.000 NA
ATOM      7  C   UNL     1       0.274   8.808  20.376  0.00  0.00    +0.000 C 
ATOM      8  H   UNL     1      -1.597   8.852  21.400  0.00  0.00    +0.000 HD
ENDROOT
BRANCH   1  12
ATOM      9  N   UNL     1      -3.112  11.406  17.659  0.00  0.00    +0.000 NA
ATOM     10  C   UNL     1      -2.618  12.246  18.755  0.00  0.00    +0.000 C 
ATOM     11  C   UNL     1      -1.604  11.575  19.718  0.00  0.00    +0.000 C 
ATOM     12  N   UNL     1      -0.453  10.933  19.045  0.00  0.00    +0.000 NA
ATOM     13  C   UNL     1      -0.914  10.060  17.954  0.00  0.00    +0.000 C 
ATOM     14  C   UNL     1      -2.017  10.653  17.036  0.00  0.00    +0.000 C 
BRANCH   9  15
ATOM     15  C   UNL     1      -4.310  10.619  17.980  0.00  0.00    +0.000 C 
BRANCH  15  21
ATOM     16  C   UNL     1      -7.216  14.492  16.408  0.00  0.00    +0.000 C 
ATOM     17  C   UNL     1      -6.970  13.344  17.350  0.00  0.00    +0.000 A 
ATOM     18  C   UNL     1      -7.783  13.186  18.477  0.00  0.00    +0.000 A 
ATOM     19  C   UNL     1      -7.505  12.190  19.406  0.00  0.00    +0.000 A 
ATOM     20  C   UNL     1      -6.402  11.350  19.225  0.00  0.00    +0.000 A 
ATOM     21  C   UNL     1      -5.570  11.476  18.100  0.00  0.00    +0.000 A 
ATOM     22  C   UNL     1      -5.873  12.480  17.163  0.00  0.00    +0.000 A 
ENDBRANCH  15  21
ENDBRANCH   9  15
ENDBRANCH   1  12
BRANCH   7  23
ATOM     23  C   UNL     1       1.582   8.023  20.695  0.00  0.00    +0.000 C 
BRANCH  23  24
ATOM     24  O   UNL     1       2.285   7.530  19.537  0.00  0.00    +0.000 OA
BRANCH  24  25
ATOM     25  C   UNL     1       3.015   6.331  19.790  0.00  0.00    +0.000 C 
BRANCH  25  26
ATOM     26  C   UNL     1       2.240   5.050  19.551  0.00  0.00    +0.000 A 
ATOM     27  C   UNL     1       1.974   4.522  18.281  0.00  0.00    +0.000 A 
ATOM     28  C   UNL     1       1.259   3.326  18.146  0.00  0.00    +0.000 A 
ATOM     29  C   UNL     1       0.802   2.644  19.274  0.00  0.00    +0.000 A 
ATOM     30  C   UNL     1       1.051   3.158  20.542  0.00  0.00    +0.000 A 
ATOM     31  C   UNL     1       1.763   4.352  20.678  0.00  0.00    +0.000 A 
ENDBRANCH  25  26
ENDBRANCH  24  25
ENDBRANCH  23  24
ENDBRANCH   7  23
TORSDOF 7
ENDMDL
MODEL 3
REMARK VINA RESULT:      -8.5      4.077      6.269
REMARK  Name = 
REMARK  8 active torsions:
REMARK  status: ('A' for Active; 'I' for Inactive)
REMARK    1  A    between atoms: C_1  and  C_2
REMARK    2  A    between atoms: C_6  and  C_7
REMARK    3  A    between atoms: C_7  and  N_8
REMARK    4  A    between atoms: N_11  and  C_12
REMARK    5  A    between atoms: C_18  and  C_19
REMARK    6  A    between atoms: C_19  and  O_20
REMARK    7  A    between atoms: O_20  and  C_21
REMARK    8  A    between atoms: C_21  and  C_22
REMARK                            x       y       z     vdW  Elec       q    Type
REMARK                         _______ _______ _______ _____ _____    ______ ____
ROOT
ATOM      1  C   UNL     1       3.655   5.480  18.805  0.00  0.00    +0.000 C 
ATOM      2  C   UNL     1       3.294   4.530  19.959  0.00  0.00    +0.000 C 
ATOM      3  S   UNL     1       1.935   3.517  19.404  0.00  0.00    +0.000 S 
ATOM      4  O   UNL     1       2.376   2.142  19.354  0.00  0.00    +0.000 OA
ATOM      5  O   UNL     1       0.715   3.930  20.042  0.00  0.00    +0.000 OA
ATOM      6  N   UNL     1       1.875   4.121  17.820  0.00  0.00    +0.000 NA
ATOM      7  C   UNL     1       3.176   4.768  17.484  0.00  0.00    +0.000 C 
ATOM      8  H   UNL     1       1.053   4.713  17.690  0.00  0.00    +0.000 HD
ENDROOT
BRANCH   1  12
ATOM      9  N   UNL     1       1.394   9.327  18.849  0.00  0.00    +0.000 NA
ATOM     10  C   UNL     1       1.569   8.518  20.060  0.00  0.00    +0.000 C 
ATOM     11  C   UNL     1       2.024   7.053  19.836  0.00  0.00    +0.000 C 
ATOM     12  N   UNL     1       3.223   6.907  18.980  0.00  0.00    +0.000 NA
ATOM     13  C   UNL     1       3.071   7.686  17.741  0.00  0.00    +0.000 C 
ATOM     14  C   UNL     1       2.506   9.122  17.912  0.00  0.00    +0.000 C 
BRANCH   9  15
ATOM     15  C   UNL     1       0.054   9.259  18.254  0.00  0.00    +0.000 C 
BRANCH  15  21
ATOM     16  C   UNL     1      -1.408  12.601  21.805  0.00  0.00    +0.000 C 
ATOM     17  C   UNL     1      -1.576  11.992  20.440  0.00  0.00    +0.000 A 
ATOM     18  C   UNL     1      -2.709  12.299  19.679  0.00  0.00    +0.000 A 
ATOM     19  C   UNL     1      -2.925  11.667  18.460  0.00  0.00    +0.000 A 
ATOM     20  C   UNL     1      -2.018  10.710  17.995  0.00  0.00    +0.000 A 
ATOM     21  C   UNL     1      -0.865  10.385  18.730  0.00  0.00    +0.000 A 
ATOM     22  C   UNL     1      -0.654  11.043  19.955  0.00  0.00    +0.000 A 
ENDBRANCH  15  21
ENDBRANCH   9  15
ENDBRANCH   1  12
BRANCH   7  23
ATOM     23  C   UNL     1       4.169   3.683  16.970  0.00  0.00    +0.000 C 
BRANCH  23  24
ATOM     24  O   UNL     1       4.897   4.049  15.781  0.00  0.00    +0.000 OA
BRANCH  24  25
ATOM     25  C   UNL     1       6.312   3.997  15.948  0.00  0.00    +0.000 C 
BRANCH  25  26
ATOM     26  C   UNL     1       6.889   5.069  16.850  0.00  0.00    +0.000 A 
ATOM     27  C   UNL     1       6.825   6.441  16.574  0.00  0.00    +0.000 A 
ATOM     28  C   UNL     1       7.375   7.371  17.465  0.00  0.00    +0.000 A 
ATOM     29  C   UNL     1       7.994   6.943  18.640  0.00  0.00    +0.000 A 
ATOM     30  C   UNL     1       8.072   5.584  18.926  0.00  0.00    +0.000 A 
ATOM     31  C   UNL     1       7.525   4.656  18.037  0.00  0.00    +0.000 A 
ENDBRANCH  25  26
ENDBRANCH  24  25
ENDBRANCH  23  24
ENDBRANCH   7  23
TORSDOF 7
ENDMDL
MODEL 4
REMARK VINA RESULT:      -8.5      3.521      6.075
REMARK  Name = 
REMARK  8 active torsions:
REMARK  status: ('A' for Active; 'I' for Inactive)
REMARK    1  A    between atoms: C_1  and  C_2
REMARK    2  A    between atoms: C_6  and  C_7
REMARK    3  A    between atoms: C_7  and  N_8
REMARK    4  A    between atoms: N_11  and  C_12
REMARK    5  A    between atoms: C_18  and  C_19
REMARK    6  A    between atoms: C_19  and  O_20
REMARK    7  A    between atoms: O_20  and  C_21
REMARK    8  A    between atoms: C_21  and  C_22
REMARK                            x       y       z     vdW  Elec       q    Type
REMARK                         _______ _______ _______ _____ _____    ______ ____
ROOT
ATOM      1  C   UNL     1       6.940   5.007  17.689  0.00  0.00    +0.000 C 
ATOM      2  C   UNL     1       7.426   4.247  16.444  0.00  0.00    +0.000 C 
ATOM      3  S   UNL     1       6.696   5.041  15.023  0.00  0.00    +0.000 S 
ATOM      4  O   UNL     1       7.752   5.606  14.217  0.00  0.00    +0.000 OA
ATOM      5  O   UNL     1       5.645   4.221  14.483  0.00  0.00    +0.000 OA
ATOM      6  N   UNL     1       5.934   6.297  15.871  0.00  0.00    +0.000 NA
ATOM      7  C   UNL     1       6.581   6.462  17.205  0.00  0.00    +0.000 C 
ATOM      8  H   UNL     1       4.923   6.155  15.897  0.00  0.00    +0.000 HD
ENDROOT
BRANCH   1  12
ATOM      9  N   UNL     1       3.116   3.544  19.462  0.00  0.00    +0.000 NA
ATOM     10  C   UNL     1       3.890   2.733  18.517  0.00  0.00    +0.000 C 
ATOM     11  C   UNL     1       4.964   3.493  17.696  0.00  0.00    +0.000 C 
ATOM     12  N   UNL     1       5.895   4.307  18.509  0.00  0.00    +0.000 NA
ATOM     13  C   UNL     1       5.150   5.154  19.453  0.00  0.00    +0.000 C 
ATOM     14  C   UNL     1       3.987   4.458  20.211  0.00  0.00    +0.000 C 
BRANCH   9  15
ATOM     15  C   UNL     1       1.904   4.153  18.900  0.00  0.00    +0.000 C 
BRANCH  15  21
ATOM     16  C   UNL     1       2.444   9.073  17.708  0.00  0.00    +0.000 C 
ATOM     17  C   UNL     1       2.029   8.005  18.683  0.00  0.00    +0.000 A 
ATOM     18  C   UNL     1       1.715   8.355  20.002  0.00  0.00    +0.000 A 
ATOM     19  C   UNL     1       1.427   7.368  20.937  0.00  0.00    +0.000 A 
ATOM     20  C   UNL     1       1.463   6.020  20.569  0.00  0.00    +0.000 A 
ATOM     21  C   UNL     1       1.765   5.635  19.252  0.00  0.00    +0.000 A 
ATOM     22  C   UNL     1       2.041   6.646  18.313  0.00  0.00    +0.000 A 
ENDBRANCH  15  21
ENDBRANCH   9  15
ENDBRANCH   1  12
BRANCH   7  23
ATOM     23  C   UNL     1       7.824   7.391  17.060  0.00  0.00    +0.000 C 
BRANCH  23  24
ATOM     24  O   UNL     1       8.078   8.236  18.199  0.00  0.00    +0.000 OA
BRANCH  24  25
ATOM     25  C   UNL     1       8.116   9.624  17.874  0.00  0.00    +0.000 C 
BRANCH  25  26
ATOM     26  C   UNL     1       9.175  10.423  18.606  0.00  0.00    +0.000 A 
ATOM     27  C   UNL     1       9.204  10.596  19.996  0.00  0.00    +0.000 A 
ATOM     28  C   UNL     1      10.224  11.342  20.598  0.00  0.00    +0.000 A 
ATOM     29  C   UNL     1      11.227  11.924  19.821  0.00  0.00    +0.000 A 
ATOM     30  C   UNL     1      11.210  11.768  18.439  0.00  0.00    +0.000 A 
ATOM     31  C   UNL     1      10.191  11.025  17.838  0.00  0.00    +0.000 A 
ENDBRANCH  25  26
ENDBRANCH  24  25
ENDBRANCH  23  24
ENDBRANCH   7  23
TORSDOF 7
ENDMDL
MODEL 5
REMARK VINA RESULT:      -8.5      3.564      5.914
REMARK  Name = 
REMARK  8 active torsions:
REMARK  status: ('A' for Active; 'I' for Inactive)
REMARK    1  A    between atoms: C_1  and  C_2
REMARK    2  A    between atoms: C_6  and  C_7
REMARK    3  A    between atoms: C_7  and  N_8
REMARK    4  A    between atoms: N_11  and  C_12
REMARK    5  A    between atoms: C_18  and  C_19
REMARK    6  A    between atoms: C_19  and  O_20
REMARK    7  A    between atoms: O_20  and  C_21
REMARK    8  A    between atoms: C_21  and  C_22
REMARK                            x       y       z     vdW  Elec       q    Type
REMARK                         _______ _______ _______ _____ _____    ______ ____
ROOT
ATOM      1  C   UNL     1       6.850   4.944  17.641  0.00  0.00    +0.000 C 
ATOM      2  C   UNL     1       7.379   4.220  16.391  0.00  0.00    +0.000 C 
ATOM      3  S   UNL     1       6.671   5.033  14.971  0.00  0.00    +0.000 S 
ATOM      4  O   UNL     1       7.737   5.632  14.203  0.00  0.00    +0.000 OA
ATOM      5  O   UNL     1       5.648   4.209  14.387  0.00  0.00    +0.000 OA
ATOM      6  N   UNL     1       5.868   6.258  15.826  0.00  0.00    +0.000 NA
ATOM      7  C   UNL     1       6.479   6.403  17.179  0.00  0.00    +0.000 C 
ATOM      8  H   UNL     1       4.859   6.099  15.824  0.00  0.00    +0.000 HD
ENDROOT
BRANCH   1  12
ATOM      9  N   UNL     1       3.015   3.492  19.400  0.00  0.00    +0.000 NA
ATOM     10  C   UNL     1       3.702   2.759  18.331  0.00  0.00    +0.000 C 
ATOM     11  C   UNL     1       4.788   3.552  17.558  0.00  0.00    +0.000 C 
ATOM     12  N   UNL     1       5.797   4.209  18.419  0.00  0.00    +0.000 NA
ATOM     13  C   UNL     1       5.140   4.976  19.489  0.00  0.00    +0.000 C 
ATOM     14  C   UNL     1       3.967   4.260  20.211  0.00  0.00    +0.000 C 
BRANCH   9  15
ATOM     15  C   UNL     1       1.821   4.231  18.968  0.00  0.00    +0.000 C 
BRANCH  15  21
ATOM     16  C   UNL     1       1.187   8.569  21.555  0.00  0.00    +0.000 C 
ATOM     17  C   UNL     1       1.673   7.839  20.333  0.00  0.00    +0.000 A 
ATOM     18  C   UNL     1       2.079   8.564  19.208  0.00  0.00    +0.000 A 
ATOM     19  C   UNL     1       2.437   7.901  18.040  0.00  0.00    +0.000 A 
ATOM     20  C   UNL     1       2.377   6.505  17.979  0.00  0.00    +0.000 A 
ATOM     21  C   UNL     1       1.982   5.746  19.093  0.00  0.00    +0.000 A 
ATOM     22  C   UNL     1       1.637   6.431  20.272  0.00  0.00    +0.000 A 
ENDBRANCH  15  21
ENDBRANCH   9  15
ENDBRANCH   1  12
BRANCH   7  23
ATOM     23  C   UNL     1       7.709   7.355  17.086  0.00  0.00    +0.000 C 
BRANCH  23  24
ATOM     24  O   UNL     1       7.482   8.683  17.598  0.00  0.00    +0.000 OA
BRANCH  24  25
ATOM     25  C   UNL     1       8.523   9.140  18.459  0.00  0.00    +0.000 C 
BRANCH  25  26
ATOM     26  C   UNL     1       9.051  10.525  18.143  0.00  0.00    +0.000 A 
ATOM     27  C   UNL     1      10.409  10.868  18.161  0.00  0.00    +0.000 A 
ATOM     28  C   UNL     1      10.816  12.170  17.847  0.00  0.00    +0.000 A 
ATOM     29  C   UNL     1       9.875  13.144  17.511  0.00  0.00    +0.000 A 
ATOM     30  C   UNL     1       8.522  12.823  17.496  0.00  0.00    +0.000 A 
ATOM     31  C   UNL     1       8.115  11.524  17.810  0.00  0.00    +0.000 A 
ENDBRANCH  25  26
ENDBRANCH  24  25
ENDBRANCH  23  24
ENDBRANCH   7  23
TORSDOF 7
ENDMDL
MODEL 6
REMARK VINA RESULT:      -8.4      3.671      6.503
REMARK  Name = 
REMARK  8 active torsions:
REMARK  status: ('A' for Active; 'I' for Inactive)
REMARK    1  A    between atoms: C_1  and  C_2
REMARK    2  A    between atoms: C_6  and  C_7
REMARK    3  A    between atoms: C_7  and  N_8
REMARK    4  A    between atoms: N_11  and  C_12
REMARK    5  A    between atoms: C_18  and  C_19
REMARK    6  A    between atoms: C_19  and  O_20
REMARK    7  A    between atoms: O_20  and  C_21
REMARK    8  A    between atoms: C_21  and  C_22
REMARK                            x       y       z     vdW  Elec       q    Type
REMARK                         _______ _______ _______ _____ _____    ______ ____
ROOT
ATOM      1  C   UNL     1       4.233   6.108  17.887  0.00  0.00    +0.000 C 
ATOM      2  C   UNL     1       5.002   6.292  16.568  0.00  0.00    +0.000 C 
ATOM      3  S   UNL     1       6.738   6.345  16.973  0.00  0.00    +0.000 S 
ATOM      4  O   UNL     1       7.387   5.207  16.367  0.00  0.00    +0.000 OA
ATOM      5  O   UNL     1       7.233   7.690  16.855  0.00  0.00    +0.000 OA
ATOM      6  N   UNL     1       6.561   6.045  18.633  0.00  0.00    +0.000 NA
ATOM      7  C   UNL     1       5.234   5.415  18.886  0.00  0.00    +0.000 C 
ATOM      8  H   UNL     1       6.748   6.889  19.175  0.00  0.00    +0.000 HD
ENDROOT
BRANCH   1  12
ATOM      9  N   UNL     1       1.288   9.358  18.711  0.00  0.00    +0.000 NA
ATOM     10  C   UNL     1       1.505   8.253  19.652  0.00  0.00    +0.000 C 
ATOM     11  C   UNL     1       2.247   7.016  19.083  0.00  0.00    +0.000 C 
ATOM     12  N   UNL     1       3.524   7.327  18.401  0.00  0.00    +0.000 NA
ATOM     13  C   UNL     1       3.338   8.416  17.429  0.00  0.00    +0.000 C 
ATOM     14  C   UNL     1       2.497   9.625  17.923  0.00  0.00    +0.000 C 
BRANCH   9  15
ATOM     15  C   UNL     1       0.043   9.271  17.938  0.00  0.00    +0.000 C 
BRANCH  15  21
ATOM     16  C   UNL     1      -4.518  11.478  17.452  0.00  0.00    +0.000 C 
ATOM     17  C   UNL     1      -3.236  11.288  18.216  0.00  0.00    +0.000 A 
ATOM     18  C   UNL     1      -2.934  12.137  19.286  0.00  0.00    +0.000 A 
ATOM     19  C   UNL     1      -1.711  12.035  19.936  0.00  0.00    +0.000 A 
ATOM     20  C   UNL     1      -0.768  11.092  19.515  0.00  0.00    +0.000 A 
ATOM     21  C   UNL     1      -1.042  10.218  18.450  0.00  0.00    +0.000 A 
ATOM     22  C   UNL     1      -2.291  10.324  17.811  0.00  0.00    +0.000 A 
ENDBRANCH  15  21
ENDBRANCH   9  15
ENDBRANCH   1  12
BRANCH   7  23
ATOM     23  C   UNL     1       5.350   3.875  18.679  0.00  0.00    +0.000 C 
BRANCH  23  24
ATOM     24  O   UNL     1       5.378   3.104  19.897  0.00  0.00    +0.000 OA
BRANCH  24  25
ATOM     25  C   UNL     1       4.424   2.045  19.916  0.00  0.00    +0.000 C 
BRANCH  25  26
ATOM     26  C   UNL     1       2.977   2.487  19.830  0.00  0.00    +0.000 A 
ATOM     27  C   UNL     1       2.079   2.041  18.851  0.00  0.00    +0.000 A 
ATOM     28  C   UNL     1       0.753   2.491  18.846  0.00  0.00    +0.000 A 
ATOM     29  C   UNL     1       0.308   3.389  19.816  0.00  0.00    +0.000 A 
ATOM     30  C   UNL     1       1.187   3.848  20.791  0.00  0.00    +0.000 A 
ATOM     31  C   UNL     1       2.511   3.401  20.795  0.00  0.00    +0.000 A 
ENDBRANCH  25  26
ENDBRANCH  24  25
ENDBRANCH  23  24
ENDBRANCH   7  23
TORSDOF 7
ENDMDL
MODEL 7
REMARK VINA RESULT:      -8.4      3.641      6.582
REMARK  Name = 
REMARK  8 active torsions:
REMARK  status: ('A' for Active; 'I' for Inactive)
REMARK    1  A    between atoms: C_1  and  C_2
REMARK    2  A    between atoms: C_6  and  C_7
REMARK    3  A    between atoms: C_7  and  N_8
REMARK    4  A    between atoms: N_11  and  C_12
REMARK    5  A    between atoms: C_18  and  C_19
REMARK    6  A    between atoms: C_19  and  O_20
REMARK    7  A    between atoms: O_20  and  C_21
REMARK    8  A    between atoms: C_21  and  C_22
REMARK                            x       y       z     vdW  Elec       q    Type
REMARK                         _______ _______ _______ _____ _____    ______ ____
ROOT
ATOM      1  C   UNL     1       4.155   6.200  17.828  0.00  0.00    +0.000 C 
ATOM      2  C   UNL     1       4.983   6.403  16.548  0.00  0.00    +0.000 C 
ATOM      3  S   UNL     1       6.703   6.357  17.019  0.00  0.00    +0.000 S 
ATOM      4  O   UNL     1       7.322   5.215  16.388  0.00  0.00    +0.000 OA
ATOM      5  O   UNL     1       7.263   7.680  16.978  0.00  0.00    +0.000 OA
ATOM      6  N   UNL     1       6.448   5.996  18.657  0.00  0.00    +0.000 NA
ATOM      7  C   UNL     1       5.084   5.420  18.833  0.00  0.00    +0.000 C 
ATOM      8  H   UNL     1       6.651   6.807  19.242  0.00  0.00    +0.000 HD
ENDROOT
BRANCH   1  12
ATOM      9  N   UNL     1       1.250   9.426  18.860  0.00  0.00    +0.000 NA
ATOM     10  C   UNL     1       1.612   8.376  19.817  0.00  0.00    +0.000 C 
ATOM     11  C   UNL     1       2.311   7.127  19.220  0.00  0.00    +0.000 C 
ATOM     12  N   UNL     1       3.484   7.429  18.368  0.00  0.00    +0.000 NA
ATOM     13  C   UNL     1       3.148   8.463  17.377  0.00  0.00    +0.000 C 
ATOM     14  C   UNL     1       2.343   9.678  17.914  0.00  0.00    +0.000 C 
BRANCH   9  15
ATOM     15  C   UNL     1      -0.079   9.274  18.255  0.00  0.00    +0.000 C 
BRANCH  15  21
ATOM     16  C   UNL     1      -1.642  12.804  21.573  0.00  0.00    +0.000 C 
ATOM     17  C   UNL     1      -1.811  12.077  20.267  0.00  0.00    +0.000 A 
ATOM     18  C   UNL     1      -2.981  12.254  19.520  0.00  0.00    +0.000 A 
ATOM     19  C   UNL     1      -3.191  11.513  18.363  0.00  0.00    +0.000 A 
ATOM     20  C   UNL     1      -2.241  10.576  17.947  0.00  0.00    +0.000 A 
ATOM     21  C   UNL     1      -1.051  10.379  18.669  0.00  0.00    +0.000 A 
ATOM     22  C   UNL     1      -0.847  11.146  19.829  0.00  0.00    +0.000 A 
ENDBRANCH  15  21
ENDBRANCH   9  15
ENDBRANCH   1  12
BRANCH   7  23
ATOM     23  C   UNL     1       5.137   3.886  18.563  0.00  0.00    +0.000 C 
BRANCH  23  24
ATOM     24  O   UNL     1       5.388   3.078  19.730  0.00  0.00    +0.000 OA
BRANCH  24  25
ATOM     25  C   UNL     1       4.422   2.046  19.919  0.00  0.00    +0.000 C 
BRANCH  25  26
ATOM     26  C   UNL     1       2.980   2.509  19.898  0.00  0.00    +0.000 A 
ATOM     27  C   UNL     1       2.430   3.400  20.829  0.00  0.00    +0.000 A 
ATOM     28  C   UNL     1       1.088   3.786  20.734  0.00  0.00    +0.000 A 
ATOM     29  C   UNL     1       0.280   3.290  19.711  0.00  0.00    +0.000 A 
ATOM     30  C   UNL     1       0.807   2.399  18.782  0.00  0.00    +0.000 A 
ATOM     31  C   UNL     1       2.146   2.012  18.877  0.00  0.00    +0.000 A 
ENDBRANCH  25  26
ENDBRANCH  24  25
ENDBRANCH  23  24
ENDBRANCH   7  23
TORSDOF 7
ENDMDL
MODEL 8
REMARK VINA RESULT:      -8.2      3.705      9.135
REMARK  Name = 
REMARK  8 active torsions:
REMARK  status: ('A' for Active; 'I' for Inactive)
REMARK    1  A    between atoms: C_1  and  C_2
REMARK    2  A    between atoms: C_6  and  C_7
REMARK    3  A    between atoms: C_7  and  N_8
REMARK    4  A    between atoms: N_11  and  C_12
REMARK    5  A    between atoms: C_18  and  C_19
REMARK    6  A    between atoms: C_19  and  O_20
REMARK    7  A    between atoms: O_20  and  C_21
REMARK    8  A    between atoms: C_21  and  C_22
REMARK                            x       y       z     vdW  Elec       q    Type
REMARK                         _______ _______ _______ _____ _____    ______ ____
ROOT
ATOM      1  C   UNL     1       2.742   6.151  18.863  0.00  0.00    +0.000 C 
ATOM      2  C   UNL     1       2.070   4.812  18.519  0.00  0.00    +0.000 C 
ATOM      3  S   UNL     1       2.014   3.848  20.019  0.00  0.00    +0.000 S 
ATOM      4  O   UNL     1       0.632   3.636  20.378  0.00  0.00    +0.000 OA
ATOM      5  O   UNL     1       2.985   2.790  19.964  0.00  0.00    +0.000 OA
ATOM      6  N   UNL     1       2.660   5.038  21.040  0.00  0.00    +0.000 NA
ATOM      7  C   UNL     1       2.505   6.378  20.404  0.00  0.00    +0.000 C 
ATOM      8  H   UNL     1       3.614   4.800  21.315  0.00  0.00    +0.000 HD
ENDROOT
BRANCH   1  12
ATOM      9  N   UNL     1       6.741   5.588  16.965  0.00  0.00    +0.000 NA
ATOM     10  C   UNL     1       5.721   6.462  16.375  0.00  0.00    +0.000 C 
ATOM     11  C   UNL     1       4.276   6.269  16.907  0.00  0.00    +0.000 C 
ATOM     12  N   UNL     1       4.155   6.312  18.381  0.00  0.00    +0.000 NA
ATOM     13  C   UNL     1       5.149   5.425  19.006  0.00  0.00    +0.000 C 
ATOM     14  C   UNL     1       6.585   5.503  18.422  0.00  0.00    +0.000 C 
BRANCH   9  15
ATOM     15  C   UNL     1       6.920   4.303  16.278  0.00  0.00    +0.000 C 
BRANCH  15  21
ATOM     16  C   UNL     1       5.211   2.829  11.715  0.00  0.00    +0.000 C 
ATOM     17  C   UNL     1       6.081   3.723  12.555  0.00  0.00    +0.000 A 
ATOM     18  C   UNL     1       7.039   4.536  11.938  0.00  0.00    +0.000 A 
ATOM     19  C   UNL     1       7.915   5.292  12.708  0.00  0.00    +0.000 A 
ATOM     20  C   UNL     1       7.853   5.233  14.103  0.00  0.00    +0.000 A 
ATOM     21  C   UNL     1       6.898   4.435  14.755  0.00  0.00    +0.000 A 
ATOM     22  C   UNL     1       6.010   3.686  13.962  0.00  0.00    +0.000 A 
ENDBRANCH  15  21
ENDBRANCH   9  15
ENDBRANCH   1  12
BRANCH   7  23
ATOM     23  C   UNL     1       1.092   6.943  20.737  0.00  0.00    +0.000 C 
BRANCH  23  24
ATOM     24  O   UNL     1       1.097   8.200  21.441  0.00  0.00    +0.000 OA
BRANCH  24  25
ATOM     25  C   UNL     1       0.813   9.318  20.601  0.00  0.00    +0.000 C 
BRANCH  25  26
ATOM     26  C   UNL     1      -0.145  10.333  21.191  0.00  0.00    +0.000 A 
ATOM     27  C   UNL     1      -0.715  11.386  20.463  0.00  0.00    +0.000 A 
ATOM     28  C   UNL     1      -1.601  12.277  21.081  0.00  0.00    +0.000 A 
ATOM     29  C   UNL     1      -1.927  12.129  22.429  0.00  0.00    +0.000 A 
ATOM     30  C   UNL     1      -1.364  11.094  23.168  0.00  0.00    +0.000 A 
ATOM     31  C   UNL     1      -0.480  10.205  22.553  0.00  0.00    +0.000 A 
ENDBRANCH  25  26
ENDBRANCH  24  25
ENDBRANCH  23  24
ENDBRANCH   7  23
TORSDOF 7
ENDMDL
MODEL 9
REMARK VINA RESULT:      -8.2      3.723      6.476
REMARK  Name = 
REMARK  8 active torsions:
REMARK  status: ('A' for Active; 'I' for Inactive)
REMARK    1  A    between atoms: C_1  and  C_2
REMARK    2  A    between atoms: C_6  and  C_7
REMARK    3  A    between atoms: C_7  and  N_8
REMARK    4  A    between atoms: N_11  and  C_12
REMARK    5  A    between atoms: C_18  and  C_19
REMARK    6  A    between atoms: C_19  and  O_20
REMARK    7  A    between atoms: O_20  and  C_21
REMARK    8  A    between atoms: C_21  and  C_22
REMARK                            x       y       z     vdW  Elec       q    Type
REMARK                         _______ _______ _______ _____ _____    ______ ____
ROOT
ATOM      1  C   UNL     1       4.266   6.215  17.777  0.00  0.00    +0.000 C 
ATOM      2  C   UNL     1       5.128   6.451  16.526  0.00  0.00    +0.000 C 
ATOM      3  S   UNL     1       6.834   6.421  17.046  0.00  0.00    +0.000 S 
ATOM      4  O   UNL     1       7.488   5.299  16.414  0.00  0.00    +0.000 OA
ATOM      5  O   UNL     1       7.376   7.752  17.044  0.00  0.00    +0.000 OA
ATOM      6  N   UNL     1       6.536   6.027  18.669  0.00  0.00    +0.000 NA
ATOM      7  C   UNL     1       5.176   5.429  18.795  0.00  0.00    +0.000 C 
ATOM      8  H   UNL     1       6.712   6.831  19.274  0.00  0.00    +0.000 HD
ENDROOT
BRANCH   1  12
ATOM      9  N   UNL     1       1.303   9.410  18.736  0.00  0.00    +0.000 NA
ATOM     10  C   UNL     1       1.598   8.322  19.674  0.00  0.00    +0.000 C 
ATOM     11  C   UNL     1       2.334   7.094  19.076  0.00  0.00    +0.000 C 
ATOM     12  N   UNL     1       3.562   7.425  18.318  0.00  0.00    +0.000 NA
ATOM     13  C   UNL     1       3.295   8.497  17.348  0.00  0.00    +0.000 C 
ATOM     14  C   UNL     1       2.459   9.694  17.876  0.00  0.00    +0.000 C 
BRANCH   9  15
ATOM     15  C   UNL     1       0.018   9.287  18.038  0.00  0.00    +0.000 C 
BRANCH  15  21
ATOM     16  C   UNL     1      -4.460  11.665  17.580  0.00  0.00    +0.000 C 
ATOM     17  C   UNL     1      -3.199  11.396  18.356  0.00  0.00    +0.000 A 
ATOM     18  C   UNL     1      -2.890  12.185  19.470  0.00  0.00    +0.000 A 
ATOM     19  C   UNL     1      -1.682  12.012  20.135  0.00  0.00    +0.000 A 
ATOM     20  C   UNL     1      -0.763  11.059  19.685  0.00  0.00    +0.000 A 
ATOM     21  C   UNL     1      -1.046  10.245  18.575  0.00  0.00    +0.000 A 
ATOM     22  C   UNL     1      -2.278  10.422  17.922  0.00  0.00    +0.000 A 
ENDBRANCH  15  21
ENDBRANCH   9  15
ENDBRANCH   1  12
BRANCH   7  23
ATOM     23  C   UNL     1       5.259   3.901  18.501  0.00  0.00    +0.000 C 
BRANCH  23  24
ATOM     24  O   UNL     1       4.454   3.458  17.390  0.00  0.00    +0.000 OA
BRANCH  24  25
ATOM     25  C   UNL     1       3.488   2.473  17.752  0.00  0.00    +0.000 C 
BRANCH  25  26
ATOM     26  C   UNL     1       2.760   2.742  19.053  0.00  0.00    +0.000 A 
ATOM     27  C   UNL     1       3.211   2.307  20.307  0.00  0.00    +0.000 A 
ATOM     28  C   UNL     1       2.483   2.605  21.465  0.00  0.00    +0.000 A 
ATOM     29  C   UNL     1       1.299   3.339  21.387  0.00  0.00    +0.000 A 
ATOM     30  C   UNL     1       0.833   3.772  20.151  0.00  0.00    +0.000 A 
ATOM     31  C   UNL     1       1.558   3.473  18.994  0.00  0.00    +0.000 A 
ENDBRANCH  25  26
ENDBRANCH  24  25
ENDBRANCH  23  24
ENDBRANCH   7  23
TORSDOF 7
ENDMDL
