MODEL 1
REMARK VINA RESULT:      -7.5      0.000      0.000
REMARK  Name = 
REMARK  6 active torsions:
REMARK  status: ('A' for Active; 'I' for Inactive)
REMARK    1  A    between atoms: C_1  and  C_2
REMARK    2  A    between atoms: N_4  and  C_5
REMARK    3  A    between atoms: C_6  and  C_7
REMARK    4  A    between atoms: C_8  and  N_9
REMARK    5  A    between atoms: N_9  and  S_10
REMARK    6  A    between atoms: S_10  and  C_13
REMARK                            x       y       z     vdW  Elec       q    Type
REMARK                         _______ _______ _______ _____ _____    ______ ____
ROOT
ATOM      1  S   UNL     1       4.073   3.421  18.152  0.00  0.00    +0.000 S 
ATOM      2  O   UNL     1       4.647   3.766  19.437  0.00  0.00    +0.000 OA
ATOM      3  O   UNL     1       3.723   2.055  17.833  0.00  0.00    +0.000 OA
ENDROOT
BRANCH   1   4
ATOM      4  C   UNL     1       5.216   4.009  16.908  0.00  0.00    +0.000 A 
ATOM      5  C   UNL     1       6.464   4.513  17.293  0.00  0.00    +0.000 A 
ATOM      6  C   UNL     1       7.391   4.887  16.316  0.00  0.00    +0.000 A 
ATOM      7  C   UNL     1       7.087   4.750  14.957  0.00  0.00    +0.000 A 
ATOM      8  C   UNL     1       5.855   4.192  14.579  0.00  0.00    +0.000 A 
ATOM      9  C   UNL     1       4.911   3.848  15.553  0.00  0.00    +0.000 A 
ATOM     10  O   UNL     1       5.477   3.930  13.284  0.00  0.00    +0.000 OA
ATOM     11  C   UNL     1       6.546   3.428  12.479  0.00  0.00    +0.000 C 
ATOM     12  C   UNL     1       7.339   4.564  11.857  0.00  0.00    +0.000 C 
ATOM     13  C   UNL     1       7.611   5.676  12.856  0.00  0.00    +0.000 C 
ATOM     14  O   UNL     1       8.080   5.159  14.102  0.00  0.00    +0.000 OA
ENDBRANCH   1   4
BRANCH   1  15
ATOM     15  N   UNL     1       2.730   4.403  17.970  0.00  0.00    +0.000 N 
ATOM     16  H   UNL     1       2.181   4.237  17.131  0.00  0.00    +0.000 HD
BRANCH  15  24
ATOM     17  C   UNL     1       1.355   3.607  20.761  0.00  0.00    +0.000 C 
ATOM     18  C   UNL     1       1.653   4.943  20.190  0.00  0.00    +0.000 A 
ATOM     19  N   UNL     1       1.392   6.040  20.912  0.00  0.00    +0.000 NA
ATOM     20  N   UNL     1       1.832   7.053  20.147  0.00  0.00    +0.000 N 
ATOM     21  C   UNL     1       1.669   8.407  20.626  0.00  0.00    +0.000 C 
ATOM     22  C   UNL     1       2.423   6.644  18.978  0.00  0.00    +0.000 A 
ATOM     23  C   UNL     1       3.062   7.565  18.009  0.00  0.00    +0.000 C 
ATOM     24  C   UNL     1       2.264   5.274  18.953  0.00  0.00    +0.000 A 
ENDBRANCH  15  24
ENDBRANCH   1  15
TORSDOF 3
ENDMDL
MODEL 2
REMARK VINA RESULT:      -7.3      3.187      7.369
REMARK  Name = 
REMARK  6 active torsions:
REMARK  status: ('A' for Active; 'I' for Inactive)
REMARK    1  A    between atoms: C_1  and  C_2
REMARK    2  A    between atoms: N_4  and  C_5
REMARK    3  A    between atoms: C_6  and  C_7
REMARK    4  A    between atoms: C_8  and  N_9
REMARK    5  A    between atoms: N_9  and  S_10
REMARK    6  A    between atoms: S_10  and  C_13
REMARK                            x       y       z     vdW  Elec       q    Type
REMARK                         _______ _______ _______ _____ _____    ______ ____
ROOT
ATOM      1  S   UNL     1       6.130   6.558  16.286  0.00  0.00    +0.000 S 
ATOM      2  O   UNL     1       6.913   7.490  17.072  0.00  0.00    +0.000 OA
ATOM      3  O   UNL     1       5.153   7.026  15.327  0.00  0.00    +0.000 OA
ENDROOT
BRANCH   1   4
ATOM      4  C   UNL     1       5.300   5.481  17.447  0.00  0.00    +0.000 A 
ATOM      5  C   UNL     1       6.047   4.578  18.214  0.00  0.00    +0.000 A 
ATOM      6  C   UNL     1       5.409   3.802  19.185  0.00  0.00    +0.000 A 
ATOM      7  C   UNL     1       4.033   3.928  19.407  0.00  0.00    +0.000 A 
ATOM      8  C   UNL     1       3.301   4.875  18.674  0.00  0.00    +0.000 A 
ATOM      9  C   UNL     1       3.929   5.630  17.676  0.00  0.00    +0.000 A 
ATOM     10  O   UNL     1       1.967   5.149  18.858  0.00  0.00    +0.000 OA
ATOM     11  C   UNL     1       1.579   5.142  20.233  0.00  0.00    +0.000 C 
ATOM     12  C   UNL     1       1.196   3.743  20.683  0.00  0.00    +0.000 C 
ATOM     13  C   UNL     1       2.176   2.699  20.175  0.00  0.00    +0.000 C 
ATOM     14  O   UNL     1       3.530   3.104  20.383  0.00  0.00    +0.000 OA
ENDBRANCH   1   4
BRANCH   1  15
ATOM     15  N   UNL     1       7.235   5.560  15.521  0.00  0.00    +0.000 N 
ATOM     16  H   UNL     1       8.053   5.315  16.073  0.00  0.00    +0.000 HD
BRANCH  15  24
ATOM     17  C   UNL     1       8.861   6.051  12.795  0.00  0.00    +0.000 C 
ATOM     18  C   UNL     1       7.714   5.152  13.075  0.00  0.00    +0.000 A 
ATOM     19  N   UNL     1       7.262   4.343  12.110  0.00  0.00    +0.000 NA
ATOM     20  N   UNL     1       6.286   3.635  12.701  0.00  0.00    +0.000 N 
ATOM     21  C   UNL     1       5.551   2.672  11.912  0.00  0.00    +0.000 C 
ATOM     22  C   UNL     1       6.130   3.917  14.034  0.00  0.00    +0.000 A 
ATOM     23  C   UNL     1       5.180   3.209  14.924  0.00  0.00    +0.000 C 
ATOM     24  C   UNL     1       7.009   4.949  14.290  0.00  0.00    +0.000 A 
ENDBRANCH  15  24
ENDBRANCH   1  15
TORSDOF 3
ENDMDL
MODEL 3
REMARK VINA RESULT:      -7.2      3.026      7.033
REMARK  Name = 
REMARK  6 active torsions:
REMARK  status: ('A' for Active; 'I' for Inactive)
REMARK    1  A    between atoms: C_1  and  C_2
REMARK    2  A    between atoms: N_4  and  C_5
REMARK    3  A    between atoms: C_6  and  C_7
REMARK    4  A    between atoms: C_8  and  N_9
REMARK    5  A    between atoms: N_9  and  S_10
REMARK    6  A    between atoms: S_10  and  C_13
REMARK                            x       y       z     vdW  Elec       q    Type
REMARK                         _______ _______ _______ _____ _____    ______ ____
ROOT
ATOM      1  S   UNL     1       7.230   5.713  17.456  0.00  0.00    +0.000 S 
ATOM      2  O   UNL     1       7.829   4.394  17.426  0.00  0.00    +0.000 OA
ATOM      3  O   UNL     1       7.912   6.829  18.073  0.00  0.00    +0.000 OA
ENDROOT
BRANCH   1   4
ATOM      4  C   UNL     1       5.634   5.532  18.239  0.00  0.00    +0.000 A 
ATOM      5  C   UNL     1       4.635   6.487  18.011  0.00  0.00    +0.000 A 
ATOM      6  C   UNL     1       3.360   6.297  18.550  0.00  0.00    +0.000 A 
ATOM      7  C   UNL     1       3.069   5.157  19.306  0.00  0.00    +0.000 A 
ATOM      8  C   UNL     1       4.059   4.177  19.485  0.00  0.00    +0.000 A 
ATOM      9  C   UNL     1       5.347   4.379  18.976  0.00  0.00    +0.000 A 
ATOM     10  O   UNL     1       3.870   2.981  20.134  0.00  0.00    +0.000 OA
ATOM     11  C   UNL     1       2.597   2.391  19.863  0.00  0.00    +0.000 C 
ATOM     12  C   UNL     1       1.543   2.905  20.828  0.00  0.00    +0.000 C 
ATOM     13  C   UNL     1       1.646   4.408  21.028  0.00  0.00    +0.000 C 
ATOM     14  O   UNL     1       1.783   5.096  19.783  0.00  0.00    +0.000 OA
ENDBRANCH   1   4
BRANCH   1  15
ATOM     15  N   UNL     1       6.866   6.087  15.865  0.00  0.00    +0.000 N 
ATOM     16  H   UNL     1       6.954   7.070  15.619  0.00  0.00    +0.000 HD
BRANCH  15  24
ATOM     17  C   UNL     1       4.461   3.960  15.780  0.00  0.00    +0.000 C 
ATOM     18  C   UNL     1       5.571   4.186  14.822  0.00  0.00    +0.000 A 
ATOM     19  N   UNL     1       5.618   3.473  13.690  0.00  0.00    +0.000 NA
ATOM     20  N   UNL     1       6.684   3.961  13.035  0.00  0.00    +0.000 N 
ATOM     21  C   UNL     1       7.045   3.377  11.763  0.00  0.00    +0.000 C 
ATOM     22  C   UNL     1       7.295   5.007  13.678  0.00  0.00    +0.000 A 
ATOM     23  C   UNL     1       8.436   5.770  13.119  0.00  0.00    +0.000 C 
ATOM     24  C   UNL     1       6.625   5.135  14.877  0.00  0.00    +0.000 A 
ENDBRANCH  15  24
ENDBRANCH   1  15
TORSDOF 3
ENDMDL
MODEL 4
REMARK VINA RESULT:      -7.1      4.299      6.808
REMARK  Name = 
REMARK  6 active torsions:
REMARK  status: ('A' for Active; 'I' for Inactive)
REMARK    1  A    between atoms: C_1  and  C_2
REMARK    2  A    between atoms: N_4  and  C_5
REMARK    3  A    between atoms: C_6  and  C_7
REMARK    4  A    between atoms: C_8  and  N_9
REMARK    5  A    between atoms: N_9  and  S_10
REMARK    6  A    between atoms: S_10  and  C_13
REMARK                            x       y       z     vdW  Elec       q    Type
REMARK                         _______ _______ _______ _____ _____    ______ ____
ROOT
ATOM      1  S   UNL     1       0.847   8.994  21.343  0.00  0.00    +0.000 S 
ATOM      2  O   UNL     1       1.815   9.194  22.402  0.00  0.00    +0.000 OA
ATOM      3  O   UNL     1      -0.476   8.481  21.626  0.00  0.00    +0.000 OA
ENDROOT
BRANCH   1   4
ATOM      4  C   UNL     1       1.617   7.915  20.143  0.00  0.00    +0.000 A 
ATOM      5  C   UNL     1       2.057   8.437  18.920  0.00  0.00    +0.000 A 
ATOM      6  C   UNL     1       2.741   7.613  18.022  0.00  0.00    +0.000 A 
ATOM      7  C   UNL     1       2.999   6.275  18.338  0.00  0.00    +0.000 A 
ATOM      8  C   UNL     1       2.603   5.773  19.589  0.00  0.00    +0.000 A 
ATOM      9  C   UNL     1       1.889   6.585  20.477  0.00  0.00    +0.000 A 
ATOM     10  O   UNL     1       2.872   4.505  20.046  0.00  0.00    +0.000 OA
ATOM     11  C   UNL     1       4.178   4.047  19.690  0.00  0.00    +0.000 C 
ATOM     12  C   UNL     1       4.169   3.386  18.323  0.00  0.00    +0.000 C 
ATOM     13  C   UNL     1       3.354   4.182  17.317  0.00  0.00    +0.000 C 
ATOM     14  O   UNL     1       3.671   5.574  17.368  0.00  0.00    +0.000 OA
ENDBRANCH   1   4
BRANCH   1  15
ATOM     15  N   UNL     1       0.722  10.464  20.551  0.00  0.00    +0.000 N 
ATOM     16  H   UNL     1       1.584  10.807  20.135  0.00  0.00    +0.000 HD
BRANCH  15  24
ATOM     17  C   UNL     1      -1.113  10.205  17.929  0.00  0.00    +0.000 C 
ATOM     18  C   UNL     1      -1.308  11.017  19.155  0.00  0.00    +0.000 A 
ATOM     19  N   UNL     1      -2.427  11.738  19.296  0.00  0.00    +0.000 NA
ATOM     20  N   UNL     1      -2.317  12.286  20.517  0.00  0.00    +0.000 N 
ATOM     21  C   UNL     1      -3.364  13.170  20.979  0.00  0.00    +0.000 C 
ATOM     22  C   UNL     1      -1.191  11.897  21.196  0.00  0.00    +0.000 A 
ATOM     23  C   UNL     1      -0.887  12.296  22.591  0.00  0.00    +0.000 C 
ATOM     24  C   UNL     1      -0.484  11.116  20.306  0.00  0.00    +0.000 A 
ENDBRANCH  15  24
ENDBRANCH   1  15
TORSDOF 3
ENDMDL
MODEL 5
REMARK VINA RESULT:      -7.0      4.274      6.755
REMARK  Name = 
REMARK  6 active torsions:
REMARK  status: ('A' for Active; 'I' for Inactive)
REMARK    1  A    between atoms: C_1  and  C_2
REMARK    2  A    between atoms: N_4  and  C_5
REMARK    3  A    between atoms: C_6  and  C_7
REMARK    4  A    between atoms: C_8  and  N_9
REMARK    5  A    between atoms: N_9  and  S_10
REMARK    6  A    between atoms: S_10  and  C_13
REMARK                            x       y       z     vdW  Elec       q    Type
REMARK                         _______ _______ _______ _____ _____    ______ ____
ROOT
ATOM      1  S   UNL     1       0.843   8.957  21.346  0.00  0.00    +0.000 S 
ATOM      2  O   UNL     1       1.827   9.211  22.380  0.00  0.00    +0.000 OA
ATOM      3  O   UNL     1      -0.456   8.409  21.669  0.00  0.00    +0.000 OA
ENDROOT
BRANCH   1   4
ATOM      4  C   UNL     1       1.623   7.878  20.153  0.00  0.00    +0.000 A 
ATOM      5  C   UNL     1       2.079   8.400  18.937  0.00  0.00    +0.000 A 
ATOM      6  C   UNL     1       2.769   7.575  18.045  0.00  0.00    +0.000 A 
ATOM      7  C   UNL     1       3.019   6.235  18.362  0.00  0.00    +0.000 A 
ATOM      8  C   UNL     1       2.607   5.733  19.606  0.00  0.00    +0.000 A 
ATOM      9  C   UNL     1       1.886   6.546  20.488  0.00  0.00    +0.000 A 
ATOM     10  O   UNL     1       2.865   4.463  20.064  0.00  0.00    +0.000 OA
ATOM     11  C   UNL     1       4.173   4.000  19.723  0.00  0.00    +0.000 C 
ATOM     12  C   UNL     1       4.178   3.342  18.354  0.00  0.00    +0.000 C 
ATOM     13  C   UNL     1       3.377   4.143  17.341  0.00  0.00    +0.000 C 
ATOM     14  O   UNL     1       3.699   5.533  17.397  0.00  0.00    +0.000 OA
ENDBRANCH   1   4
BRANCH   1  15
ATOM     15  N   UNL     1       0.655  10.405  20.527  0.00  0.00    +0.000 N 
ATOM     16  H   UNL     1       1.504  10.786  20.119  0.00  0.00    +0.000 HD
BRANCH  15  24
ATOM     17  C   UNL     1      -0.929  12.525  22.346  0.00  0.00    +0.000 C 
ATOM     18  C   UNL     1      -1.297  11.923  21.041  0.00  0.00    +0.000 A 
ATOM     19  N   UNL     1      -2.421  12.314  20.430  0.00  0.00    +0.000 NA
ATOM     20  N   UNL     1      -2.420  11.640  19.269  0.00  0.00    +0.000 N 
ATOM     21  C   UNL     1      -3.535  11.810  18.365  0.00  0.00    +0.000 C 
ATOM     22  C   UNL     1      -1.302  10.868  19.081  0.00  0.00    +0.000 A 
ATOM     23  C   UNL     1      -1.026  10.098  17.845  0.00  0.00    +0.000 C 
ATOM     24  C   UNL     1      -0.580  10.987  20.251  0.00  0.00    +0.000 A 
ENDBRANCH  15  24
ENDBRANCH   1  15
TORSDOF 3
ENDMDL
MODEL 6
REMARK VINA RESULT:      -7.0      2.822      6.237
REMARK  Name = 
REMARK  6 active torsions:
REMARK  status: ('A' for Active; 'I' for Inactive)
REMARK    1  A    between atoms: C_1  and  C_2
REMARK    2  A    between atoms: N_4  and  C_5
REMARK    3  A    between atoms: C_6  and  C_7
REMARK    4  A    between atoms: C_8  and  N_9
REMARK    5  A    between atoms: N_9  and  S_10
REMARK    6  A    between atoms: S_10  and  C_13
REMARK                            x       y       z     vdW  Elec       q    Type
REMARK                         _______ _______ _______ _____ _____    ______ ____
ROOT
ATOM      1  S   UNL     1       3.277   3.073  17.801  0.00  0.00    +0.000 S 
ATOM      2  O   UNL     1       2.750   3.110  16.452  0.00  0.00    +0.000 OA
ATOM      3  O   UNL     1       2.969   1.977  18.694  0.00  0.00    +0.000 OA
ENDROOT
BRANCH   1   4
ATOM      4  C   UNL     1       2.768   4.594  18.591  0.00  0.00    +0.000 A 
ATOM      5  C   UNL     1       2.845   4.714  19.984  0.00  0.00    +0.000 A 
ATOM      6  C   UNL     1       2.534   5.933  20.592  0.00  0.00    +0.000 A 
ATOM      7  C   UNL     1       2.158   7.038  19.820  0.00  0.00    +0.000 A 
ATOM      8  C   UNL     1       2.136   6.927  18.421  0.00  0.00    +0.000 A 
ATOM      9  C   UNL     1       2.414   5.698  17.810  0.00  0.00    +0.000 A 
ATOM     10  O   UNL     1       1.865   7.959  17.556  0.00  0.00    +0.000 OA
ATOM     11  C   UNL     1       2.436   9.202  17.970  0.00  0.00    +0.000 C 
ATOM     12  C   UNL     1       1.500   9.944  18.908  0.00  0.00    +0.000 C 
ATOM     13  C   UNL     1       0.887   9.018  19.944  0.00  0.00    +0.000 C 
ATOM     14  O   UNL     1       1.872   8.172  20.540  0.00  0.00    +0.000 OA
ENDBRANCH   1   4
BRANCH   1  15
ATOM     15  N   UNL     1       4.937   3.226  17.651  0.00  0.00    +0.000 N 
ATOM     16  H   UNL     1       5.465   2.366  17.778  0.00  0.00    +0.000 HD
BRANCH  15  24
ATOM     17  C   UNL     1       5.115   4.308  14.633  0.00  0.00    +0.000 C 
ATOM     18  C   UNL     1       5.667   4.879  15.886  0.00  0.00    +0.000 A 
ATOM     19  N   UNL     1       6.302   6.056  15.849  0.00  0.00    +0.000 NA
ATOM     20  N   UNL     1       6.609   6.307  17.132  0.00  0.00    +0.000 N 
ATOM     21  C   UNL     1       7.345   7.511  17.448  0.00  0.00    +0.000 C 
ATOM     22  C   UNL     1       6.142   5.360  18.007  0.00  0.00    +0.000 A 
ATOM     23  C   UNL     1       6.276   5.455  19.479  0.00  0.00    +0.000 C 
ATOM     24  C   UNL     1       5.575   4.384  17.213  0.00  0.00    +0.000 A 
ENDBRANCH  15  24
ENDBRANCH   1  15
TORSDOF 3
ENDMDL
MODEL 7
REMARK VINA RESULT:      -7.0      0.528      1.760
REMARK  Name = 
REMARK  6 active torsions:
REMARK  status: ('A' for Active; 'I' for Inactive)
REMARK    1  A    between atoms: C_1  and  C_2
REMARK    2  A    between atoms: N_4  and  C_5
REMARK    3  A    between atoms: C_6  and  C_7
REMARK    4  A    between atoms: C_8  and  N_9
REMARK    5  A    between atoms: N_9  and  S_10
REMARK    6  A    between atoms: S_10  and  C_13
REMARK                            x       y       z     vdW  Elec       q    Type
REMARK                         _______ _______ _______ _____ _____    ______ ____
ROOT
ATOM      1  S   UNL     1       4.125   3.409  18.140  0.00  0.00    +0.000 S 
ATOM      2  O   UNL     1       4.699   3.766  19.422  0.00  0.00    +0.000 OA
ATOM      3  O   UNL     1       3.787   2.037  17.829  0.00  0.00    +0.000 OA
ENDROOT
BRANCH   1   4
ATOM      4  C   UNL     1       5.257   4.002  16.890  0.00  0.00    +0.000 A 
ATOM      5  C   UNL     1       6.502   4.520  17.269  0.00  0.00    +0.000 A 
ATOM      6  C   UNL     1       7.422   4.898  16.287  0.00  0.00    +0.000 A 
ATOM      7  C   UNL     1       7.115   4.751  14.930  0.00  0.00    +0.000 A 
ATOM      8  C   UNL     1       5.888   4.179  14.558  0.00  0.00    +0.000 A 
ATOM      9  C   UNL     1       4.950   3.831  15.537  0.00  0.00    +0.000 A 
ATOM     10  O   UNL     1       5.508   3.909  13.266  0.00  0.00    +0.000 OA
ATOM     11  C   UNL     1       6.580   3.413  12.460  0.00  0.00    +0.000 C 
ATOM     12  C   UNL     1       7.359   4.553  11.829  0.00  0.00    +0.000 C 
ATOM     13  C   UNL     1       7.624   5.673  12.822  0.00  0.00    +0.000 C 
ATOM     14  O   UNL     1       8.102   5.166  14.070  0.00  0.00    +0.000 OA
ENDBRANCH   1   4
BRANCH   1  15
ATOM     15  N   UNL     1       2.771   4.377  17.958  0.00  0.00    +0.000 N 
ATOM     16  H   UNL     1       2.029   3.982  17.385  0.00  0.00    +0.000 HD
BRANCH  15  24
ATOM     17  C   UNL     1       3.631   7.335  17.050  0.00  0.00    +0.000 C 
ATOM     18  C   UNL     1       2.934   6.877  18.277  0.00  0.00    +0.000 A 
ATOM     19  N   UNL     1       2.512   7.780  19.170  0.00  0.00    +0.000 NA
ATOM     20  N   UNL     1       1.880   7.052  20.104  0.00  0.00    +0.000 N 
ATOM     21  C   UNL     1       1.321   7.730  21.253  0.00  0.00    +0.000 C 
ATOM     22  C   UNL     1       1.827   5.712  19.817  0.00  0.00    +0.000 A 
ATOM     23  C   UNL     1       1.110   4.716  20.647  0.00  0.00    +0.000 C 
ATOM     24  C   UNL     1       2.561   5.562  18.659  0.00  0.00    +0.000 A 
ENDBRANCH  15  24
ENDBRANCH   1  15
TORSDOF 3
ENDMDL
MODEL 8
REMARK VINA RESULT:      -7.0      3.358      7.678
REMARK  Name = 
REMARK  6 active torsions:
REMARK  status: ('A' for Active; 'I' for Inactive)
REMARK    1  A    between atoms: C_1  and  C_2
REMARK    2  A    between atoms: N_4  and  C_5
REMARK    3  A    between atoms: C_6  and  C_7
REMARK    4  A    between atoms: C_8  and  N_9
REMARK    5  A    between atoms: N_9  and  S_10
REMARK    6  A    between atoms: S_10  and  C_13
REMARK                            x       y       z     vdW  Elec       q    Type
REMARK                         _______ _______ _______ _____ _____    ______ ____
ROOT
ATOM      1  S   UNL     1       2.638   5.741  19.396  0.00  0.00    +0.000 S 
ATOM      2  O   UNL     1       1.516   4.999  19.935  0.00  0.00    +0.000 OA
ATOM      3  O   UNL     1       3.943   5.678  20.017  0.00  0.00    +0.000 OA
ENDROOT
BRANCH   1   4
ATOM      4  C   UNL     1       2.134   7.455  19.332  0.00  0.00    +0.000 A 
ATOM      5  C   UNL     1       2.107   8.126  18.103  0.00  0.00    +0.000 A 
ATOM      6  C   UNL     1       1.626   9.437  18.041  0.00  0.00    +0.000 A 
ATOM      7  C   UNL     1       1.161  10.080  19.193  0.00  0.00    +0.000 A 
ATOM      8  C   UNL     1       1.139   9.383  20.411  0.00  0.00    +0.000 A 
ATOM      9  C   UNL     1       1.652   8.082  20.485  0.00  0.00    +0.000 A 
ATOM     10  O   UNL     1       0.631   9.875  21.589  0.00  0.00    +0.000 OA
ATOM     11  C   UNL     1      -0.561  10.642  21.407  0.00  0.00    +0.000 C 
ATOM     12  C   UNL     1      -0.233  12.097  21.117  0.00  0.00    +0.000 C 
ATOM     13  C   UNL     1       0.904  12.231  20.119  0.00  0.00    +0.000 C 
ATOM     14  O   UNL     1       0.723  11.367  18.996  0.00  0.00    +0.000 OA
ENDBRANCH   1   4
BRANCH   1  15
ATOM     15  N   UNL     1       2.759   5.290  17.789  0.00  0.00    +0.000 N 
ATOM     16  H   UNL     1       1.976   5.563  17.201  0.00  0.00    +0.000 HD
BRANCH  15  24
ATOM     17  C   UNL     1       3.586   2.187  17.752  0.00  0.00    +0.000 C 
ATOM     18  C   UNL     1       4.288   3.369  17.195  0.00  0.00    +0.000 A 
ATOM     19  N   UNL     1       5.420   3.196  16.503  0.00  0.00    +0.000 NA
ATOM     20  N   UNL     1       5.751   4.431  16.093  0.00  0.00    +0.000 N 
ATOM     21  C   UNL     1       6.967   4.609  15.333  0.00  0.00    +0.000 C 
ATOM     22  C   UNL     1       4.838   5.392  16.447  0.00  0.00    +0.000 A 
ATOM     23  C   UNL     1       4.934   6.813  16.040  0.00  0.00    +0.000 C 
ATOM     24  C   UNL     1       3.903   4.735  17.220  0.00  0.00    +0.000 A 
ENDBRANCH  15  24
ENDBRANCH   1  15
TORSDOF 3
ENDMDL
MODEL 9
REMARK VINA RESULT:      -6.9      3.381      7.913
REMARK  Name = 
REMARK  6 active torsions:
REMARK  status: ('A' for Active; 'I' for Inactive)
REMARK    1  A    between atoms: C_1  and  C_2
REMARK    2  A    between atoms: N_4  and  C_5
REMARK    3  A    between atoms: C_6  and  C_7
REMARK    4  A    between atoms: C_8  and  N_9
REMARK    5  A    between atoms: N_9  and  S_10
REMARK    6  A    between atoms: S_10  and  C_13
REMARK                            x       y       z     vdW  Elec       q    Type
REMARK                         _______ _______ _______ _____ _____    ______ ____
ROOT
ATOM      1  S   UNL     1       3.211   6.816  18.251  0.00  0.00    +0.000 S 
ATOM      2  O   UNL     1       4.128   6.413  19.297  0.00  0.00    +0.000 OA
ATOM      3  O   UNL     1       3.697   7.283  16.971  0.00  0.00    +0.000 OA
ENDROOT
BRANCH   1   4
ATOM      4  C   UNL     1       2.167   8.089  18.949  0.00  0.00    +0.000 A 
ATOM      5  C   UNL     1       1.496   8.979  18.102  0.00  0.00    +0.000 A 
ATOM      6  C   UNL     1       0.609   9.914  18.643  0.00  0.00    +0.000 A 
ATOM      7  C   UNL     1       0.378   9.961  20.022  0.00  0.00    +0.000 A 
ATOM      8  C   UNL     1       1.013   9.029  20.860  0.00  0.00    +0.000 A 
ATOM      9  C   UNL     1       1.927   8.113  20.326  0.00  0.00    +0.000 A 
ATOM     10  O   UNL     1       0.804   8.921  22.214  0.00  0.00    +0.000 OA
ATOM     11  C   UNL     1      -0.562   9.111  22.586  0.00  0.00    +0.000 C 
ATOM     12  C   UNL     1      -0.867  10.581  22.811  0.00  0.00    +0.000 C 
ATOM     13  C   UNL     1      -0.257  11.456  21.729  0.00  0.00    +0.000 C 
ATOM     14  O   UNL     1      -0.508  10.929  20.425  0.00  0.00    +0.000 OA
ENDBRANCH   1   4
BRANCH   1  15
ATOM     15  N   UNL     1       2.177   5.519  18.021  0.00  0.00    +0.000 N 
ATOM     16  H   UNL     1       1.364   5.711  17.442  0.00  0.00    +0.000 HD
BRANCH  15  24
ATOM     17  C   UNL     1       0.680   3.846  20.316  0.00  0.00    +0.000 C 
ATOM     18  C   UNL     1       1.813   3.461  19.439  0.00  0.00    +0.000 A 
ATOM     19  N   UNL     1       2.310   2.221  19.511  0.00  0.00    +0.000 NA
ATOM     20  N   UNL     1       3.257   2.187  18.560  0.00  0.00    +0.000 N 
ATOM     21  C   UNL     1       4.028   0.976  18.390  0.00  0.00    +0.000 C 
ATOM     22  C   UNL     1       3.350   3.347  17.834  0.00  0.00    +0.000 A 
ATOM     23  C   UNL     1       4.258   3.527  16.676  0.00  0.00    +0.000 C 
ATOM     24  C   UNL     1       2.460   4.217  18.427  0.00  0.00    +0.000 A 
ENDBRANCH  15  24
ENDBRANCH   1  15
TORSDOF 3
ENDMDL
