MODEL 1
REMARK VINA RESULT:      -8.3      0.000      0.000
REMARK  Name = 
REMARK  4 active torsions:
REMARK  status: ('A' for Active; 'I' for Inactive)
REMARK    1  A    between atoms: C_1  and  O_2
REMARK    2  A    between atoms: O_2  and  C_3
REMARK    3  A    between atoms: C_6  and  C_7
REMARK    4  A    between atoms: C_8  and  C_9
REMARK                            x       y       z     vdW  Elec       q    Type
REMARK                         _______ _______ _______ _____ _____    ______ ____
ROOT
ATOM      1  C   UNL     1       7.793   7.849  17.850  0.00  0.00    +0.000 A 
ATOM      2  N   UNL     1       6.914   7.579  16.943  0.00  0.00    +0.000 NA
ATOM      3  C   UNL     1       6.255   6.357  17.041  0.00  0.00    +0.000 A 
ATOM      4  C   UNL     1       5.322   6.000  16.067  0.00  0.00    +0.000 A 
ATOM      5  C   UNL     1       4.648   4.779  16.150  0.00  0.00    +0.000 A 
ATOM      6  C   UNL     1       4.900   3.911  17.213  0.00  0.00    +0.000 A 
ATOM      7  C   UNL     1       5.825   4.267  18.193  0.00  0.00    +0.000 A 
ATOM      8  C   UNL     1       6.495   5.492  18.097  0.00  0.00    +0.000 A 
ATOM      9  C   UNL     1       7.473   5.909  19.107  0.00  0.00    +0.000 A 
ATOM     10  O   UNL     1       7.689   5.214  20.096  0.00  0.00    +0.000 OA
ATOM     11  O   UNL     1       8.133   7.073  18.900  0.00  0.00    +0.000 OA
ENDROOT
BRANCH   1  13
ATOM     12  C   UNL     1       9.053   9.710  18.945  0.00  0.00    +0.000 C 
ATOM     13  C   UNL     1       8.505   9.142  17.861  0.00  0.00    +0.000 C 
BRANCH  12  17
ATOM     14  C   UNL     1      10.764  13.643  18.786  0.00  0.00    +0.000 A 
ATOM     15  C   UNL     1       9.818  13.230  17.849  0.00  0.00    +0.000 A 
ATOM     16  C   UNL     1       9.243  11.957  17.931  0.00  0.00    +0.000 A 
ATOM     17  C   UNL     1       9.627  11.066  18.941  0.00  0.00    +0.000 A 
ATOM     18  C   UNL     1      10.561  11.500  19.891  0.00  0.00    +0.000 A 
ATOM     19  C   UNL     1      11.135  12.773  19.808  0.00  0.00    +0.000 A 
BRANCH  14  21
ATOM     20  C   UNL     1      12.011  15.444  19.674  0.00  0.00    +0.000 C 
ATOM     21  O   UNL     1      11.285  14.892  18.583  0.00  0.00    +0.000 OA
ENDBRANCH  14  21
ENDBRANCH  12  17
ENDBRANCH   1  13
TORSDOF 3
ENDMDL
MODEL 2
REMARK VINA RESULT:      -8.2      0.439      1.128
REMARK  Name = 
REMARK  4 active torsions:
REMARK  status: ('A' for Active; 'I' for Inactive)
REMARK    1  A    between atoms: C_1  and  O_2
REMARK    2  A    between atoms: O_2  and  C_3
REMARK    3  A    between atoms: C_6  and  C_7
REMARK    4  A    between atoms: C_8  and  C_9
REMARK                            x       y       z     vdW  Elec       q    Type
REMARK                         _______ _______ _______ _____ _____    ______ ____
ROOT
ATOM      1  C   UNL     1       7.832   7.832  17.886  0.00  0.00    +0.000 A 
ATOM      2  N   UNL     1       6.898   7.599  17.027  0.00  0.00    +0.000 NA
ATOM      3  C   UNL     1       6.208   6.396  17.148  0.00  0.00    +0.000 A 
ATOM      4  C   UNL     1       5.213   6.079  16.223  0.00  0.00    +0.000 A 
ATOM      5  C   UNL     1       4.507   4.877  16.331  0.00  0.00    +0.000 A 
ATOM      6  C   UNL     1       4.791   3.989  17.369  0.00  0.00    +0.000 A 
ATOM      7  C   UNL     1       5.778   4.306  18.300  0.00  0.00    +0.000 A 
ATOM      8  C   UNL     1       6.480   5.511  18.180  0.00  0.00    +0.000 A 
ATOM      9  C   UNL     1       7.524   5.887  19.138  0.00  0.00    +0.000 A 
ATOM     10  O   UNL     1       7.773   5.174  20.106  0.00  0.00    +0.000 OA
ATOM     11  O   UNL     1       8.206   7.033  18.907  0.00  0.00    +0.000 OA
ENDROOT
BRANCH   1  13
ATOM     12  C   UNL     1       9.088   9.712  18.954  0.00  0.00    +0.000 C 
ATOM     13  C   UNL     1       8.583   9.103  17.871  0.00  0.00    +0.000 C 
BRANCH  12  17
ATOM     14  C   UNL     1      10.817  13.640  18.971  0.00  0.00    +0.000 A 
ATOM     15  C   UNL     1      10.988  12.772  20.049  0.00  0.00    +0.000 A 
ATOM     16  C   UNL     1      10.447  11.482  20.017  0.00  0.00    +0.000 A 
ATOM     17  C   UNL     1       9.703  11.049  18.913  0.00  0.00    +0.000 A 
ATOM     18  C   UNL     1       9.557  11.920  17.825  0.00  0.00    +0.000 A 
ATOM     19  C   UNL     1      10.098  13.210  17.858  0.00  0.00    +0.000 A 
BRANCH  14  21
ATOM     20  C   UNL     1      10.449  15.975  18.992  0.00  0.00    +0.000 C 
ATOM     21  O   UNL     1      11.356  14.887  19.130  0.00  0.00    +0.000 OA
ENDBRANCH  14  21
ENDBRANCH  12  17
ENDBRANCH   1  13
TORSDOF 3
ENDMDL
MODEL 3
REMARK VINA RESULT:      -8.2      1.595      1.827
REMARK  Name = 
REMARK  4 active torsions:
REMARK  status: ('A' for Active; 'I' for Inactive)
REMARK    1  A    between atoms: C_1  and  O_2
REMARK    2  A    between atoms: O_2  and  C_3
REMARK    3  A    between atoms: C_6  and  C_7
REMARK    4  A    between atoms: C_8  and  C_9
REMARK                            x       y       z     vdW  Elec       q    Type
REMARK                         _______ _______ _______ _____ _____    ______ ____
ROOT
ATOM      1  C   UNL     1       7.019   7.513  17.313  0.00  0.00    +0.000 A 
ATOM      2  N   UNL     1       5.815   7.410  17.768  0.00  0.00    +0.000 NA
ATOM      3  C   UNL     1       5.136   6.225  17.507  0.00  0.00    +0.000 A 
ATOM      4  C   UNL     1       3.820   6.076  17.945  0.00  0.00    +0.000 A 
ATOM      5  C   UNL     1       3.122   4.892  17.694  0.00  0.00    +0.000 A 
ATOM      6  C   UNL     1       3.741   3.847  17.008  0.00  0.00    +0.000 A 
ATOM      7  C   UNL     1       5.059   3.986  16.576  0.00  0.00    +0.000 A 
ATOM      8  C   UNL     1       5.746   5.179  16.831  0.00  0.00    +0.000 A 
ATOM      9  C   UNL     1       7.133   5.369  16.398  0.00  0.00    +0.000 A 
ATOM     10  O   UNL     1       7.749   4.461  15.846  0.00  0.00    +0.000 OA
ATOM     11  O   UNL     1       7.700   6.579  16.617  0.00  0.00    +0.000 OA
ENDROOT
BRANCH   1  13
ATOM     12  C   UNL     1       8.579   8.902  18.687  0.00  0.00    +0.000 C 
ATOM     13  C   UNL     1       7.838   8.711  17.586  0.00  0.00    +0.000 C 
BRANCH  12  17
ATOM     14  C   UNL     1      10.697  12.553  19.469  0.00  0.00    +0.000 A 
ATOM     15  C   UNL     1      10.476  12.112  18.164  0.00  0.00    +0.000 A 
ATOM     16  C   UNL     1       9.756  10.938  17.922  0.00  0.00    +0.000 A 
ATOM     17  C   UNL     1       9.265  10.171  18.986  0.00  0.00    +0.000 A 
ATOM     18  C   UNL     1       9.472  10.634  20.292  0.00  0.00    +0.000 A 
ATOM     19  C   UNL     1      10.192  11.809  20.533  0.00  0.00    +0.000 A 
BRANCH  14  21
ATOM     20  C   UNL     1      10.779  14.906  19.261  0.00  0.00    +0.000 C 
ATOM     21  O   UNL     1      11.446  13.692  19.584  0.00  0.00    +0.000 OA
ENDBRANCH  14  21
ENDBRANCH  12  17
ENDBRANCH   1  13
TORSDOF 3
ENDMDL
MODEL 4
REMARK VINA RESULT:      -8.2      1.130      1.337
REMARK  Name = 
REMARK  4 active torsions:
REMARK  status: ('A' for Active; 'I' for Inactive)
REMARK    1  A    between atoms: C_1  and  O_2
REMARK    2  A    between atoms: O_2  and  C_3
REMARK    3  A    between atoms: C_6  and  C_7
REMARK    4  A    between atoms: C_8  and  C_9
REMARK                            x       y       z     vdW  Elec       q    Type
REMARK                         _______ _______ _______ _____ _____    ______ ____
ROOT
ATOM      1  C   UNL     1       7.778   7.733  17.854  0.00  0.00    +0.000 A 
ATOM      2  N   UNL     1       6.734   7.510  17.127  0.00  0.00    +0.000 NA
ATOM      3  C   UNL     1       5.995   6.366  17.410  0.00  0.00    +0.000 A 
ATOM      4  C   UNL     1       4.879   6.059  16.631  0.00  0.00    +0.000 A 
ATOM      5  C   UNL     1       4.123   4.915  16.901  0.00  0.00    +0.000 A 
ATOM      6  C   UNL     1       4.478   4.075  17.956  0.00  0.00    +0.000 A 
ATOM      7  C   UNL     1       5.587   4.381  18.743  0.00  0.00    +0.000 A 
ATOM      8  C   UNL     1       6.338   5.528  18.460  0.00  0.00    +0.000 A 
ATOM      9  C   UNL     1       7.510   5.891  19.262  0.00  0.00    +0.000 A 
ATOM     10  O   UNL     1       7.832   5.224  20.241  0.00  0.00    +0.000 OA
ATOM     11  O   UNL     1       8.225   6.975  18.877  0.00  0.00    +0.000 OA
ENDROOT
BRANCH   1  13
ATOM     12  C   UNL     1       8.530  10.046  18.435  0.00  0.00    +0.000 C 
ATOM     13  C   UNL     1       8.594   8.949  17.665  0.00  0.00    +0.000 C 
BRANCH  12  17
ATOM     14  C   UNL     1      10.752  13.631  17.638  0.00  0.00    +0.000 A 
ATOM     15  C   UNL     1      11.362  12.378  17.590  0.00  0.00    +0.000 A 
ATOM     16  C   UNL     1      10.620  11.215  17.818  0.00  0.00    +0.000 A 
ATOM     17  C   UNL     1       9.256  11.289  18.126  0.00  0.00    +0.000 A 
ATOM     18  C   UNL     1       8.647  12.551  18.150  0.00  0.00    +0.000 A 
ATOM     19  C   UNL     1       9.390  13.713  17.920  0.00  0.00    +0.000 A 
BRANCH  14  21
ATOM     20  C   UNL     1      10.987  15.845  16.845  0.00  0.00    +0.000 C 
ATOM     21  O   UNL     1      11.584  14.697  17.436  0.00  0.00    +0.000 OA
ENDBRANCH  14  21
ENDBRANCH  12  17
ENDBRANCH   1  13
TORSDOF 3
ENDMDL
MODEL 5
REMARK VINA RESULT:      -8.1      1.586      2.015
REMARK  Name = 
REMARK  4 active torsions:
REMARK  status: ('A' for Active; 'I' for Inactive)
REMARK    1  A    between atoms: C_1  and  O_2
REMARK    2  A    between atoms: O_2  and  C_3
REMARK    3  A    between atoms: C_6  and  C_7
REMARK    4  A    between atoms: C_8  and  C_9
REMARK                            x       y       z     vdW  Elec       q    Type
REMARK                         _______ _______ _______ _____ _____    ______ ____
ROOT
ATOM      1  C   UNL     1       6.965   7.566  17.322  0.00  0.00    +0.000 A 
ATOM      2  N   UNL     1       5.748   7.458  17.739  0.00  0.00    +0.000 NA
ATOM      3  C   UNL     1       5.095   6.254  17.494  0.00  0.00    +0.000 A 
ATOM      4  C   UNL     1       3.767   6.099  17.892  0.00  0.00    +0.000 A 
ATOM      5  C   UNL     1       3.096   4.897  17.657  0.00  0.00    +0.000 A 
ATOM      6  C   UNL     1       3.753   3.840  17.025  0.00  0.00    +0.000 A 
ATOM      7  C   UNL     1       5.083   3.987  16.633  0.00  0.00    +0.000 A 
ATOM      8  C   UNL     1       5.743   5.198  16.872  0.00  0.00    +0.000 A 
ATOM      9  C   UNL     1       7.142   5.396  16.480  0.00  0.00    +0.000 A 
ATOM     10  O   UNL     1       7.788   4.481  15.978  0.00  0.00    +0.000 OA
ATOM     11  O   UNL     1       7.683   6.621  16.679  0.00  0.00    +0.000 OA
ENDROOT
BRANCH   1  13
ATOM     12  C   UNL     1       8.629   8.934  18.590  0.00  0.00    +0.000 C 
ATOM     13  C   UNL     1       7.757   8.784  17.582  0.00  0.00    +0.000 C 
BRANCH  12  17
ATOM     14  C   UNL     1      10.433  12.701  19.579  0.00  0.00    +0.000 A 
ATOM     15  C   UNL     1       9.961  11.844  20.573  0.00  0.00    +0.000 A 
ATOM     16  C   UNL     1       9.406  10.605  20.239  0.00  0.00    +0.000 A 
ATOM     17  C   UNL     1       9.289  10.213  18.900  0.00  0.00    +0.000 A 
ATOM     18  C   UNL     1       9.787  11.071  17.910  0.00  0.00    +0.000 A 
ATOM     19  C   UNL     1      10.343  12.311  18.245  0.00  0.00    +0.000 A 
BRANCH  14  21
ATOM     20  C   UNL     1      11.005  14.931  19.043  0.00  0.00    +0.000 C 
ATOM     21  O   UNL     1      10.919  13.901  20.021  0.00  0.00    +0.000 OA
ENDBRANCH  14  21
ENDBRANCH  12  17
ENDBRANCH   1  13
TORSDOF 3
ENDMDL
MODEL 6
REMARK VINA RESULT:      -8.1      1.604      2.294
REMARK  Name = 
REMARK  4 active torsions:
REMARK  status: ('A' for Active; 'I' for Inactive)
REMARK    1  A    between atoms: C_1  and  O_2
REMARK    2  A    between atoms: O_2  and  C_3
REMARK    3  A    between atoms: C_6  and  C_7
REMARK    4  A    between atoms: C_8  and  C_9
REMARK                            x       y       z     vdW  Elec       q    Type
REMARK                         _______ _______ _______ _____ _____    ______ ____
ROOT
ATOM      1  C   UNL     1       7.457   6.999  17.871  0.00  0.00    +0.000 A 
ATOM      2  N   UNL     1       6.602   6.382  18.616  0.00  0.00    +0.000 NA
ATOM      3  C   UNL     1       5.862   5.363  18.025  0.00  0.00    +0.000 A 
ATOM      4  C   UNL     1       4.898   4.690  18.776  0.00  0.00    +0.000 A 
ATOM      5  C   UNL     1       4.147   3.661  18.201  0.00  0.00    +0.000 A 
ATOM      6  C   UNL     1       4.361   3.298  16.871  0.00  0.00    +0.000 A 
ATOM      7  C   UNL     1       5.328   3.962  16.119  0.00  0.00    +0.000 A 
ATOM      8  C   UNL     1       6.072   4.992  16.706  0.00  0.00    +0.000 A 
ATOM      9  C   UNL     1       7.102   5.716  15.954  0.00  0.00    +0.000 A 
ATOM     10  O   UNL     1       7.376   5.398  14.800  0.00  0.00    +0.000 OA
ATOM     11  O   UNL     1       7.723   6.748  16.572  0.00  0.00    +0.000 OA
ENDROOT
BRANCH   1  13
ATOM     12  C   UNL     1       8.293   9.348  18.058  0.00  0.00    +0.000 C 
ATOM     13  C   UNL     1       8.326   8.057  18.422  0.00  0.00    +0.000 C 
BRANCH  12  17
ATOM     14  C   UNL     1      11.041  12.308  19.509  0.00  0.00    +0.000 A 
ATOM     15  C   UNL     1      10.294  11.525  20.388  0.00  0.00    +0.000 A 
ATOM     16  C   UNL     1       9.427  10.540  19.903  0.00  0.00    +0.000 A 
ATOM     17  C   UNL     1       9.273  10.342  18.526  0.00  0.00    +0.000 A 
ATOM     18  C   UNL     1      10.045  11.118  17.651  0.00  0.00    +0.000 A 
ATOM     19  C   UNL     1      10.913  12.102  18.137  0.00  0.00    +0.000 A 
BRANCH  14  21
ATOM     20  C   UNL     1      11.672  14.584  19.590  0.00  0.00    +0.000 C 
ATOM     21  O   UNL     1      11.825  13.263  20.095  0.00  0.00    +0.000 OA
ENDBRANCH  14  21
ENDBRANCH  12  17
ENDBRANCH   1  13
TORSDOF 3
ENDMDL
MODEL 7
REMARK VINA RESULT:      -8.0      1.368      1.592
REMARK  Name = 
REMARK  4 active torsions:
REMARK  status: ('A' for Active; 'I' for Inactive)
REMARK    1  A    between atoms: C_1  and  O_2
REMARK    2  A    between atoms: O_2  and  C_3
REMARK    3  A    between atoms: C_6  and  C_7
REMARK    4  A    between atoms: C_8  and  C_9
REMARK                            x       y       z     vdW  Elec       q    Type
REMARK                         _______ _______ _______ _____ _____    ______ ____
ROOT
ATOM      1  C   UNL     1       7.678   6.824  17.955  0.00  0.00    +0.000 A 
ATOM      2  N   UNL     1       7.549   6.710  16.675  0.00  0.00    +0.000 NA
ATOM      3  C   UNL     1       6.794   5.640  16.205  0.00  0.00    +0.000 A 
ATOM      4  C   UNL     1       6.654   5.450  14.830  0.00  0.00    +0.000 A 
ATOM      5  C   UNL     1       5.898   4.383  14.339  0.00  0.00    +0.000 A 
ATOM      6  C   UNL     1       5.272   3.503  15.223  0.00  0.00    +0.000 A 
ATOM      7  C   UNL     1       5.402   3.694  16.598  0.00  0.00    +0.000 A 
ATOM      8  C   UNL     1       6.165   4.765  17.077  0.00  0.00    +0.000 A 
ATOM      9  C   UNL     1       6.326   5.006  18.514  0.00  0.00    +0.000 A 
ATOM     10  O   UNL     1       5.748   4.302  19.337  0.00  0.00    +0.000 OA
ATOM     11  O   UNL     1       7.141   6.018  18.894  0.00  0.00    +0.000 OA
ENDROOT
BRANCH   1  13
ATOM     12  C   UNL     1       8.316   9.234  18.152  0.00  0.00    +0.000 C 
ATOM     13  C   UNL     1       8.415   7.957  18.550  0.00  0.00    +0.000 C 
BRANCH  12  17
ATOM     14  C   UNL     1      10.938  12.308  19.599  0.00  0.00    +0.000 A 
ATOM     15  C   UNL     1      10.831  12.034  18.236  0.00  0.00    +0.000 A 
ATOM     16  C   UNL     1       9.947  11.053  17.775  0.00  0.00    +0.000 A 
ATOM     17  C   UNL     1       9.175  10.309  18.675  0.00  0.00    +0.000 A 
ATOM     18  C   UNL     1       9.273  10.608  20.041  0.00  0.00    +0.000 A 
ATOM     19  C   UNL     1      10.157  11.590  20.501  0.00  0.00    +0.000 A 
BRANCH  14  21
ATOM     20  C   UNL     1      11.354  14.577  20.115  0.00  0.00    +0.000 C 
ATOM     21  O   UNL     1      11.861  13.260  19.935  0.00  0.00    +0.000 OA
ENDBRANCH  14  21
ENDBRANCH  12  17
ENDBRANCH   1  13
TORSDOF 3
ENDMDL
MODEL 8
REMARK VINA RESULT:      -7.9      1.461      1.908
REMARK  Name = 
REMARK  4 active torsions:
REMARK  status: ('A' for Active; 'I' for Inactive)
REMARK    1  A    between atoms: C_1  and  O_2
REMARK    2  A    between atoms: O_2  and  C_3
REMARK    3  A    between atoms: C_6  and  C_7
REMARK    4  A    between atoms: C_8  and  C_9
REMARK                            x       y       z     vdW  Elec       q    Type
REMARK                         _______ _______ _______ _____ _____    ______ ____
ROOT
ATOM      1  C   UNL     1       7.675   6.849  17.928  0.00  0.00    +0.000 A 
ATOM      2  N   UNL     1       7.627   6.689  16.648  0.00  0.00    +0.000 NA
ATOM      3  C   UNL     1       6.913   5.595  16.170  0.00  0.00    +0.000 A 
ATOM      4  C   UNL     1       6.861   5.356  14.796  0.00  0.00    +0.000 A 
ATOM      5  C   UNL     1       6.147   4.264  14.297  0.00  0.00    +0.000 A 
ATOM      6  C   UNL     1       5.475   3.408  15.171  0.00  0.00    +0.000 A 
ATOM      7  C   UNL     1       5.517   3.648  16.543  0.00  0.00    +0.000 A 
ATOM      8  C   UNL     1       6.238   4.743  17.031  0.00  0.00    +0.000 A 
ATOM      9  C   UNL     1       6.308   5.035  18.466  0.00  0.00    +0.000 A 
ATOM     10  O   UNL     1       5.686   4.353  19.276  0.00  0.00    +0.000 OA
ATOM     11  O   UNL     1       7.088   6.069  18.860  0.00  0.00    +0.000 OA
ENDROOT
BRANCH   1  13
ATOM     12  C   UNL     1       8.331   9.259  18.041  0.00  0.00    +0.000 C 
ATOM     13  C   UNL     1       8.363   8.010  18.528  0.00  0.00    +0.000 C 
BRANCH  12  17
ATOM     14  C   UNL     1      10.594  12.494  19.725  0.00  0.00    +0.000 A 
ATOM     15  C   UNL     1      10.007  11.525  20.538  0.00  0.00    +0.000 A 
ATOM     16  C   UNL     1       9.300  10.457  19.975  0.00  0.00    +0.000 A 
ATOM     17  C   UNL     1       9.147  10.357  18.587  0.00  0.00    +0.000 A 
ATOM     18  C   UNL     1       9.760  11.323  17.778  0.00  0.00    +0.000 A 
ATOM     19  C   UNL     1      10.467  12.390  18.342  0.00  0.00    +0.000 A 
BRANCH  14  21
ATOM     20  C   UNL     1      10.390  14.344  21.181  0.00  0.00    +0.000 C 
ATOM     21  O   UNL     1      11.226  13.511  20.387  0.00  0.00    +0.000 OA
ENDBRANCH  14  21
ENDBRANCH  12  17
ENDBRANCH   1  13
TORSDOF 3
ENDMDL
MODEL 9
REMARK VINA RESULT:      -7.8      1.056      1.186
REMARK  Name = 
REMARK  4 active torsions:
REMARK  status: ('A' for Active; 'I' for Inactive)
REMARK    1  A    between atoms: C_1  and  O_2
REMARK    2  A    between atoms: O_2  and  C_3
REMARK    3  A    between atoms: C_6  and  C_7
REMARK    4  A    between atoms: C_8  and  C_9
REMARK                            x       y       z     vdW  Elec       q    Type
REMARK                         _______ _______ _______ _____ _____    ______ ____
ROOT
ATOM      1  C   UNL     1       8.076   8.065  18.101  0.00  0.00    +0.000 A 
ATOM      2  N   UNL     1       7.149   7.936  17.213  0.00  0.00    +0.000 NA
ATOM      3  C   UNL     1       6.475   6.719  17.168  0.00  0.00    +0.000 A 
ATOM      4  C   UNL     1       5.489   6.515  16.202  0.00  0.00    +0.000 A 
ATOM      5  C   UNL     1       4.801   5.301  16.143  0.00  0.00    +0.000 A 
ATOM      6  C   UNL     1       5.092   4.286  17.055  0.00  0.00    +0.000 A 
ATOM      7  C   UNL     1       6.070   4.488  18.027  0.00  0.00    +0.000 A 
ATOM      8  C   UNL     1       6.755   5.708  18.074  0.00  0.00    +0.000 A 
ATOM      9  C   UNL     1       7.789   5.965  19.080  0.00  0.00    +0.000 A 
ATOM     10  O   UNL     1       8.044   5.133  19.946  0.00  0.00    +0.000 OA
ATOM     11  O   UNL     1       8.456   7.142  19.010  0.00  0.00    +0.000 OA
ENDROOT
BRANCH   1  13
ATOM     12  C   UNL     1       8.391  10.528  17.809  0.00  0.00    +0.000 C 
ATOM     13  C   UNL     1       8.809   9.337  18.262  0.00  0.00    +0.000 C 
BRANCH  12  17
ATOM     14  C   UNL     1      10.717  14.135  17.852  0.00  0.00    +0.000 A 
ATOM     15  C   UNL     1       9.327  14.172  17.955  0.00  0.00    +0.000 A 
ATOM     16  C   UNL     1       8.583  12.987  17.974  0.00  0.00    +0.000 A 
ATOM     17  C   UNL     1       9.218  11.745  17.863  0.00  0.00    +0.000 A 
ATOM     18  C   UNL     1      10.617  11.718  17.783  0.00  0.00    +0.000 A 
ATOM     19  C   UNL     1      11.360  12.903  17.765  0.00  0.00    +0.000 A 
BRANCH  14  21
ATOM     20  C   UNL     1      10.695  16.341  17.004  0.00  0.00    +0.000 C 
ATOM     21  O   UNL     1      11.334  15.355  17.805  0.00  0.00    +0.000 OA
ENDBRANCH  14  21
ENDBRANCH  12  17
ENDBRANCH   1  13
TORSDOF 3
ENDMDL
