MODEL 1
REMARK VINA RESULT:      -7.0      0.000      0.000
REMARK  Name = 
REMARK  7 active torsions:
REMARK  status: ('A' for Active; 'I' for Inactive)
REMARK    1  A    between atoms: C_1  and  C_2
REMARK    2  A    between atoms: C_4  and  C_5
REMARK    3  A    between atoms: C_7  and  O_8
REMARK    4  A    between atoms: O_8  and  C_9
REMARK    5  A    between atoms: C_9  and  N_10
REMARK    6  A    between atoms: C_13  and  C_14
REMARK    7  A    between atoms: C_14  and  O_16
REMARK                            x       y       z     vdW  Elec       q    Type
REMARK                         _______ _______ _______ _____ _____    ______ ____
ROOT
ATOM      1  C   UNL     1       4.336   3.341  17.101  0.00  0.00    +0.000 C 
ENDROOT
BRANCH   1   2
ATOM      2  N   UNL     1       5.378   4.351  17.319  0.00  0.00    +0.000 N 
ATOM      3  C   UNL     1       5.717   5.353  16.452  0.00  0.00    +0.000 A 
ATOM      4  C   UNL     1       6.694   6.090  17.075  0.00  0.00    +0.000 A 
ATOM      5  C   UNL     1       6.880   5.474  18.335  0.00  0.00    +0.000 A 
ATOM      6  N   UNL     1       6.058   4.413  18.496  0.00  0.00    +0.000 NA
BRANCH   5   7
ATOM      7  C   UNL     1       7.818   5.877  19.392  0.00  0.00    +0.000 C 
ATOM      8  O   UNL     1       7.977   5.270  20.445  0.00  0.00    +0.000 OA
BRANCH   7   9
ATOM      9  O   UNL     1       8.505   7.008  19.075  0.00  0.00    +0.000 OA
ATOM     10  H   UNL     1       9.460   6.782  19.158  0.00  0.00    +0.000 HD
ENDBRANCH   7   9
ENDBRANCH   5   7
ENDBRANCH   1   2
BRANCH   1  11
ATOM     11  O   UNL     1       3.068   3.997  17.056  0.00  0.00    +0.000 OA
BRANCH  11  18
ATOM     12  C   UNL     1       1.914   7.625  20.259  0.00  0.00    +0.000 C 
ATOM     13  C   UNL     1       2.020   6.174  19.886  0.00  0.00    +0.000 A 
ATOM     14  C   UNL     1       1.677   5.175  20.805  0.00  0.00    +0.000 A 
ATOM     15  C   UNL     1       1.796   3.823  20.466  0.00  0.00    +0.000 A 
ATOM     16  C   UNL     1       1.431   2.746  21.446  0.00  0.00    +0.000 C 
ATOM     17  C   UNL     1       2.266   3.479  19.190  0.00  0.00    +0.000 A 
ATOM     18  C   UNL     1       2.596   4.464  18.255  0.00  0.00    +0.000 A 
ATOM     19  C   UNL     1       2.482   5.810  18.610  0.00  0.00    +0.000 A 
ENDBRANCH  11  18
ENDBRANCH   1  11
TORSDOF 5
ENDMDL
MODEL 2
REMARK VINA RESULT:      -6.9      0.242      2.046
REMARK  Name = 
REMARK  7 active torsions:
REMARK  status: ('A' for Active; 'I' for Inactive)
REMARK    1  A    between atoms: C_1  and  C_2
REMARK    2  A    between atoms: C_4  and  C_5
REMARK    3  A    between atoms: C_7  and  O_8
REMARK    4  A    between atoms: O_8  and  C_9
REMARK    5  A    between atoms: C_9  and  N_10
REMARK    6  A    between atoms: C_13  and  C_14
REMARK    7  A    between atoms: C_14  and  O_16
REMARK                            x       y       z     vdW  Elec       q    Type
REMARK                         _______ _______ _______ _____ _____    ______ ____
ROOT
ATOM      1  C   UNL     1       4.408   3.319  17.101  0.00  0.00    +0.000 C 
ENDROOT
BRANCH   1   2
ATOM      2  N   UNL     1       5.551   4.221  17.278  0.00  0.00    +0.000 N 
ATOM      3  C   UNL     1       6.132   4.981  16.300  0.00  0.00    +0.000 A 
ATOM      4  C   UNL     1       7.125   5.707  16.912  0.00  0.00    +0.000 A 
ATOM      5  C   UNL     1       7.069   5.339  18.277  0.00  0.00    +0.000 A 
ATOM      6  N   UNL     1       6.089   4.437  18.509  0.00  0.00    +0.000 NA
BRANCH   5   7
ATOM      7  C   UNL     1       7.924   5.831  19.366  0.00  0.00    +0.000 C 
ATOM      8  O   UNL     1       8.139   5.221  20.407  0.00  0.00    +0.000 OA
BRANCH   7   9
ATOM      9  O   UNL     1       8.463   7.050  19.094  0.00  0.00    +0.000 OA
ATOM     10  H   UNL     1       7.897   7.710  19.555  0.00  0.00    +0.000 HD
ENDBRANCH   7   9
ENDBRANCH   5   7
ENDBRANCH   1   2
BRANCH   1  11
ATOM     11  O   UNL     1       3.207   4.091  17.148  0.00  0.00    +0.000 OA
BRANCH  11  18
ATOM     12  C   UNL     1       1.355   2.711  21.554  0.00  0.00    +0.000 C 
ATOM     13  C   UNL     1       1.786   3.761  20.571  0.00  0.00    +0.000 A 
ATOM     14  C   UNL     1       1.649   5.121  20.875  0.00  0.00    +0.000 A 
ATOM     15  C   UNL     1       2.030   6.099  19.951  0.00  0.00    +0.000 A 
ATOM     16  C   UNL     1       1.886   7.559  20.269  0.00  0.00    +0.000 C 
ATOM     17  C   UNL     1       2.552   5.701  18.712  0.00  0.00    +0.000 A 
ATOM     18  C   UNL     1       2.712   4.348  18.399  0.00  0.00    +0.000 A 
ATOM     19  C   UNL     1       2.318   3.381  19.327  0.00  0.00    +0.000 A 
ENDBRANCH  11  18
ENDBRANCH   1  11
TORSDOF 5
ENDMDL
MODEL 3
REMARK VINA RESULT:      -6.9      2.745      3.988
REMARK  Name = 
REMARK  7 active torsions:
REMARK  status: ('A' for Active; 'I' for Inactive)
REMARK    1  A    between atoms: C_1  and  C_2
REMARK    2  A    between atoms: C_4  and  C_5
REMARK    3  A    between atoms: C_7  and  O_8
REMARK    4  A    between atoms: O_8  and  C_9
REMARK    5  A    between atoms: C_9  and  N_10
REMARK    6  A    between atoms: C_13  and  C_14
REMARK    7  A    between atoms: C_14  and  O_16
REMARK                            x       y       z     vdW  Elec       q    Type
REMARK                         _______ _______ _______ _____ _____    ______ ____
ROOT
ATOM      1  C   UNL     1       6.371   5.236  17.964  0.00  0.00    +0.000 C 
ENDROOT
BRANCH   1   2
ATOM      2  N   UNL     1       6.402   4.841  16.551  0.00  0.00    +0.000 N 
ATOM      3  C   UNL     1       5.528   3.986  15.937  0.00  0.00    +0.000 A 
ATOM      4  C   UNL     1       5.892   3.944  14.614  0.00  0.00    +0.000 A 
ATOM      5  C   UNL     1       6.995   4.823  14.501  0.00  0.00    +0.000 A 
ATOM      6  N   UNL     1       7.300   5.392  15.690  0.00  0.00    +0.000 NA
BRANCH   5   7
ATOM      7  C   UNL     1       7.760   5.139  13.287  0.00  0.00    +0.000 C 
ATOM      8  O   UNL     1       7.512   4.685  12.176  0.00  0.00    +0.000 OA
BRANCH   7   9
ATOM      9  O   UNL     1       8.783   6.004  13.526  0.00  0.00    +0.000 OA
ATOM     10  H   UNL     1       8.879   6.051  14.504  0.00  0.00    +0.000 HD
ENDBRANCH   7   9
ENDBRANCH   5   7
ENDBRANCH   1   2
BRANCH   1  11
ATOM     11  O   UNL     1       5.840   4.152  18.728  0.00  0.00    +0.000 OA
BRANCH  11  18
ATOM     12  C   UNL     1       1.673   2.615  20.969  0.00  0.00    +0.000 C 
ATOM     13  C   UNL     1       2.520   3.685  20.341  0.00  0.00    +0.000 A 
ATOM     14  C   UNL     1       2.038   4.993  20.218  0.00  0.00    +0.000 A 
ATOM     15  C   UNL     1       2.818   5.985  19.614  0.00  0.00    +0.000 A 
ATOM     16  C   UNL     1       2.309   7.391  19.476  0.00  0.00    +0.000 C 
ATOM     17  C   UNL     1       4.092   5.652  19.132  0.00  0.00    +0.000 A 
ATOM     18  C   UNL     1       4.595   4.354  19.263  0.00  0.00    +0.000 A 
ATOM     19  C   UNL     1       3.802   3.371  19.859  0.00  0.00    +0.000 A 
ENDBRANCH  11  18
ENDBRANCH   1  11
TORSDOF 5
ENDMDL
MODEL 4
REMARK VINA RESULT:      -6.9      2.751      3.434
REMARK  Name = 
REMARK  7 active torsions:
REMARK  status: ('A' for Active; 'I' for Inactive)
REMARK    1  A    between atoms: C_1  and  C_2
REMARK    2  A    between atoms: C_4  and  C_5
REMARK    3  A    between atoms: C_7  and  O_8
REMARK    4  A    between atoms: O_8  and  C_9
REMARK    5  A    between atoms: C_9  and  N_10
REMARK    6  A    between atoms: C_13  and  C_14
REMARK    7  A    between atoms: C_14  and  O_16
REMARK                            x       y       z     vdW  Elec       q    Type
REMARK                         _______ _______ _______ _____ _____    ______ ____
ROOT
ATOM      1  C   UNL     1       6.036   5.208  17.734  0.00  0.00    +0.000 C 
ENDROOT
BRANCH   1   2
ATOM      2  N   UNL     1       6.279   4.804  16.345  0.00  0.00    +0.000 N 
ATOM      3  C   UNL     1       5.617   3.815  15.669  0.00  0.00    +0.000 A 
ATOM      4  C   UNL     1       6.122   3.813  14.393  0.00  0.00    +0.000 A 
ATOM      5  C   UNL     1       7.083   4.852  14.369  0.00  0.00    +0.000 A 
ATOM      6  N   UNL     1       7.168   5.477  15.565  0.00  0.00    +0.000 NA
BRANCH   5   7
ATOM      7  C   UNL     1       7.915   5.267  13.231  0.00  0.00    +0.000 C 
ATOM      8  O   UNL     1       8.901   5.990  13.323  0.00  0.00    +0.000 OA
BRANCH   7   9
ATOM      9  O   UNL     1       7.476   4.754  12.050  0.00  0.00    +0.000 OA
ATOM     10  H   UNL     1       7.131   3.855  12.252  0.00  0.00    +0.000 HD
ENDBRANCH   7   9
ENDBRANCH   5   7
ENDBRANCH   1   2
BRANCH   1  11
ATOM     11  O   UNL     1       5.283   4.182  18.382  0.00  0.00    +0.000 OA
BRANCH  11  18
ATOM     12  C   UNL     1       1.976   7.623  19.788  0.00  0.00    +0.000 C 
ATOM     13  C   UNL     1       2.519   6.222  19.811  0.00  0.00    +0.000 A 
ATOM     14  C   UNL     1       1.919   5.239  20.607  0.00  0.00    +0.000 A 
ATOM     15  C   UNL     1       2.438   3.940  20.645  0.00  0.00    +0.000 A 
ATOM     16  C   UNL     1       1.801   2.879  21.495  0.00  0.00    +0.000 C 
ATOM     17  C   UNL     1       3.569   3.635  19.875  0.00  0.00    +0.000 A 
ATOM     18  C   UNL     1       4.169   4.600  19.062  0.00  0.00    +0.000 A 
ATOM     19  C   UNL     1       3.648   5.896  19.041  0.00  0.00    +0.000 A 
ENDBRANCH  11  18
ENDBRANCH   1  11
TORSDOF 5
ENDMDL
MODEL 5
REMARK VINA RESULT:      -6.8      3.408      5.036
REMARK  Name = 
REMARK  7 active torsions:
REMARK  status: ('A' for Active; 'I' for Inactive)
REMARK    1  A    between atoms: C_1  and  C_2
REMARK    2  A    between atoms: C_4  and  C_5
REMARK    3  A    between atoms: C_7  and  O_8
REMARK    4  A    between atoms: O_8  and  C_9
REMARK    5  A    between atoms: C_9  and  N_10
REMARK    6  A    between atoms: C_13  and  C_14
REMARK    7  A    between atoms: C_14  and  O_16
REMARK                            x       y       z     vdW  Elec       q    Type
REMARK                         _______ _______ _______ _____ _____    ______ ____
ROOT
ATOM      1  C   UNL     1       6.828   5.084  15.785  0.00  0.00    +0.000 C 
ENDROOT
BRANCH   1   2
ATOM      2  N   UNL     1       6.782   4.675  14.377  0.00  0.00    +0.000 N 
ATOM      3  C   UNL     1       7.650   5.072  13.397  0.00  0.00    +0.000 A 
ATOM      4  C   UNL     1       7.273   4.413  12.253  0.00  0.00    +0.000 A 
ATOM      5  C   UNL     1       6.167   3.614  12.631  0.00  0.00    +0.000 A 
ATOM      6  N   UNL     1       5.874   3.760  13.943  0.00  0.00    +0.000 NA
BRANCH   5   7
ATOM      7  C   UNL     1       5.388   2.711  11.772  0.00  0.00    +0.000 C 
ATOM      8  O   UNL     1       4.293   2.983  11.295  0.00  0.00    +0.000 OA
BRANCH   7   9
ATOM      9  O   UNL     1       6.020   1.526  11.555  0.00  0.00    +0.000 OA
ATOM     10  H   UNL     1       5.330   0.901  11.237  0.00  0.00    +0.000 HD
ENDBRANCH   7   9
ENDBRANCH   5   7
ENDBRANCH   1   2
BRANCH   1  11
ATOM     11  O   UNL     1       6.016   4.188  16.546  0.00  0.00    +0.000 OA
BRANCH  11  18
ATOM     12  C   UNL     1       3.011   7.923  17.877  0.00  0.00    +0.000 C 
ATOM     13  C   UNL     1       3.298   6.461  17.680  0.00  0.00    +0.000 A 
ATOM     14  C   UNL     1       2.339   5.497  18.010  0.00  0.00    +0.000 A 
ATOM     15  C   UNL     1       2.613   4.135  17.847  0.00  0.00    +0.000 A 
ATOM     16  C   UNL     1       1.591   3.093  18.199  0.00  0.00    +0.000 C 
ATOM     17  C   UNL     1       3.864   3.747  17.347  0.00  0.00    +0.000 A 
ATOM     18  C   UNL     1       4.826   4.698  16.995  0.00  0.00    +0.000 A 
ATOM     19  C   UNL     1       4.543   6.054  17.174  0.00  0.00    +0.000 A 
ENDBRANCH  11  18
ENDBRANCH   1  11
TORSDOF 5
ENDMDL
MODEL 6
REMARK VINA RESULT:      -6.6      2.302      3.137
REMARK  Name = 
REMARK  7 active torsions:
REMARK  status: ('A' for Active; 'I' for Inactive)
REMARK    1  A    between atoms: C_1  and  C_2
REMARK    2  A    between atoms: C_4  and  C_5
REMARK    3  A    between atoms: C_7  and  O_8
REMARK    4  A    between atoms: O_8  and  C_9
REMARK    5  A    between atoms: C_9  and  N_10
REMARK    6  A    between atoms: C_13  and  C_14
REMARK    7  A    between atoms: C_14  and  O_16
REMARK                            x       y       z     vdW  Elec       q    Type
REMARK                         _______ _______ _______ _____ _____    ______ ____
ROOT
ATOM      1  C   UNL     1       6.022   5.025  19.006  0.00  0.00    +0.000 C 
ENDROOT
BRANCH   1   2
ATOM      2  N   UNL     1       5.909   5.303  17.569  0.00  0.00    +0.000 N 
ATOM      3  C   UNL     1       5.098   6.243  16.995  0.00  0.00    +0.000 A 
ATOM      4  C   UNL     1       5.347   6.198  15.645  0.00  0.00    +0.000 A 
ATOM      5  C   UNL     1       6.344   5.206  15.483  0.00  0.00    +0.000 A 
ATOM      6  N   UNL     1       6.705   4.666  16.668  0.00  0.00    +0.000 NA
BRANCH   5   7
ATOM      7  C   UNL     1       6.964   4.767  14.225  0.00  0.00    +0.000 C 
ATOM      8  O   UNL     1       7.831   5.394  13.626  0.00  0.00    +0.000 OA
BRANCH   7   9
ATOM      9  O   UNL     1       6.472   3.576  13.790  0.00  0.00    +0.000 OA
ATOM     10  H   UNL     1       5.518   3.567  14.032  0.00  0.00    +0.000 HD
ENDBRANCH   7   9
ENDBRANCH   5   7
ENDBRANCH   1   2
BRANCH   1  11
ATOM     11  O   UNL     1       5.212   3.891  19.316  0.00  0.00    +0.000 OA
BRANCH  11  18
ATOM     12  C   UNL     1       1.415   6.697  20.883  0.00  0.00    +0.000 C 
ATOM     13  C   UNL     1       1.967   5.446  20.262  0.00  0.00    +0.000 A 
ATOM     14  C   UNL     1       1.113   4.404  19.880  0.00  0.00    +0.000 A 
ATOM     15  C   UNL     1       1.629   3.230  19.322  0.00  0.00    +0.000 A 
ATOM     16  C   UNL     1       0.721   2.107  18.909  0.00  0.00    +0.000 C 
ATOM     17  C   UNL     1       3.015   3.108  19.149  0.00  0.00    +0.000 A 
ATOM     18  C   UNL     1       3.880   4.145  19.509  0.00  0.00    +0.000 A 
ATOM     19  C   UNL     1       3.353   5.308  20.075  0.00  0.00    +0.000 A 
ENDBRANCH  11  18
ENDBRANCH   1  11
TORSDOF 5
ENDMDL
MODEL 7
REMARK VINA RESULT:      -6.6      0.915      2.444
REMARK  Name = 
REMARK  7 active torsions:
REMARK  status: ('A' for Active; 'I' for Inactive)
REMARK    1  A    between atoms: C_1  and  C_2
REMARK    2  A    between atoms: C_4  and  C_5
REMARK    3  A    between atoms: C_7  and  O_8
REMARK    4  A    between atoms: O_8  and  C_9
REMARK    5  A    between atoms: C_9  and  N_10
REMARK    6  A    between atoms: C_13  and  C_14
REMARK    7  A    between atoms: C_14  and  O_16
REMARK                            x       y       z     vdW  Elec       q    Type
REMARK                         _______ _______ _______ _____ _____    ______ ____
ROOT
ATOM      1  C   UNL     1       4.268   3.145  17.064  0.00  0.00    +0.000 C 
ENDROOT
BRANCH   1   2
ATOM      2  N   UNL     1       5.347   4.072  16.702  0.00  0.00    +0.000 N 
ATOM      3  C   UNL     1       5.924   4.188  15.468  0.00  0.00    +0.000 A 
ATOM      4  C   UNL     1       6.843   5.204  15.564  0.00  0.00    +0.000 A 
ATOM      5  C   UNL     1       6.748   5.668  16.897  0.00  0.00    +0.000 A 
ATOM      6  N   UNL     1       5.814   4.985  17.596  0.00  0.00    +0.000 NA
BRANCH   5   7
ATOM      7  C   UNL     1       7.522   6.752  17.518  0.00  0.00    +0.000 C 
ATOM      8  O   UNL     1       7.723   7.844  16.999  0.00  0.00    +0.000 OA
BRANCH   7   9
ATOM      9  O   UNL     1       7.997   6.415  18.748  0.00  0.00    +0.000 OA
ATOM     10  H   UNL     1       8.570   7.162  19.036  0.00  0.00    +0.000 HD
ENDBRANCH   7   9
ENDBRANCH   5   7
ENDBRANCH   1   2
BRANCH   1  11
ATOM     11  O   UNL     1       3.043   3.876  17.131  0.00  0.00    +0.000 OA
BRANCH  11  18
ATOM     12  C   UNL     1       1.339   2.730  21.662  0.00  0.00    +0.000 C 
ATOM     13  C   UNL     1       1.758   3.727  20.619  0.00  0.00    +0.000 A 
ATOM     14  C   UNL     1       1.672   5.101  20.873  0.00  0.00    +0.000 A 
ATOM     15  C   UNL     1       2.042   6.030  19.894  0.00  0.00    +0.000 A 
ATOM     16  C   UNL     1       1.953   7.505  20.156  0.00  0.00    +0.000 C 
ATOM     17  C   UNL     1       2.500   5.566  18.653  0.00  0.00    +0.000 A 
ATOM     18  C   UNL     1       2.609   4.198  18.390  0.00  0.00    +0.000 A 
ATOM     19  C   UNL     1       2.226   3.281  19.372  0.00  0.00    +0.000 A 
ENDBRANCH  11  18
ENDBRANCH   1  11
TORSDOF 5
ENDMDL
MODEL 8
REMARK VINA RESULT:      -6.6      3.078      4.470
REMARK  Name = 
REMARK  7 active torsions:
REMARK  status: ('A' for Active; 'I' for Inactive)
REMARK    1  A    between atoms: C_1  and  C_2
REMARK    2  A    between atoms: C_4  and  C_5
REMARK    3  A    between atoms: C_7  and  O_8
REMARK    4  A    between atoms: O_8  and  C_9
REMARK    5  A    between atoms: C_9  and  N_10
REMARK    6  A    between atoms: C_13  and  C_14
REMARK    7  A    between atoms: C_14  and  O_16
REMARK                            x       y       z     vdW  Elec       q    Type
REMARK                         _______ _______ _______ _____ _____    ______ ____
ROOT
ATOM      1  C   UNL     1       6.970   4.730  17.626  0.00  0.00    +0.000 C 
ENDROOT
BRANCH   1   2
ATOM      2  N   UNL     1       6.779   4.507  16.188  0.00  0.00    +0.000 N 
ATOM      3  C   UNL     1       5.775   3.776  15.616  0.00  0.00    +0.000 A 
ATOM      4  C   UNL     1       5.948   3.876  14.257  0.00  0.00    +0.000 A 
ATOM      5  C   UNL     1       7.080   4.708  14.086  0.00  0.00    +0.000 A 
ATOM      6  N   UNL     1       7.583   5.114  15.273  0.00  0.00    +0.000 NA
BRANCH   5   7
ATOM      7  C   UNL     1       7.688   5.131  12.816  0.00  0.00    +0.000 C 
ATOM      8  O   UNL     1       8.434   6.096  12.694  0.00  0.00    +0.000 OA
BRANCH   7   9
ATOM      9  O   UNL     1       7.336   4.327  11.777  0.00  0.00    +0.000 OA
ATOM     10  H   UNL     1       8.160   4.165  11.264  0.00  0.00    +0.000 HD
ENDBRANCH   7   9
ENDBRANCH   5   7
ENDBRANCH   1   2
BRANCH   1  11
ATOM     11  O   UNL     1       6.453   6.020  17.959  0.00  0.00    +0.000 OA
BRANCH  11  18
ATOM     12  C   UNL     1       2.648   4.231  20.618  0.00  0.00    +0.000 C 
ATOM     13  C   UNL     1       3.244   5.229  19.667  0.00  0.00    +0.000 A 
ATOM     14  C   UNL     1       2.458   6.254  19.126  0.00  0.00    +0.000 A 
ATOM     15  C   UNL     1       3.006   7.171  18.224  0.00  0.00    +0.000 A 
ATOM     16  C   UNL     1       2.171   8.272  17.638  0.00  0.00    +0.000 C 
ATOM     17  C   UNL     1       4.357   7.051  17.866  0.00  0.00    +0.000 A 
ATOM     18  C   UNL     1       5.160   6.045  18.411  0.00  0.00    +0.000 A 
ATOM     19  C   UNL     1       4.597   5.129  19.302  0.00  0.00    +0.000 A 
ENDBRANCH  11  18
ENDBRANCH   1  11
TORSDOF 5
ENDMDL
MODEL 9
REMARK VINA RESULT:      -6.6      3.068      4.467
REMARK  Name = 
REMARK  7 active torsions:
REMARK  status: ('A' for Active; 'I' for Inactive)
REMARK    1  A    between atoms: C_1  and  C_2
REMARK    2  A    between atoms: C_4  and  C_5
REMARK    3  A    between atoms: C_7  and  O_8
REMARK    4  A    between atoms: O_8  and  C_9
REMARK    5  A    between atoms: C_9  and  N_10
REMARK    6  A    between atoms: C_13  and  C_14
REMARK    7  A    between atoms: C_14  and  O_16
REMARK                            x       y       z     vdW  Elec       q    Type
REMARK                         _______ _______ _______ _____ _____    ______ ____
ROOT
ATOM      1  C   UNL     1       6.700   4.877  17.548  0.00  0.00    +0.000 C 
ENDROOT
BRANCH   1   2
ATOM      2  N   UNL     1       6.698   4.594  16.108  0.00  0.00    +0.000 N 
ATOM      3  C   UNL     1       5.873   3.712  15.465  0.00  0.00    +0.000 A 
ATOM      4  C   UNL     1       6.175   3.803  14.128  0.00  0.00    +0.000 A 
ATOM      5  C   UNL     1       7.192   4.783  14.041  0.00  0.00    +0.000 A 
ATOM      6  N   UNL     1       7.503   5.286  15.257  0.00  0.00    +0.000 NA
BRANCH   5   7
ATOM      7  C   UNL     1       7.868   5.257  12.825  0.00  0.00    +0.000 C 
ATOM      8  O   UNL     1       7.523   4.968  11.685  0.00  0.00    +0.000 OA
BRANCH   7   9
ATOM      9  O   UNL     1       8.928   6.063  13.099  0.00  0.00    +0.000 OA
ATOM     10  H   UNL     1       8.915   6.214  14.072  0.00  0.00    +0.000 HD
ENDBRANCH   7   9
ENDBRANCH   5   7
ENDBRANCH   1   2
BRANCH   1  11
ATOM     11  O   UNL     1       6.059   6.135  17.765  0.00  0.00    +0.000 OA
BRANCH  11  18
ATOM     12  C   UNL     1       1.834   3.751  18.867  0.00  0.00    +0.000 C 
ATOM     13  C   UNL     1       2.595   4.994  18.505  0.00  0.00    +0.000 A 
ATOM     14  C   UNL     1       1.927   6.210  18.317  0.00  0.00    +0.000 A 
ATOM     15  C   UNL     1       2.633   7.362  17.958  0.00  0.00    +0.000 A 
ATOM     16  C   UNL     1       1.925   8.670  17.754  0.00  0.00    +0.000 C 
ATOM     17  C   UNL     1       4.023   7.285  17.788  0.00  0.00    +0.000 A 
ATOM     18  C   UNL     1       4.708   6.084  17.989  0.00  0.00    +0.000 A 
ATOM     19  C   UNL     1       3.989   4.938  18.337  0.00  0.00    +0.000 A 
ENDBRANCH  11  18
ENDBRANCH   1  11
TORSDOF 5
ENDMDL
