MODEL 1
REMARK VINA RESULT:      -8.4      0.000      0.000
REMARK  Name = 
REMARK  8 active torsions:
REMARK  status: ('A' for Active; 'I' for Inactive)
REMARK    1  A    between atoms: C_2  and  C_3
REMARK    2  A    between atoms: C_3  and  N_4
REMARK    3  A    between atoms: C_5  and  C_7
REMARK    4  A    between atoms: N_14  and  N_15
REMARK    5  A    between atoms: C_16  and  C_17
REMARK    6  A    between atoms: C_20  and  O_21
REMARK    7  A    between atoms: O_21  and  C_22
REMARK    8  A    between atoms: C_22  and  C_23
REMARK                            x       y       z     vdW  Elec       q    Type
REMARK                         _______ _______ _______ _____ _____    ______ ____
ROOT
ATOM      1  N   UNL     1       5.312   6.793  16.903  0.00  0.00    +0.000 NA
ATOM      2  C   UNL     1       4.133   7.285  16.676  0.00  0.00    +0.000 C 
ENDROOT
BRANCH   2   3
ATOM      3  C   UNL     1       3.225   7.632  17.788  0.00  0.00    +0.000 A 
ATOM      4  C   UNL     1       2.433   8.766  17.703  0.00  0.00    +0.000 A 
ATOM      5  C   UNL     1       1.574   9.080  18.758  0.00  0.00    +0.000 A 
ATOM      6  C   UNL     1       1.479   8.260  19.878  0.00  0.00    +0.000 A 
ATOM      7  C   UNL     1       2.301   7.129  19.973  0.00  0.00    +0.000 A 
ATOM      8  C   UNL     1       3.167   6.808  18.917  0.00  0.00    +0.000 A 
BRANCH   6   9
ATOM      9  O   UNL     1       0.585   8.554  20.874  0.00  0.00    +0.000 OA
BRANCH   9  10
ATOM     10  C   UNL     1       1.093   9.506  21.850  0.00  0.00    +0.000 C 
BRANCH  10  11
ATOM     11  C   UNL     1       0.123  10.624  22.127  0.00  0.00    +0.000 A 
ATOM     12  C   UNL     1      -0.929  10.403  23.034  0.00  0.00    +0.000 A 
ATOM     13  C   UNL     1      -1.911  11.373  23.241  0.00  0.00    +0.000 A 
ATOM     14  C   UNL     1      -1.864  12.572  22.542  0.00  0.00    +0.000 A 
ATOM     15  C   UNL     1      -0.833  12.809  21.636  0.00  0.00    +0.000 A 
ATOM     16  C   UNL     1       0.150  11.838  21.423  0.00  0.00    +0.000 A 
ATOM     17 CL   UNL     1       1.365  12.195  20.245  0.00  0.00    +0.000 Cl
ENDBRANCH  10  11
ENDBRANCH   9  10
ENDBRANCH   6   9
ENDBRANCH   2   3
BRANCH   1  20
ATOM     18  O   UNL     1       7.581   5.223  14.738  0.00  0.00    +0.000 OA
ATOM     19  C   UNL     1       6.856   5.400  15.711  0.00  0.00    +0.000 C 
ATOM     20  N   UNL     1       6.071   6.532  15.808  0.00  0.00    +0.000 N 
ATOM     21  H   UNL     1       6.104   7.180  15.030  0.00  0.00    +0.000 HD
BRANCH  19  22
ATOM     22  C   UNL     1       6.862   4.461  16.923  0.00  0.00    +0.000 C 
BRANCH  22  23
ATOM     23  N   UNL     1       5.550   3.898  17.196  0.00  0.00    +0.000 N 
ATOM     24  C   UNL     1       5.049   3.851  18.478  0.00  0.00    +0.000 C 
ATOM     25  O   UNL     1       5.657   4.295  19.451  0.00  0.00    +0.000 OA
ATOM     26  H   UNL     1       5.045   3.480  16.420  0.00  0.00    +0.000 HD
BRANCH  24  27
ATOM     27  C   UNL     1       3.696   3.285  18.684  0.00  0.00    +0.000 A 
ATOM     28  C   UNL     1       2.665   3.723  17.837  0.00  0.00    +0.000 A 
ATOM     29  C   UNL     1       1.370   3.236  18.002  0.00  0.00    +0.000 A 
ATOM     30  C   UNL     1       1.140   2.325  19.017  0.00  0.00    +0.000 A 
ATOM     31  N   UNL     1       2.100   1.886  19.858  0.00  0.00    +0.000 NA
ATOM     32  C   UNL     1       3.353   2.381  19.680  0.00  0.00    +0.000 A 
ATOM     33 CL   UNL     1       4.440   1.797  20.880  0.00  0.00    +0.000 Cl
ENDBRANCH  24  27
ENDBRANCH  22  23
ENDBRANCH  19  22
ENDBRANCH   1  20
TORSDOF 8
ENDMDL
MODEL 2
REMARK VINA RESULT:      -8.1      3.083      4.922
REMARK  Name = 
REMARK  8 active torsions:
REMARK  status: ('A' for Active; 'I' for Inactive)
REMARK    1  A    between atoms: C_2  and  C_3
REMARK    2  A    between atoms: C_3  and  N_4
REMARK    3  A    between atoms: C_5  and  C_7
REMARK    4  A    between atoms: N_14  and  N_15
REMARK    5  A    between atoms: C_16  and  C_17
REMARK    6  A    between atoms: C_20  and  O_21
REMARK    7  A    between atoms: O_21  and  C_22
REMARK    8  A    between atoms: C_22  and  C_23
REMARK                            x       y       z     vdW  Elec       q    Type
REMARK                         _______ _______ _______ _____ _____    ______ ____
ROOT
ATOM      1  N   UNL     1       3.881   5.149  19.820  0.00  0.00    +0.000 NA
ATOM      2  C   UNL     1       2.671   5.513  20.117  0.00  0.00    +0.000 C 
ENDROOT
BRANCH   2   3
ATOM      3  C   UNL     1       2.174   6.860  19.771  0.00  0.00    +0.000 A 
ATOM      4  C   UNL     1       2.309   7.333  18.476  0.00  0.00    +0.000 A 
ATOM      5  C   UNL     1       1.829   8.606  18.160  0.00  0.00    +0.000 A 
ATOM      6  C   UNL     1       1.194   9.394  19.116  0.00  0.00    +0.000 A 
ATOM      7  C   UNL     1       1.084   8.924  20.431  0.00  0.00    +0.000 A 
ATOM      8  C   UNL     1       1.564   7.646  20.755  0.00  0.00    +0.000 A 
BRANCH   6   9
ATOM      9  O   UNL     1       0.677  10.615  18.769  0.00  0.00    +0.000 OA
BRANCH   9  10
ATOM     10  C   UNL     1      -0.609  10.900  19.387  0.00  0.00    +0.000 C 
BRANCH  10  11
ATOM     11  C   UNL     1      -1.757  10.763  18.423  0.00  0.00    +0.000 A 
ATOM     12  C   UNL     1      -1.595   9.958  17.282  0.00  0.00    +0.000 A 
ATOM     13  C   UNL     1      -2.594   9.887  16.308  0.00  0.00    +0.000 A 
ATOM     14  C   UNL     1      -3.763  10.621  16.455  0.00  0.00    +0.000 A 
ATOM     15  C   UNL     1      -3.942  11.428  17.576  0.00  0.00    +0.000 A 
ATOM     16  C   UNL     1      -2.943  11.505  18.551  0.00  0.00    +0.000 A 
ATOM     17 CL   UNL     1      -3.226  12.568  19.885  0.00  0.00    +0.000 Cl
ENDBRANCH  10  11
ENDBRANCH   9  10
ENDBRANCH   6   9
ENDBRANCH   2   3
BRANCH   1  20
ATOM     18  O   UNL     1       4.314   1.672  19.667  0.00  0.00    +0.000 OA
ATOM     19  C   UNL     1       4.054   2.814  19.305  0.00  0.00    +0.000 C 
ATOM     20  N   UNL     1       4.225   3.882  20.164  0.00  0.00    +0.000 N 
ATOM     21  H   UNL     1       4.599   3.675  21.083  0.00  0.00    +0.000 HD
BRANCH  19  22
ATOM     22  C   UNL     1       3.416   3.121  17.945  0.00  0.00    +0.000 C 
BRANCH  22  23
ATOM     23  N   UNL     1       4.406   3.304  16.896  0.00  0.00    +0.000 N 
ATOM     24  C   UNL     1       4.696   4.557  16.402  0.00  0.00    +0.000 C 
ATOM     25  O   UNL     1       4.164   5.583  16.824  0.00  0.00    +0.000 OA
ATOM     26  H   UNL     1       4.826   2.472  16.493  0.00  0.00    +0.000 HD
BRANCH  24  27
ATOM     27  C   UNL     1       5.730   4.676  15.349  0.00  0.00    +0.000 A 
ATOM     28  C   UNL     1       5.528   3.977  14.148  0.00  0.00    +0.000 A 
ATOM     29  C   UNL     1       6.481   4.040  13.133  0.00  0.00    +0.000 A 
ATOM     30  C   UNL     1       7.617   4.800  13.351  0.00  0.00    +0.000 A 
ATOM     31  N   UNL     1       7.852   5.480  14.492  0.00  0.00    +0.000 NA
ATOM     32  C   UNL     1       6.911   5.396  15.469  0.00  0.00    +0.000 A 
ATOM     33 CL   UNL     1       7.396   6.239  16.889  0.00  0.00    +0.000 Cl
ENDBRANCH  24  27
ENDBRANCH  22  23
ENDBRANCH  19  22
ENDBRANCH   1  20
TORSDOF 8
ENDMDL
MODEL 3
REMARK VINA RESULT:      -8.1      4.296      9.067
REMARK  Name = 
REMARK  8 active torsions:
REMARK  status: ('A' for Active; 'I' for Inactive)
REMARK    1  A    between atoms: C_2  and  C_3
REMARK    2  A    between atoms: C_3  and  N_4
REMARK    3  A    between atoms: C_5  and  C_7
REMARK    4  A    between atoms: N_14  and  N_15
REMARK    5  A    between atoms: C_16  and  C_17
REMARK    6  A    between atoms: C_20  and  O_21
REMARK    7  A    between atoms: O_21  and  C_22
REMARK    8  A    between atoms: C_22  and  C_23
REMARK                            x       y       z     vdW  Elec       q    Type
REMARK                         _______ _______ _______ _____ _____    ______ ____
ROOT
ATOM      1  N   UNL     1       0.633   8.453  21.284  0.00  0.00    +0.000 NA
ATOM      2  C   UNL     1       1.177   7.290  21.470  0.00  0.00    +0.000 C 
ENDROOT
BRANCH   2   3
ATOM      3  C   UNL     1       1.781   6.543  20.347  0.00  0.00    +0.000 A 
ATOM      4  C   UNL     1       1.783   5.157  20.363  0.00  0.00    +0.000 A 
ATOM      5  C   UNL     1       2.351   4.463  19.293  0.00  0.00    +0.000 A 
ATOM      6  C   UNL     1       2.888   5.137  18.200  0.00  0.00    +0.000 A 
ATOM      7  C   UNL     1       2.909   6.538  18.200  0.00  0.00    +0.000 A 
ATOM      8  C   UNL     1       2.340   7.242  19.272  0.00  0.00    +0.000 A 
BRANCH   6   9
ATOM      9  O   UNL     1       3.385   4.435  17.134  0.00  0.00    +0.000 OA
BRANCH   9  10
ATOM     10  C   UNL     1       4.642   3.760  17.416  0.00  0.00    +0.000 C 
BRANCH  10  11
ATOM     11  C   UNL     1       5.775   4.722  17.657  0.00  0.00    +0.000 A 
ATOM     12  C   UNL     1       6.339   4.800  18.943  0.00  0.00    +0.000 A 
ATOM     13  C   UNL     1       7.317   5.751  19.238  0.00  0.00    +0.000 A 
ATOM     14  C   UNL     1       7.742   6.641  18.260  0.00  0.00    +0.000 A 
ATOM     15  C   UNL     1       7.193   6.583  16.982  0.00  0.00    +0.000 A 
ATOM     16  C   UNL     1       6.210   5.635  16.683  0.00  0.00    +0.000 A 
ATOM     17 CL   UNL     1       5.548   5.664  15.085  0.00  0.00    +0.000 Cl
ENDBRANCH  10  11
ENDBRANCH   9  10
ENDBRANCH   6   9
ENDBRANCH   2   3
BRANCH   1  20
ATOM     18  O   UNL     1      -0.583  10.937  23.440  0.00  0.00    +0.000 OA
ATOM     19  C   UNL     1      -0.191  10.403  22.409  0.00  0.00    +0.000 C 
ATOM     20  N   UNL     1       0.128   9.060  22.388  0.00  0.00    +0.000 N 
ATOM     21  H   UNL     1      -0.008   8.544  23.250  0.00  0.00    +0.000 HD
BRANCH  19  22
ATOM     22  C   UNL     1       0.089  11.196  21.126  0.00  0.00    +0.000 C 
BRANCH  22  23
ATOM     23  N   UNL     1      -1.028  11.161  20.197  0.00  0.00    +0.000 N 
ATOM     24  C   UNL     1      -0.838  10.862  18.866  0.00  0.00    +0.000 C 
ATOM     25  O   UNL     1       0.264  10.587  18.392  0.00  0.00    +0.000 OA
ATOM     26  H   UNL     1      -1.942  11.432  20.548  0.00  0.00    +0.000 HD
BRANCH  24  27
ATOM     27  C   UNL     1      -2.022  10.822  17.977  0.00  0.00    +0.000 A 
ATOM     28  C   UNL     1      -1.912  10.116  16.769  0.00  0.00    +0.000 A 
ATOM     29  C   UNL     1      -2.990  10.065  15.888  0.00  0.00    +0.000 A 
ATOM     30  C   UNL     1      -4.153  10.727  16.241  0.00  0.00    +0.000 A 
ATOM     31  N   UNL     1      -4.296  11.423  17.388  0.00  0.00    +0.000 NA
ATOM     32  C   UNL     1      -3.228  11.463  18.225  0.00  0.00    +0.000 A 
ATOM     33 CL   UNL     1      -3.535  12.459  19.596  0.00  0.00    +0.000 Cl
ENDBRANCH  24  27
ENDBRANCH  22  23
ENDBRANCH  19  22
ENDBRANCH   1  20
TORSDOF 8
ENDMDL
MODEL 4
REMARK VINA RESULT:      -8.1      4.143      9.219
REMARK  Name = 
REMARK  8 active torsions:
REMARK  status: ('A' for Active; 'I' for Inactive)
REMARK    1  A    between atoms: C_2  and  C_3
REMARK    2  A    between atoms: C_3  and  N_4
REMARK    3  A    between atoms: C_5  and  C_7
REMARK    4  A    between atoms: N_14  and  N_15
REMARK    5  A    between atoms: C_16  and  C_17
REMARK    6  A    between atoms: C_20  and  O_21
REMARK    7  A    between atoms: O_21  and  C_22
REMARK    8  A    between atoms: C_22  and  C_23
REMARK                            x       y       z     vdW  Elec       q    Type
REMARK                         _______ _______ _______ _____ _____    ______ ____
ROOT
ATOM      1  N   UNL     1       0.190   8.233  21.356  0.00  0.00    +0.000 NA
ATOM      2  C   UNL     1       1.397   7.770  21.247  0.00  0.00    +0.000 C 
ENDROOT
BRANCH   2   3
ATOM      3  C   UNL     1       1.738   6.764  20.220  0.00  0.00    +0.000 A 
ATOM      4  C   UNL     1       2.269   7.171  19.007  0.00  0.00    +0.000 A 
ATOM      5  C   UNL     1       2.594   6.211  18.046  0.00  0.00    +0.000 A 
ATOM      6  C   UNL     1       2.419   4.853  18.298  0.00  0.00    +0.000 A 
ATOM      7  C   UNL     1       1.856   4.447  19.515  0.00  0.00    +0.000 A 
ATOM      8  C   UNL     1       1.527   5.407  20.484  0.00  0.00    +0.000 A 
BRANCH   6   9
ATOM      9  O   UNL     1       2.800   3.925  17.365  0.00  0.00    +0.000 OA
BRANCH   9  10
ATOM     10  C   UNL     1       4.102   3.332  17.631  0.00  0.00    +0.000 C 
BRANCH  10  11
ATOM     11  C   UNL     1       5.221   4.056  16.930  0.00  0.00    +0.000 A 
ATOM     12  C   UNL     1       5.468   3.775  15.574  0.00  0.00    +0.000 A 
ATOM     13  C   UNL     1       6.559   4.343  14.914  0.00  0.00    +0.000 A 
ATOM     14  C   UNL     1       7.423   5.191  15.595  0.00  0.00    +0.000 A 
ATOM     15  C   UNL     1       7.197   5.478  16.939  0.00  0.00    +0.000 A 
ATOM     16  C   UNL     1       6.109   4.908  17.606  0.00  0.00    +0.000 A 
ATOM     17 CL   UNL     1       5.932   5.281  19.285  0.00  0.00    +0.000 Cl
ENDBRANCH  10  11
ENDBRANCH   9  10
ENDBRANCH   6   9
ENDBRANCH   2   3
BRANCH   1  20
ATOM     18  O   UNL     1      -0.050  11.343  22.958  0.00  0.00    +0.000 OA
ATOM     19  C   UNL     1       0.067  10.523  22.056  0.00  0.00    +0.000 C 
ATOM     20  N   UNL     1      -0.006   9.170  22.319  0.00  0.00    +0.000 N 
ATOM     21  H   UNL     1      -0.190   8.899  23.279  0.00  0.00    +0.000 HD
BRANCH  19  22
ATOM     22  C   UNL     1       0.421  10.926  20.619  0.00  0.00    +0.000 C 
BRANCH  22  23
ATOM     23  N   UNL     1      -0.755  11.073  19.777  0.00  0.00    +0.000 N 
ATOM     24  C   UNL     1      -0.815  10.493  18.530  0.00  0.00    +0.000 C 
ATOM     25  O   UNL     1       0.095   9.806  18.066  0.00  0.00    +0.000 OA
ATOM     26  H   UNL     1      -1.502  11.674  20.112  0.00  0.00    +0.000 HD
BRANCH  24  27
ATOM     27  C   UNL     1      -2.052  10.663  17.733  0.00  0.00    +0.000 A 
ATOM     28  C   UNL     1      -2.107  10.053  16.469  0.00  0.00    +0.000 A 
ATOM     29  C   UNL     1      -3.240  10.200  15.671  0.00  0.00    +0.000 A 
ATOM     30  C   UNL     1      -4.289  10.959  16.160  0.00  0.00    +0.000 A 
ATOM     31  N   UNL     1      -4.272  11.567  17.364  0.00  0.00    +0.000 NA
ATOM     32  C   UNL     1      -3.153  11.414  18.120  0.00  0.00    +0.000 A 
ATOM     33 CL   UNL     1      -3.247  12.319  19.581  0.00  0.00    +0.000 Cl
ENDBRANCH  24  27
ENDBRANCH  22  23
ENDBRANCH  19  22
ENDBRANCH   1  20
TORSDOF 8
ENDMDL
MODEL 5
REMARK VINA RESULT:      -7.9      4.748      7.605
REMARK  Name = 
REMARK  8 active torsions:
REMARK  status: ('A' for Active; 'I' for Inactive)
REMARK    1  A    between atoms: C_2  and  C_3
REMARK    2  A    between atoms: C_3  and  N_4
REMARK    3  A    between atoms: C_5  and  C_7
REMARK    4  A    between atoms: N_14  and  N_15
REMARK    5  A    between atoms: C_16  and  C_17
REMARK    6  A    between atoms: C_20  and  O_21
REMARK    7  A    between atoms: O_21  and  C_22
REMARK    8  A    between atoms: C_22  and  C_23
REMARK                            x       y       z     vdW  Elec       q    Type
REMARK                         _______ _______ _______ _____ _____    ______ ____
ROOT
ATOM      1  N   UNL     1       4.456   4.290  17.819  0.00  0.00    +0.000 NA
ATOM      2  C   UNL     1       5.428   4.691  17.058  0.00  0.00    +0.000 C 
ENDROOT
BRANCH   2   3
ATOM      3  C   UNL     1       6.382   5.720  17.519  0.00  0.00    +0.000 A 
ATOM      4  C   UNL     1       6.388   6.970  16.923  0.00  0.00    +0.000 A 
ATOM      5  C   UNL     1       7.290   7.937  17.372  0.00  0.00    +0.000 A 
ATOM      6  C   UNL     1       8.162   7.675  18.426  0.00  0.00    +0.000 A 
ATOM      7  C   UNL     1       8.172   6.400  19.008  0.00  0.00    +0.000 A 
ATOM      8  C   UNL     1       7.268   5.424  18.561  0.00  0.00    +0.000 A 
BRANCH   6   9
ATOM      9  O   UNL     1       8.996   8.657  18.890  0.00  0.00    +0.000 OA
BRANCH   9  10
ATOM     10  C   UNL     1       8.644   9.990  18.425  0.00  0.00    +0.000 C 
BRANCH  10  11
ATOM     11  C   UNL     1       9.704  11.011  18.740  0.00  0.00    +0.000 A 
ATOM     12  C   UNL     1      10.581  11.418  17.719  0.00  0.00    +0.000 A 
ATOM     13  C   UNL     1      11.643  12.282  17.990  0.00  0.00    +0.000 A 
ATOM     14  C   UNL     1      11.851  12.747  19.282  0.00  0.00    +0.000 A 
ATOM     15  C   UNL     1      10.996  12.353  20.309  0.00  0.00    +0.000 A 
ATOM     16  C   UNL     1       9.934  11.484  20.042  0.00  0.00    +0.000 A 
ATOM     17 CL   UNL     1       8.951  11.008  21.383  0.00  0.00    +0.000 Cl
ENDBRANCH  10  11
ENDBRANCH   9  10
ENDBRANCH   6   9
ENDBRANCH   2   3
BRANCH   1  20
ATOM     18  O   UNL     1       1.733   2.123  17.385  0.00  0.00    +0.000 OA
ATOM     19  C   UNL     1       2.408   3.043  17.831  0.00  0.00    +0.000 C 
ATOM     20  N   UNL     1       3.652   3.325  17.303  0.00  0.00    +0.000 N 
ATOM     21  H   UNL     1       3.957   2.758  16.520  0.00  0.00    +0.000 HD
BRANCH  19  22
ATOM     22  C   UNL     1       1.985   3.853  19.063  0.00  0.00    +0.000 C 
BRANCH  22  23
ATOM     23  N   UNL     1       1.785   5.260  18.762  0.00  0.00    +0.000 N 
ATOM     24  C   UNL     1       2.107   6.238  19.677  0.00  0.00    +0.000 C 
ATOM     25  O   UNL     1       2.599   5.989  20.777  0.00  0.00    +0.000 OA
ATOM     26  H   UNL     1       1.335   5.495  17.881  0.00  0.00    +0.000 HD
BRANCH  24  27
ATOM     27  C   UNL     1       1.898   7.654  19.297  0.00  0.00    +0.000 A 
ATOM     28  C   UNL     1       2.375   8.075  18.045  0.00  0.00    +0.000 A 
ATOM     29  C   UNL     1       2.222   9.402  17.649  0.00  0.00    +0.000 A 
ATOM     30  C   UNL     1       1.596  10.276  18.521  0.00  0.00    +0.000 A 
ATOM     31  N   UNL     1       1.132   9.913  19.735  0.00  0.00    +0.000 NA
ATOM     32  C   UNL     1       1.300   8.615  20.100  0.00  0.00    +0.000 A 
ATOM     33 CL   UNL     1       0.739   8.331  21.703  0.00  0.00    +0.000 Cl
ENDBRANCH  24  27
ENDBRANCH  22  23
ENDBRANCH  19  22
ENDBRANCH   1  20
TORSDOF 8
ENDMDL
MODEL 6
REMARK VINA RESULT:      -7.8      4.304      9.573
REMARK  Name = 
REMARK  8 active torsions:
REMARK  status: ('A' for Active; 'I' for Inactive)
REMARK    1  A    between atoms: C_2  and  C_3
REMARK    2  A    between atoms: C_3  and  N_4
REMARK    3  A    between atoms: C_5  and  C_7
REMARK    4  A    between atoms: N_14  and  N_15
REMARK    5  A    between atoms: C_16  and  C_17
REMARK    6  A    between atoms: C_20  and  O_21
REMARK    7  A    between atoms: O_21  and  C_22
REMARK    8  A    between atoms: C_22  and  C_23
REMARK                            x       y       z     vdW  Elec       q    Type
REMARK                         _______ _______ _______ _____ _____    ______ ____
ROOT
ATOM      1  N   UNL     1       0.667   8.528  21.133  0.00  0.00    +0.000 NA
ATOM      2  C   UNL     1       1.179   7.370  21.415  0.00  0.00    +0.000 C 
ENDROOT
BRANCH   2   3
ATOM      3  C   UNL     1       1.629   6.455  20.345  0.00  0.00    +0.000 A 
ATOM      4  C   UNL     1       1.494   5.086  20.507  0.00  0.00    +0.000 A 
ATOM      5  C   UNL     1       1.916   4.232  19.486  0.00  0.00    +0.000 A 
ATOM      6  C   UNL     1       2.442   4.733  18.299  0.00  0.00    +0.000 A 
ATOM      7  C   UNL     1       2.602   6.117  18.149  0.00  0.00    +0.000 A 
ATOM      8  C   UNL     1       2.181   6.981  19.172  0.00  0.00    +0.000 A 
BRANCH   6   9
ATOM      9  O   UNL     1       2.793   3.880  17.286  0.00  0.00    +0.000 OA
BRANCH   9  10
ATOM     10  C   UNL     1       4.084   3.239  17.486  0.00  0.00    +0.000 C 
BRANCH  10  11
ATOM     11  C   UNL     1       5.211   3.990  16.830  0.00  0.00    +0.000 A 
ATOM     12  C   UNL     1       5.467   3.776  15.463  0.00  0.00    +0.000 A 
ATOM     13  C   UNL     1       6.566   4.371  14.840  0.00  0.00    +0.000 A 
ATOM     14  C   UNL     1       7.428   5.179  15.568  0.00  0.00    +0.000 A 
ATOM     15  C   UNL     1       7.195   5.400  16.924  0.00  0.00    +0.000 A 
ATOM     16  C   UNL     1       6.099   4.803  17.553  0.00  0.00    +0.000 A 
ATOM     17 CL   UNL     1       5.912   5.092  19.248  0.00  0.00    +0.000 Cl
ENDBRANCH  10  11
ENDBRANCH   9  10
ENDBRANCH   6   9
ENDBRANCH   2   3
BRANCH   1  20
ATOM     18  O   UNL     1      -0.223  11.325  23.053  0.00  0.00    +0.000 OA
ATOM     19  C   UNL     1       0.035  10.644  22.067  0.00  0.00    +0.000 C 
ATOM     20  N   UNL     1       0.309   9.296  22.194  0.00  0.00    +0.000 N 
ATOM     21  H   UNL     1       0.255   8.903  23.127  0.00  0.00    +0.000 HD
BRANCH  19  22
ATOM     22  C   UNL     1       0.192  11.249  20.667  0.00  0.00    +0.000 C 
BRANCH  22  23
ATOM     23  N   UNL     1      -0.992  11.060  19.844  0.00  0.00    +0.000 N 
ATOM     24  C   UNL     1      -1.213  11.834  18.727  0.00  0.00    +0.000 C 
ATOM     25  O   UNL     1      -0.427  12.702  18.347  0.00  0.00    +0.000 OA
ATOM     26  H   UNL     1      -1.683  10.385  20.159  0.00  0.00    +0.000 HD
BRANCH  24  27
ATOM     27  C   UNL     1      -2.427  11.575  17.920  0.00  0.00    +0.000 A 
ATOM     28  C   UNL     1      -2.256  11.101  16.610  0.00  0.00    +0.000 A 
ATOM     29  C   UNL     1      -3.367  10.861  15.802  0.00  0.00    +0.000 A 
ATOM     30  C   UNL     1      -4.622  11.106  16.330  0.00  0.00    +0.000 A 
ATOM     31  N   UNL     1      -4.829  11.570  17.580  0.00  0.00    +0.000 NA
ATOM     32  C   UNL     1      -3.730  11.803  18.344  0.00  0.00    +0.000 A 
ATOM     33 CL   UNL     1      -4.152  12.473  19.872  0.00  0.00    +0.000 Cl
ENDBRANCH  24  27
ENDBRANCH  22  23
ENDBRANCH  19  22
ENDBRANCH   1  20
TORSDOF 8
ENDMDL
MODEL 7
REMARK VINA RESULT:      -7.8      4.356      9.648
REMARK  Name = 
REMARK  8 active torsions:
REMARK  status: ('A' for Active; 'I' for Inactive)
REMARK    1  A    between atoms: C_2  and  C_3
REMARK    2  A    between atoms: C_3  and  N_4
REMARK    3  A    between atoms: C_5  and  C_7
REMARK    4  A    between atoms: N_14  and  N_15
REMARK    5  A    between atoms: C_16  and  C_17
REMARK    6  A    between atoms: C_20  and  O_21
REMARK    7  A    between atoms: O_21  and  C_22
REMARK    8  A    between atoms: C_22  and  C_23
REMARK                            x       y       z     vdW  Elec       q    Type
REMARK                         _______ _______ _______ _____ _____    ______ ____
ROOT
ATOM      1  N   UNL     1       0.177   8.392  21.609  0.00  0.00    +0.000 NA
ATOM      2  C   UNL     1       1.416   8.137  21.322  0.00  0.00    +0.000 C 
ENDROOT
BRANCH   2   3
ATOM      3  C   UNL     1       1.770   7.111  20.320  0.00  0.00    +0.000 A 
ATOM      4  C   UNL     1       1.563   5.770  20.603  0.00  0.00    +0.000 A 
ATOM      5  C   UNL     1       1.896   4.810  19.645  0.00  0.00    +0.000 A 
ATOM      6  C   UNL     1       2.404   5.178  18.403  0.00  0.00    +0.000 A 
ATOM      7  C   UNL     1       2.638   6.533  18.130  0.00  0.00    +0.000 A 
ATOM      8  C   UNL     1       2.307   7.503  19.089  0.00  0.00    +0.000 A 
BRANCH   6   9
ATOM      9  O   UNL     1       2.667   4.224  17.456  0.00  0.00    +0.000 OA
BRANCH   9  10
ATOM     10  C   UNL     1       3.904   3.495  17.690  0.00  0.00    +0.000 C 
BRANCH  10  11
ATOM     11  C   UNL     1       5.081   4.110  16.982  0.00  0.00    +0.000 A 
ATOM     12  C   UNL     1       5.277   3.830  15.618  0.00  0.00    +0.000 A 
ATOM     13  C   UNL     1       6.411   4.292  14.948  0.00  0.00    +0.000 A 
ATOM     14  C   UNL     1       7.369   5.034  15.628  0.00  0.00    +0.000 A 
ATOM     15  C   UNL     1       7.195   5.319  16.980  0.00  0.00    +0.000 A 
ATOM     16  C   UNL     1       6.063   4.854  17.656  0.00  0.00    +0.000 A 
ATOM     17 CL   UNL     1       5.952   5.213  19.344  0.00  0.00    +0.000 Cl
ENDBRANCH  10  11
ENDBRANCH   9  10
ENDBRANCH   6   9
ENDBRANCH   2   3
BRANCH   1  20
ATOM     18  O   UNL     1      -0.359  11.557  23.022  0.00  0.00    +0.000 OA
ATOM     19  C   UNL     1      -0.235  10.687  22.168  0.00  0.00    +0.000 C 
ATOM     20  N   UNL     1      -0.035   9.369  22.528  0.00  0.00    +0.000 N 
ATOM     21  H   UNL     1      -0.027   9.161  23.520  0.00  0.00    +0.000 HD
BRANCH  19  22
ATOM     22  C   UNL     1      -0.170  11.008  20.669  0.00  0.00    +0.000 C 
BRANCH  22  23
ATOM     23  N   UNL     1      -1.474  11.327  20.112  0.00  0.00    +0.000 N 
ATOM     24  C   UNL     1      -1.732  11.168  18.769  0.00  0.00    +0.000 C 
ATOM     25  O   UNL     1      -0.901  10.732  17.974  0.00  0.00    +0.000 OA
ATOM     26  H   UNL     1      -2.166  11.736  20.734  0.00  0.00    +0.000 HD
BRANCH  24  27
ATOM     27  C   UNL     1      -3.089  11.491  18.270  0.00  0.00    +0.000 A 
ATOM     28  C   UNL     1      -4.006  12.049  19.176  0.00  0.00    +0.000 A 
ATOM     29  C   UNL     1      -5.301  12.352  18.762  0.00  0.00    +0.000 A 
ATOM     30  C   UNL     1      -5.646  12.085  17.448  0.00  0.00    +0.000 A 
ATOM     31  N   UNL     1      -4.798  11.543  16.550  0.00  0.00    +0.000 NA
ATOM     32  C   UNL     1      -3.543  11.249  16.981  0.00  0.00    +0.000 A 
ATOM     33 CL   UNL     1      -2.614  10.485  15.750  0.00  0.00    +0.000 Cl
ENDBRANCH  24  27
ENDBRANCH  22  23
ENDBRANCH  19  22
ENDBRANCH   1  20
TORSDOF 8
ENDMDL
MODEL 8
REMARK VINA RESULT:      -7.8      4.414      9.564
REMARK  Name = 
REMARK  8 active torsions:
REMARK  status: ('A' for Active; 'I' for Inactive)
REMARK    1  A    between atoms: C_2  and  C_3
REMARK    2  A    between atoms: C_3  and  N_4
REMARK    3  A    between atoms: C_5  and  C_7
REMARK    4  A    between atoms: N_14  and  N_15
REMARK    5  A    between atoms: C_16  and  C_17
REMARK    6  A    between atoms: C_20  and  O_21
REMARK    7  A    between atoms: O_21  and  C_22
REMARK    8  A    between atoms: C_22  and  C_23
REMARK                            x       y       z     vdW  Elec       q    Type
REMARK                         _______ _______ _______ _____ _____    ______ ____
ROOT
ATOM      1  N   UNL     1       1.020   9.103  20.977  0.00  0.00    +0.000 NA
ATOM      2  C   UNL     1       1.341   7.873  21.241  0.00  0.00    +0.000 C 
ENDROOT
BRANCH   2   3
ATOM      3  C   UNL     1       1.882   6.986  20.191  0.00  0.00    +0.000 A 
ATOM      4  C   UNL     1       1.851   5.612  20.367  0.00  0.00    +0.000 A 
ATOM      5  C   UNL     1       2.359   4.783  19.365  0.00  0.00    +0.000 A 
ATOM      6  C   UNL     1       2.869   5.311  18.183  0.00  0.00    +0.000 A 
ATOM      7  C   UNL     1       2.924   6.702  18.019  0.00  0.00    +0.000 A 
ATOM      8  C   UNL     1       2.416   7.541  19.023  0.00  0.00    +0.000 A 
BRANCH   6   9
ATOM      9  O   UNL     1       3.306   4.477  17.187  0.00  0.00    +0.000 OA
BRANCH   9  10
ATOM     10  C   UNL     1       4.534   3.770  17.517  0.00  0.00    +0.000 C 
BRANCH  10  11
ATOM     11  C   UNL     1       5.698   4.700  17.732  0.00  0.00    +0.000 A 
ATOM     12  C   UNL     1       6.246   4.817  19.022  0.00  0.00    +0.000 A 
ATOM     13  C   UNL     1       7.255   5.744  19.290  0.00  0.00    +0.000 A 
ATOM     14  C   UNL     1       7.727   6.571  18.280  0.00  0.00    +0.000 A 
ATOM     15  C   UNL     1       7.195   6.474  16.996  0.00  0.00    +0.000 A 
ATOM     16  C   UNL     1       6.181   5.550  16.725  0.00  0.00    +0.000 A 
ATOM     17 CL   UNL     1       5.545   5.530  15.117  0.00  0.00    +0.000 Cl
ENDBRANCH  10  11
ENDBRANCH   9  10
ENDBRANCH   6   9
ENDBRANCH   2   3
BRANCH   1  20
ATOM     18  O   UNL     1      -0.386  11.738  22.814  0.00  0.00    +0.000 OA
ATOM     19  C   UNL     1      -0.034  11.072  21.847  0.00  0.00    +0.000 C 
ATOM     20  N   UNL     1       0.554   9.835  22.021  0.00  0.00    +0.000 N 
ATOM     21  H   UNL     1       0.648   9.502  22.974  0.00  0.00    +0.000 HD
BRANCH  19  22
ATOM     22  C   UNL     1      -0.104  11.605  20.411  0.00  0.00    +0.000 C 
BRANCH  22  23
ATOM     23  N   UNL     1      -1.394  11.357  19.788  0.00  0.00    +0.000 N 
ATOM     24  C   UNL     1      -2.333  12.357  19.673  0.00  0.00    +0.000 C 
ATOM     25  O   UNL     1      -2.135  13.509  20.060  0.00  0.00    +0.000 OA
ATOM     26  H   UNL     1      -1.605  10.405  19.503  0.00  0.00    +0.000 HD
BRANCH  24  27
ATOM     27  C   UNL     1      -3.618  12.043  19.008  0.00  0.00    +0.000 A 
ATOM     28  C   UNL     1      -4.803  12.276  19.726  0.00  0.00    +0.000 A 
ATOM     29  C   UNL     1      -6.037  11.978  19.154  0.00  0.00    +0.000 A 
ATOM     30  C   UNL     1      -6.053  11.450  17.874  0.00  0.00    +0.000 A 
ATOM     31  N   UNL     1      -4.939  11.205  17.155  0.00  0.00    +0.000 NA
ATOM     32  C   UNL     1      -3.747  11.497  17.739  0.00  0.00    +0.000 A 
ATOM     33 CL   UNL     1      -2.423  11.045  16.736  0.00  0.00    +0.000 Cl
ENDBRANCH  24  27
ENDBRANCH  22  23
ENDBRANCH  19  22
ENDBRANCH   1  20
TORSDOF 8
ENDMDL
MODEL 9
REMARK VINA RESULT:      -7.8      3.082      5.152
REMARK  Name = 
REMARK  8 active torsions:
REMARK  status: ('A' for Active; 'I' for Inactive)
REMARK    1  A    between atoms: C_2  and  C_3
REMARK    2  A    between atoms: C_3  and  N_4
REMARK    3  A    between atoms: C_5  and  C_7
REMARK    4  A    between atoms: N_14  and  N_15
REMARK    5  A    between atoms: C_16  and  C_17
REMARK    6  A    between atoms: C_20  and  O_21
REMARK    7  A    between atoms: O_21  and  C_22
REMARK    8  A    between atoms: C_22  and  C_23
REMARK                            x       y       z     vdW  Elec       q    Type
REMARK                         _______ _______ _______ _____ _____    ______ ____
ROOT
ATOM      1  N   UNL     1       1.890   5.210  20.487  0.00  0.00    +0.000 NA
ATOM      2  C   UNL     1       2.023   6.410  20.961  0.00  0.00    +0.000 C 
ENDROOT
BRANCH   2   3
ATOM      3  C   UNL     1       1.841   7.595  20.098  0.00  0.00    +0.000 A 
ATOM      4  C   UNL     1       1.128   8.687  20.566  0.00  0.00    +0.000 A 
ATOM      5  C   UNL     1       0.969   9.804  19.744  0.00  0.00    +0.000 A 
ATOM      6  C   UNL     1       1.539   9.850  18.474  0.00  0.00    +0.000 A 
ATOM      7  C   UNL     1       2.236   8.734  17.993  0.00  0.00    +0.000 A 
ATOM      8  C   UNL     1       2.399   7.608  18.814  0.00  0.00    +0.000 A 
BRANCH   6   9
ATOM      9  O   UNL     1       1.422  10.979  17.708  0.00  0.00    +0.000 OA
BRANCH   9  10
ATOM     10  C   UNL     1       2.438  11.982  17.989  0.00  0.00    +0.000 C 
BRANCH  10  11
ATOM     11  C   UNL     1       1.846  13.316  18.362  0.00  0.00    +0.000 A 
ATOM     12  C   UNL     1       0.461  13.407  18.583  0.00  0.00    +0.000 A 
ATOM     13  C   UNL     1      -0.145  14.642  18.828  0.00  0.00    +0.000 A 
ATOM     14  C   UNL     1       0.619  15.801  18.849  0.00  0.00    +0.000 A 
ATOM     15  C   UNL     1       1.993  15.732  18.628  0.00  0.00    +0.000 A 
ATOM     16  C   UNL     1       2.603  14.499  18.379  0.00  0.00    +0.000 A 
ATOM     17 CL   UNL     1       4.304  14.511  18.068  0.00  0.00    +0.000 Cl
ENDBRANCH  10  11
ENDBRANCH   9  10
ENDBRANCH   6   9
ENDBRANCH   2   3
BRANCH   1  20
ATOM     18  O   UNL     1       2.837   2.123  21.855  0.00  0.00    +0.000 OA
ATOM     19  C   UNL     1       2.759   3.049  21.056  0.00  0.00    +0.000 C 
ATOM     20  N   UNL     1       2.056   4.195  21.373  0.00  0.00    +0.000 N 
ATOM     21  H   UNL     1       1.643   4.239  22.297  0.00  0.00    +0.000 HD
BRANCH  19  22
ATOM     22  C   UNL     1       3.317   2.957  19.631  0.00  0.00    +0.000 C 
BRANCH  22  23
ATOM     23  N   UNL     1       4.448   3.845  19.418  0.00  0.00    +0.000 N 
ATOM     24  C   UNL     1       4.544   4.614  18.280  0.00  0.00    +0.000 C 
ATOM     25  O   UNL     1       3.686   4.617  17.399  0.00  0.00    +0.000 OA
ATOM     26  H   UNL     1       5.197   3.827  20.104  0.00  0.00    +0.000 HD
BRANCH  24  27
ATOM     27  C   UNL     1       5.712   5.514  18.136  0.00  0.00    +0.000 A 
ATOM     28  C   UNL     1       6.738   5.415  19.089  0.00  0.00    +0.000 A 
ATOM     29  C   UNL     1       7.848   6.254  19.010  0.00  0.00    +0.000 A 
ATOM     30  C   UNL     1       7.900   7.173  17.977  0.00  0.00    +0.000 A 
ATOM     31  N   UNL     1       6.931   7.305  17.047  0.00  0.00    +0.000 NA
ATOM     32  C   UNL     1       5.856   6.481  17.150  0.00  0.00    +0.000 A 
ATOM     33 CL   UNL     1       4.673   6.831  15.950  0.00  0.00    +0.000 Cl
ENDBRANCH  24  27
ENDBRANCH  22  23
ENDBRANCH  19  22
ENDBRANCH   1  20
TORSDOF 8
ENDMDL
