MODEL 1
REMARK VINA RESULT:      -6.0      0.000      0.000
REMARK  Name = 
REMARK  7 active torsions:
REMARK  status: ('A' for Active; 'I' for Inactive)
REMARK    1  A    between atoms: C_1  and  C_2
REMARK    2  A    between atoms: C_2  and  C_3
REMARK    3  A    between atoms: C_9  and  S_10
REMARK    4  A    between atoms: S_10  and  C_11
REMARK    5  A    between atoms: C_11  and  C_12
REMARK    6  A    between atoms: C_12  and  O_14
REMARK    7  A    between atoms: C_16  and  C_17
REMARK                            x       y       z     vdW  Elec       q    Type
REMARK                         _______ _______ _______ _____ _____    ______ ____
ROOT
ATOM      1  C   UNL     1       1.867   3.896  19.865  0.00  0.00    +0.000 A 
ATOM      2  S   UNL     1       1.614   5.552  20.172  0.00  0.00    +0.000 S 
ATOM      3  C   UNL     1       2.660   6.013  18.917  0.00  0.00    +0.000 A 
ATOM      4  N   UNL     1       2.819   7.319  18.656  0.00  0.00    +0.000 NA
ATOM      5  C   UNL     1       3.658   7.550  17.652  0.00  0.00    +0.000 A 
ATOM      6  N   UNL     1       4.336   6.639  16.936  0.00  0.00    +0.000 NA
ATOM      7  C   UNL     1       4.125   5.329  17.218  0.00  0.00    +0.000 A 
ATOM      8  C   UNL     1       3.254   4.942  18.262  0.00  0.00    +0.000 A 
ATOM      9  C   UNL     1       2.794   3.679  18.847  0.00  0.00    +0.000 A 
ATOM     10  C   UNL     1       3.198   2.287  18.459  0.00  0.00    +0.000 C 
ENDROOT
BRANCH   1  12
ATOM     11  C   UNL     1       1.839   2.536  21.961  0.00  0.00    +0.000 C 
ATOM     12  C   UNL     1       1.105   2.878  20.671  0.00  0.00    +0.000 C 
ENDBRANCH   1  12
BRANCH   7  13
ATOM     13  S   UNL     1       4.923   4.133  16.186  0.00  0.00    +0.000 S 
BRANCH  13  14
ATOM     14  C   UNL     1       6.668   4.340  16.623  0.00  0.00    +0.000 C 
BRANCH  14  15
ATOM     15  C   UNL     1       7.334   5.429  15.819  0.00  0.00    +0.000 C 
ATOM     16  O   UNL     1       7.687   5.305  14.653  0.00  0.00    +0.000 OA
BRANCH  15  17
ATOM     17  O   UNL     1       7.516   6.582  16.504  0.00  0.00    +0.000 OA
ATOM     18  H   UNL     1       7.195   7.357  15.991  0.00  0.00    +0.000 HD
ENDBRANCH  15  17
ENDBRANCH  14  15
ENDBRANCH  13  14
ENDBRANCH   7  13
TORSDOF 5
ENDMDL
MODEL 2
REMARK VINA RESULT:      -6.0      1.160      1.371
REMARK  Name = 
REMARK  7 active torsions:
REMARK  status: ('A' for Active; 'I' for Inactive)
REMARK    1  A    between atoms: C_1  and  C_2
REMARK    2  A    between atoms: C_2  and  C_3
REMARK    3  A    between atoms: C_9  and  S_10
REMARK    4  A    between atoms: S_10  and  C_11
REMARK    5  A    between atoms: C_11  and  C_12
REMARK    6  A    between atoms: C_12  and  O_14
REMARK    7  A    between atoms: C_16  and  C_17
REMARK                            x       y       z     vdW  Elec       q    Type
REMARK                         _______ _______ _______ _____ _____    ______ ____
ROOT
ATOM      1  C   UNL     1       2.215   3.625  19.581  0.00  0.00    +0.000 A 
ATOM      2  S   UNL     1       1.701   5.180  20.051  0.00  0.00    +0.000 S 
ATOM      3  C   UNL     1       2.671   5.928  18.876  0.00  0.00    +0.000 A 
ATOM      4  N   UNL     1       2.624   7.263  18.755  0.00  0.00    +0.000 NA
ATOM      5  C   UNL     1       3.424   7.727  17.801  0.00  0.00    +0.000 A 
ATOM      6  N   UNL     1       4.243   7.015  17.012  0.00  0.00    +0.000 NA
ATOM      7  C   UNL     1       4.239   5.664  17.152  0.00  0.00    +0.000 A 
ATOM      8  C   UNL     1       3.432   5.038  18.128  0.00  0.00    +0.000 A 
ATOM      9  C   UNL     1       3.172   3.664  18.568  0.00  0.00    +0.000 A 
ATOM     10  C   UNL     1       3.794   2.401  18.050  0.00  0.00    +0.000 C 
ENDROOT
BRANCH   1  12
ATOM     11  C   UNL     1       1.577   2.604  21.771  0.00  0.00    +0.000 C 
ATOM     12  C   UNL     1       1.617   2.421  20.259  0.00  0.00    +0.000 C 
ENDBRANCH   1  12
BRANCH   7  13
ATOM     13  S   UNL     1       5.224   4.724  16.021  0.00  0.00    +0.000 S 
BRANCH  13  14
ATOM     14  C   UNL     1       6.881   5.405  16.285  0.00  0.00    +0.000 C 
BRANCH  14  15
ATOM     15  C   UNL     1       7.308   5.330  17.730  0.00  0.00    +0.000 C 
ATOM     16  O   UNL     1       7.795   6.264  18.354  0.00  0.00    +0.000 OA
BRANCH  15  17
ATOM     17  O   UNL     1       7.105   4.118  18.298  0.00  0.00    +0.000 OA
ATOM     18  H   UNL     1       6.845   3.447  17.628  0.00  0.00    +0.000 HD
ENDBRANCH  15  17
ENDBRANCH  14  15
ENDBRANCH  13  14
ENDBRANCH   7  13
TORSDOF 5
ENDMDL
MODEL 3
REMARK VINA RESULT:      -6.0      0.818      1.127
REMARK  Name = 
REMARK  7 active torsions:
REMARK  status: ('A' for Active; 'I' for Inactive)
REMARK    1  A    between atoms: C_1  and  C_2
REMARK    2  A    between atoms: C_2  and  C_3
REMARK    3  A    between atoms: C_9  and  S_10
REMARK    4  A    between atoms: S_10  and  C_11
REMARK    5  A    between atoms: C_11  and  C_12
REMARK    6  A    between atoms: C_12  and  O_14
REMARK    7  A    between atoms: C_16  and  C_17
REMARK                            x       y       z     vdW  Elec       q    Type
REMARK                         _______ _______ _______ _____ _____    ______ ____
ROOT
ATOM      1  C   UNL     1       1.918   3.862  19.786  0.00  0.00    +0.000 A 
ATOM      2  S   UNL     1       1.636   5.525  20.027  0.00  0.00    +0.000 S 
ATOM      3  C   UNL     1       2.746   5.955  18.817  0.00  0.00    +0.000 A 
ATOM      4  N   UNL     1       2.910   7.255  18.523  0.00  0.00    +0.000 NA
ATOM      5  C   UNL     1       3.801   7.461  17.560  0.00  0.00    +0.000 A 
ATOM      6  N   UNL     1       4.524   6.535  16.911  0.00  0.00    +0.000 NA
ATOM      7  C   UNL     1       4.307   5.232  17.222  0.00  0.00    +0.000 A 
ATOM      8  C   UNL     1       3.383   4.870  18.229  0.00  0.00    +0.000 A 
ATOM      9  C   UNL     1       2.900   3.622  18.827  0.00  0.00    +0.000 A 
ATOM     10  C   UNL     1       3.335   2.222  18.507  0.00  0.00    +0.000 C 
ENDROOT
BRANCH   1  12
ATOM     11  C   UNL     1       1.807   2.536  21.902  0.00  0.00    +0.000 C 
ATOM     12  C   UNL     1       1.120   2.864  20.581  0.00  0.00    +0.000 C 
ENDBRANCH   1  12
BRANCH   7  13
ATOM     13  S   UNL     1       5.169   4.011  16.273  0.00  0.00    +0.000 S 
BRANCH  13  14
ATOM     14  C   UNL     1       6.713   4.859  15.856  0.00  0.00    +0.000 C 
BRANCH  14  15
ATOM     15  C   UNL     1       7.066   4.721  14.396  0.00  0.00    +0.000 C 
ATOM     16  O   UNL     1       7.802   5.489  13.790  0.00  0.00    +0.000 OA
BRANCH  15  17
ATOM     17  O   UNL     1       6.490   3.655  13.792  0.00  0.00    +0.000 OA
ATOM     18  H   UNL     1       6.268   2.952  14.443  0.00  0.00    +0.000 HD
ENDBRANCH  15  17
ENDBRANCH  14  15
ENDBRANCH  13  14
ENDBRANCH   7  13
TORSDOF 5
ENDMDL
MODEL 4
REMARK VINA RESULT:      -5.9      1.945      3.238
REMARK  Name = 
REMARK  7 active torsions:
REMARK  status: ('A' for Active; 'I' for Inactive)
REMARK    1  A    between atoms: C_1  and  C_2
REMARK    2  A    between atoms: C_2  and  C_3
REMARK    3  A    between atoms: C_9  and  S_10
REMARK    4  A    between atoms: S_10  and  C_11
REMARK    5  A    between atoms: C_11  and  C_12
REMARK    6  A    between atoms: C_12  and  O_14
REMARK    7  A    between atoms: C_16  and  C_17
REMARK                            x       y       z     vdW  Elec       q    Type
REMARK                         _______ _______ _______ _____ _____    ______ ____
ROOT
ATOM      1  C   UNL     1       2.346   6.542  19.553  0.00  0.00    +0.000 A 
ATOM      2  S   UNL     1       1.761   5.251  20.498  0.00  0.00    +0.000 S 
ATOM      3  C   UNL     1       2.539   4.099  19.525  0.00  0.00    +0.000 A 
ATOM      4  N   UNL     1       2.448   2.802  19.860  0.00  0.00    +0.000 NA
ATOM      5  C   UNL     1       3.101   2.002  19.025  0.00  0.00    +0.000 A 
ATOM      6  N   UNL     1       3.784   2.360  17.926  0.00  0.00    +0.000 NA
ATOM      7  C   UNL     1       3.872   3.684  17.639  0.00  0.00    +0.000 A 
ATOM      8  C   UNL     1       3.225   4.646  18.448  0.00  0.00    +0.000 A 
ATOM      9  C   UNL     1       3.088   6.105  18.457  0.00  0.00    +0.000 A 
ATOM     10  C   UNL     1       3.648   7.086  17.468  0.00  0.00    +0.000 C 
ENDROOT
BRANCH   1  12
ATOM     11  C   UNL     1       1.131   7.978  21.198  0.00  0.00    +0.000 C 
ATOM     12  C   UNL     1       2.032   7.954  19.970  0.00  0.00    +0.000 C 
ENDBRANCH   1  12
BRANCH   7  13
ATOM     13  S   UNL     1       4.880   4.156  16.264  0.00  0.00    +0.000 S 
BRANCH  13  14
ATOM     14  C   UNL     1       6.413   4.690  17.067  0.00  0.00    +0.000 C 
BRANCH  14  15
ATOM     15  C   UNL     1       7.223   5.617  16.196  0.00  0.00    +0.000 C 
ATOM     16  O   UNL     1       7.543   5.372  15.039  0.00  0.00    +0.000 OA
BRANCH  15  17
ATOM     17  O   UNL     1       7.578   6.771  16.807  0.00  0.00    +0.000 OA
ATOM     18  H   UNL     1       7.029   7.525  16.495  0.00  0.00    +0.000 HD
ENDBRANCH  15  17
ENDBRANCH  14  15
ENDBRANCH  13  14
ENDBRANCH   7  13
TORSDOF 5
ENDMDL
MODEL 5
REMARK VINA RESULT:      -5.9      1.326      1.371
REMARK  Name = 
REMARK  7 active torsions:
REMARK  status: ('A' for Active; 'I' for Inactive)
REMARK    1  A    between atoms: C_1  and  C_2
REMARK    2  A    between atoms: C_2  and  C_3
REMARK    3  A    between atoms: C_9  and  S_10
REMARK    4  A    between atoms: S_10  and  C_11
REMARK    5  A    between atoms: C_11  and  C_12
REMARK    6  A    between atoms: C_12  and  O_14
REMARK    7  A    between atoms: C_16  and  C_17
REMARK                            x       y       z     vdW  Elec       q    Type
REMARK                         _______ _______ _______ _____ _____    ______ ____
ROOT
ATOM      1  C   UNL     1       2.749   3.999  20.055  0.00  0.00    +0.000 A 
ATOM      2  S   UNL     1       1.872   5.327  20.665  0.00  0.00    +0.000 S 
ATOM      3  C   UNL     1       2.459   6.357  19.451  0.00  0.00    +0.000 A 
ATOM      4  N   UNL     1       2.025   7.627  19.415  0.00  0.00    +0.000 NA
ATOM      5  C   UNL     1       2.554   8.329  18.420  0.00  0.00    +0.000 A 
ATOM      6  N   UNL     1       3.451   7.906  17.515  0.00  0.00    +0.000 NA
ATOM      7  C   UNL     1       3.842   6.608  17.572  0.00  0.00    +0.000 A 
ATOM      8  C   UNL     1       3.354   5.747  18.582  0.00  0.00    +0.000 A 
ATOM      9  C   UNL     1       3.541   4.343  18.960  0.00  0.00    +0.000 A 
ATOM     10  C   UNL     1       4.434   3.327  18.309  0.00  0.00    +0.000 C 
ENDROOT
BRANCH   1  12
ATOM     11  C   UNL     1       1.466   2.673  21.739  0.00  0.00    +0.000 C 
ATOM     12  C   UNL     1       2.591   2.655  20.712  0.00  0.00    +0.000 C 
ENDBRANCH   1  12
BRANCH   7  13
ATOM     13  S   UNL     1       4.924   6.024  16.299  0.00  0.00    +0.000 S 
BRANCH  13  14
ATOM     14  C   UNL     1       6.519   5.934  17.151  0.00  0.00    +0.000 C 
BRANCH  14  15
ATOM     15  C   UNL     1       7.441   4.913  16.533  0.00  0.00    +0.000 C 
ATOM     16  O   UNL     1       7.625   4.790  15.329  0.00  0.00    +0.000 OA
BRANCH  15  17
ATOM     17  O   UNL     1       8.067   4.122  17.437  0.00  0.00    +0.000 OA
ATOM     18  H   UNL     1       9.035   4.081  17.267  0.00  0.00    +0.000 HD
ENDBRANCH  15  17
ENDBRANCH  14  15
ENDBRANCH  13  14
ENDBRANCH   7  13
TORSDOF 5
ENDMDL
MODEL 6
REMARK VINA RESULT:      -5.9      3.482      5.716
REMARK  Name = 
REMARK  7 active torsions:
REMARK  status: ('A' for Active; 'I' for Inactive)
REMARK    1  A    between atoms: C_1  and  C_2
REMARK    2  A    between atoms: C_2  and  C_3
REMARK    3  A    between atoms: C_9  and  S_10
REMARK    4  A    between atoms: S_10  and  C_11
REMARK    5  A    between atoms: C_11  and  C_12
REMARK    6  A    between atoms: C_12  and  O_14
REMARK    7  A    between atoms: C_16  and  C_17
REMARK                            x       y       z     vdW  Elec       q    Type
REMARK                         _______ _______ _______ _____ _____    ______ ____
ROOT
ATOM      1  C   UNL     1       5.565   4.369  15.167  0.00  0.00    +0.000 A 
ATOM      2  S   UNL     1       7.122   5.026  15.389  0.00  0.00    +0.000 S 
ATOM      3  C   UNL     1       6.903   5.146  17.068  0.00  0.00    +0.000 A 
ATOM      4  N   UNL     1       7.917   5.599  17.821  0.00  0.00    +0.000 NA
ATOM      5  C   UNL     1       7.625   5.643  19.115  0.00  0.00    +0.000 A 
ATOM      6  N   UNL     1       6.460   5.314  19.695  0.00  0.00    +0.000 NA
ATOM      7  C   UNL     1       5.470   4.835  18.899  0.00  0.00    +0.000 A 
ATOM      8  C   UNL     1       5.649   4.733  17.501  0.00  0.00    +0.000 A 
ATOM      9  C   UNL     1       4.846   4.291  16.358  0.00  0.00    +0.000 A 
ATOM     10  C   UNL     1       3.431   3.789  16.369  0.00  0.00    +0.000 C 
ENDROOT
BRANCH   1  12
ATOM     11  C   UNL     1       6.345   3.637  12.908  0.00  0.00    +0.000 C 
ATOM     12  C   UNL     1       5.139   3.951  13.785  0.00  0.00    +0.000 C 
ENDBRANCH   1  12
BRANCH   7  13
ATOM     13  S   UNL     1       3.985   4.282  19.686  0.00  0.00    +0.000 S 
BRANCH  13  14
ATOM     14  C   UNL     1       4.319   2.524  19.961  0.00  0.00    +0.000 C 
BRANCH  14  15
ATOM     15  C   UNL     1       3.497   1.637  19.059  0.00  0.00    +0.000 C 
ATOM     16  O   UNL     1       2.281   1.715  18.939  0.00  0.00    +0.000 OA
BRANCH  15  17
ATOM     17  O   UNL     1       4.227   0.725  18.374  0.00  0.00    +0.000 OA
ATOM     18  H   UNL     1       4.044   0.772  17.409  0.00  0.00    +0.000 HD
ENDBRANCH  15  17
ENDBRANCH  14  15
ENDBRANCH  13  14
ENDBRANCH   7  13
TORSDOF 5
ENDMDL
MODEL 7
REMARK VINA RESULT:      -5.8      2.365      3.656
REMARK  Name = 
REMARK  7 active torsions:
REMARK  status: ('A' for Active; 'I' for Inactive)
REMARK    1  A    between atoms: C_1  and  C_2
REMARK    2  A    between atoms: C_2  and  C_3
REMARK    3  A    between atoms: C_9  and  S_10
REMARK    4  A    between atoms: S_10  and  C_11
REMARK    5  A    between atoms: C_11  and  C_12
REMARK    6  A    between atoms: C_12  and  O_14
REMARK    7  A    between atoms: C_16  and  C_17
REMARK                            x       y       z     vdW  Elec       q    Type
REMARK                         _______ _______ _______ _____ _____    ______ ____
ROOT
ATOM      1  C   UNL     1       1.974   7.055  19.846  0.00  0.00    +0.000 A 
ATOM      2  S   UNL     1       1.722   5.654  20.782  0.00  0.00    +0.000 S 
ATOM      3  C   UNL     1       2.825   4.756  19.856  0.00  0.00    +0.000 A 
ATOM      4  N   UNL     1       3.076   3.485  20.203  0.00  0.00    +0.000 NA
ATOM      5  C   UNL     1       3.956   2.892  19.405  0.00  0.00    +0.000 A 
ATOM      6  N   UNL     1       4.562   3.421  18.331  0.00  0.00    +0.000 NA
ATOM      7  C   UNL     1       4.299   4.718  18.031  0.00  0.00    +0.000 A 
ATOM      8  C   UNL     1       3.382   5.469  18.801  0.00  0.00    +0.000 A 
ATOM      9  C   UNL     1       2.853   6.836  18.786  0.00  0.00    +0.000 A 
ATOM     10  C   UNL     1       3.167   7.931  17.809  0.00  0.00    +0.000 C 
ENDROOT
BRANCH   1  12
ATOM     11  C   UNL     1       1.449   8.629  21.715  0.00  0.00    +0.000 C 
ATOM     12  C   UNL     1       1.271   8.328  20.232  0.00  0.00    +0.000 C 
ENDBRANCH   1  12
BRANCH   7  13
ATOM     13  S   UNL     1       5.199   5.446  16.692  0.00  0.00    +0.000 S 
BRANCH  13  14
ATOM     14  C   UNL     1       6.596   6.227  17.538  0.00  0.00    +0.000 C 
BRANCH  14  15
ATOM     15  C   UNL     1       7.212   5.325  18.579  0.00  0.00    +0.000 C 
ATOM     16  O   UNL     1       7.220   5.566  19.780  0.00  0.00    +0.000 OA
BRANCH  15  17
ATOM     17  O   UNL     1       7.769   4.201  18.070  0.00  0.00    +0.000 OA
ATOM     18  H   UNL     1       7.686   4.173  17.091  0.00  0.00    +0.000 HD
ENDBRANCH  15  17
ENDBRANCH  14  15
ENDBRANCH  13  14
ENDBRANCH   7  13
TORSDOF 5
ENDMDL
MODEL 8
REMARK VINA RESULT:      -5.7      1.098      1.289
REMARK  Name = 
REMARK  7 active torsions:
REMARK  status: ('A' for Active; 'I' for Inactive)
REMARK    1  A    between atoms: C_1  and  C_2
REMARK    2  A    between atoms: C_2  and  C_3
REMARK    3  A    between atoms: C_9  and  S_10
REMARK    4  A    between atoms: S_10  and  C_11
REMARK    5  A    between atoms: C_11  and  C_12
REMARK    6  A    between atoms: C_12  and  O_14
REMARK    7  A    between atoms: C_16  and  C_17
REMARK                            x       y       z     vdW  Elec       q    Type
REMARK                         _______ _______ _______ _____ _____    ______ ____
ROOT
ATOM      1  C   UNL     1       2.689   4.398  20.617  0.00  0.00    +0.000 A 
ATOM      2  S   UNL     1       2.003   5.957  20.571  0.00  0.00    +0.000 S 
ATOM      3  C   UNL     1       2.837   6.354  19.147  0.00  0.00    +0.000 A 
ATOM      4  N   UNL     1       2.622   7.554  18.586  0.00  0.00    +0.000 NA
ATOM      5  C   UNL     1       3.328   7.744  17.478  0.00  0.00    +0.000 A 
ATOM      6  N   UNL     1       4.204   6.894  16.918  0.00  0.00    +0.000 NA
ATOM      7  C   UNL     1       4.371   5.681  17.504  0.00  0.00    +0.000 A 
ATOM      8  C   UNL     1       3.677   5.347  18.690  0.00  0.00    +0.000 A 
ATOM      9  C   UNL     1       3.602   4.188  19.584  0.00  0.00    +0.000 A 
ATOM     10  C   UNL     1       4.358   2.896  19.478  0.00  0.00    +0.000 C 
ENDROOT
BRANCH   1  12
ATOM     11  C   UNL     1       1.095   2.580  21.248  0.00  0.00    +0.000 C 
ATOM     12  C   UNL     1       2.265   3.445  21.701  0.00  0.00    +0.000 C 
ENDBRANCH   1  12
BRANCH   7  13
ATOM     13  S   UNL     1       5.428   4.519  16.690  0.00  0.00    +0.000 S 
BRANCH  13  14
ATOM     14  C   UNL     1       6.979   4.689  17.608  0.00  0.00    +0.000 C 
BRANCH  14  15
ATOM     15  C   UNL     1       7.497   6.106  17.599  0.00  0.00    +0.000 C 
ATOM     16  O   UNL     1       7.630   6.784  16.587  0.00  0.00    +0.000 OA
BRANCH  15  17
ATOM     17  O   UNL     1       7.811   6.582  18.826  0.00  0.00    +0.000 OA
ATOM     18  H   UNL     1       8.774   6.772  18.900  0.00  0.00    +0.000 HD
ENDBRANCH  15  17
ENDBRANCH  14  15
ENDBRANCH  13  14
ENDBRANCH   7  13
TORSDOF 5
ENDMDL
MODEL 9
REMARK VINA RESULT:      -5.7      2.182      3.816
REMARK  Name = 
REMARK  7 active torsions:
REMARK  status: ('A' for Active; 'I' for Inactive)
REMARK    1  A    between atoms: C_1  and  C_2
REMARK    2  A    between atoms: C_2  and  C_3
REMARK    3  A    between atoms: C_9  and  S_10
REMARK    4  A    between atoms: S_10  and  C_11
REMARK    5  A    between atoms: C_11  and  C_12
REMARK    6  A    between atoms: C_12  and  O_14
REMARK    7  A    between atoms: C_16  and  C_17
REMARK                            x       y       z     vdW  Elec       q    Type
REMARK                         _______ _______ _______ _____ _____    ______ ____
ROOT
ATOM      1  C   UNL     1       2.930   7.362  18.182  0.00  0.00    +0.000 A 
ATOM      2  S   UNL     1       2.143   6.531  19.445  0.00  0.00    +0.000 S 
ATOM      3  C   UNL     1       3.274   5.266  19.406  0.00  0.00    +0.000 A 
ATOM      4  N   UNL     1       3.158   4.268  20.295  0.00  0.00    +0.000 NA
ATOM      5  C   UNL     1       4.102   3.343  20.165  0.00  0.00    +0.000 A 
ATOM      6  N   UNL     1       5.090   3.314  19.256  0.00  0.00    +0.000 NA
ATOM      7  C   UNL     1       5.186   4.358  18.393  0.00  0.00    +0.000 A 
ATOM      8  C   UNL     1       4.246   5.413  18.424  0.00  0.00    +0.000 A 
ATOM      9  C   UNL     1       4.022   6.657  17.680  0.00  0.00    +0.000 A 
ATOM     10  C   UNL     1       4.818   7.192  16.526  0.00  0.00    +0.000 C 
ENDROOT
BRANCH   1  12
ATOM     11  C   UNL     1       1.345   9.217  18.720  0.00  0.00    +0.000 C 
ATOM     12  C   UNL     1       2.406   8.706  17.754  0.00  0.00    +0.000 C 
ENDBRANCH   1  12
BRANCH   7  13
ATOM     13  S   UNL     1       6.566   4.377  17.285  0.00  0.00    +0.000 S 
BRANCH  13  14
ATOM     14  C   UNL     1       5.803   3.939  15.703  0.00  0.00    +0.000 C 
BRANCH  14  15
ATOM     15  C   UNL     1       6.672   4.309  14.526  0.00  0.00    +0.000 C 
ATOM     16  O   UNL     1       7.475   5.234  14.527  0.00  0.00    +0.000 OA
BRANCH  15  17
ATOM     17  O   UNL     1       6.491   3.518  13.442  0.00  0.00    +0.000 OA
ATOM     18  H   UNL     1       6.302   4.052  12.638  0.00  0.00    +0.000 HD
ENDBRANCH  15  17
ENDBRANCH  14  15
ENDBRANCH  13  14
ENDBRANCH   7  13
TORSDOF 5
ENDMDL
