MODEL 1
REMARK VINA RESULT:      -9.2      0.000      0.000
REMARK  Name = 
REMARK  5 active torsions:
REMARK  status: ('A' for Active; 'I' for Inactive)
REMARK    1  A    between atoms: N_4  and  C_5
REMARK    2  A    between atoms: C_5  and  C_6
REMARK    3  A    between atoms: C_15  and  C_16
REMARK    4  A    between atoms: N_18  and  C_19
REMARK    5  A    between atoms: C_19  and  C_20
REMARK                            x       y       z     vdW  Elec       q    Type
REMARK                         _______ _______ _______ _____ _____    ______ ____
ROOT
ATOM      1  C   UNL     1       1.880   8.671  18.376  0.00  0.00    +0.000 C 
ATOM      2  O   UNL     1       1.714   8.027  17.338  0.00  0.00    +0.000 OA
ATOM      3  N   UNL     1       2.149   8.130  19.616  0.00  0.00    +0.000 N 
ATOM      4  C   UNL     1       2.277   6.760  19.740  0.00  0.00    +0.000 A 
ATOM      5  N   UNL     1       1.627   6.107  20.705  0.00  0.00    +0.000 NA
ATOM      6  N   UNL     1       1.816   4.812  20.383  0.00  0.00    +0.000 N 
ATOM      7  C   UNL     1       2.711   4.607  19.367  0.00  0.00    +0.000 A 
ATOM      8  C   UNL     1       3.209   3.443  18.781  0.00  0.00    +0.000 A 
ATOM      9  C   UNL     1       4.167   3.600  17.770  0.00  0.00    +0.000 A 
ATOM     10  C   UNL     1       4.607   4.867  17.358  0.00  0.00    +0.000 A 
ATOM     11  C   UNL     1       4.042   6.016  17.932  0.00  0.00    +0.000 A 
ATOM     12  C   UNL     1       3.071   5.882  18.945  0.00  0.00    +0.000 A 
ATOM     13  H   UNL     1       1.705   8.579  20.407  0.00  0.00    +0.000 HD
ATOM     14  H   UNL     1       1.309   4.108  20.906  0.00  0.00    +0.000 HD
ENDROOT
BRANCH  10  15
ATOM     15  C   UNL     1       5.625   5.009  16.332  0.00  0.00    +0.000 A 
ATOM     16  C   UNL     1       5.512   4.614  15.015  0.00  0.00    +0.000 A 
ATOM     17  N   UNL     1       6.698   4.998  14.460  0.00  0.00    +0.000 N 
ATOM     18  N   UNL     1       7.504   5.570  15.375  0.00  0.00    +0.000 NA
ATOM     19  N   UNL     1       6.861   5.559  16.533  0.00  0.00    +0.000 NA
BRANCH  17  20
ATOM     20  C   UNL     1       7.065   4.978  13.056  0.00  0.00    +0.000 C 
BRANCH  20  21
ATOM     21  C   UNL     1       6.634   3.710  12.364  0.00  0.00    +0.000 A 
ATOM     22  C   UNL     1       5.273   3.427  12.171  0.00  0.00    +0.000 A 
ATOM     23  C   UNL     1       4.880   2.290  11.462  0.00  0.00    +0.000 A 
ATOM     24  C   UNL     1       5.840   1.425  10.940  0.00  0.00    +0.000 A 
ATOM     25  C   UNL     1       7.193   1.685  11.139  0.00  0.00    +0.000 A 
ATOM     26  C   UNL     1       7.589   2.819  11.847  0.00  0.00    +0.000 A 
ENDBRANCH  20  21
ENDBRANCH  17  20
ENDBRANCH  10  15
BRANCH   1  27
ATOM     27  C   UNL     1       1.767  10.193  18.363  0.00  0.00    +0.000 C 
BRANCH  27  31
ATOM     28  O   UNL     1      -2.267  11.425  17.599  0.00  0.00    +0.000 OA
ATOM     29  C   UNL     1      -1.188  11.599  18.165  0.00  0.00    +0.000 C 
ATOM     30  C   UNL     1      -0.574  10.544  19.101  0.00  0.00    +0.000 C 
ATOM     31  N   UNL     1       0.875  10.708  19.424  0.00  0.00    +0.000 NA
ATOM     32  C   UNL     1       1.151  12.136  19.691  0.00  0.00    +0.000 C 
ATOM     33  C   UNL     1       0.772  13.058  18.524  0.00  0.00    +0.000 C 
ATOM     34  N   UNL     1      -0.573  12.818  18.059  0.00  0.00    +0.000 N 
ATOM     35  H   UNL     1      -1.012  13.457  17.407  0.00  0.00    +0.000 HD
ENDBRANCH  27  31
ENDBRANCH   1  27
TORSDOF 5
ENDMDL
MODEL 2
REMARK VINA RESULT:      -8.8      4.179      6.630
REMARK  Name = 
REMARK  5 active torsions:
REMARK  status: ('A' for Active; 'I' for Inactive)
REMARK    1  A    between atoms: N_4  and  C_5
REMARK    2  A    between atoms: C_5  and  C_6
REMARK    3  A    between atoms: C_15  and  C_16
REMARK    4  A    between atoms: N_18  and  C_19
REMARK    5  A    between atoms: C_19  and  C_20
REMARK                            x       y       z     vdW  Elec       q    Type
REMARK                         _______ _______ _______ _____ _____    ______ ____
ROOT
ATOM      1  C   UNL     1      -0.544  13.788  19.800  0.00  0.00    +0.000 C 
ATOM      2  O   UNL     1      -1.063  12.867  19.166  0.00  0.00    +0.000 OA
ATOM      3  N   UNL     1      -0.191  13.739  21.133  0.00  0.00    +0.000 N 
ATOM      4  C   UNL     1      -0.396  12.571  21.841  0.00  0.00    +0.000 A 
ATOM      5  N   UNL     1      -0.995  12.603  23.033  0.00  0.00    +0.000 NA
ATOM      6  N   UNL     1      -1.208  11.299  23.306  0.00  0.00    +0.000 N 
ATOM      7  C   UNL     1      -0.604  10.434  22.433  0.00  0.00    +0.000 A 
ATOM      8  C   UNL     1      -0.541   9.041  22.394  0.00  0.00    +0.000 A 
ATOM      9  C   UNL     1       0.215   8.467  21.362  0.00  0.00    +0.000 A 
ATOM     10  C   UNL     1       0.877   9.253  20.407  0.00  0.00    +0.000 A 
ATOM     11  C   UNL     1       0.744  10.650  20.446  0.00  0.00    +0.000 A 
ATOM     12  C   UNL     1      -0.018  11.247  21.471  0.00  0.00    +0.000 A 
ATOM     13  H   UNL     1      -0.347  14.583  21.668  0.00  0.00    +0.000 HD
ATOM     14  H   UNL     1      -1.768  11.064  24.116  0.00  0.00    +0.000 HD
ENDROOT
BRANCH  10  15
ATOM     15  C   UNL     1       1.683   8.643  19.364  0.00  0.00    +0.000 A 
ATOM     16  C   UNL     1       2.329   7.427  19.443  0.00  0.00    +0.000 A 
ATOM     17  N   UNL     1       2.903   7.285  18.213  0.00  0.00    +0.000 N 
ATOM     18  N   UNL     1       2.653   8.353  17.431  0.00  0.00    +0.000 NA
ATOM     19  N   UNL     1       1.924   9.203  18.139  0.00  0.00    +0.000 NA
BRANCH  17  20
ATOM     20  C   UNL     1       3.573   6.114  17.680  0.00  0.00    +0.000 C 
BRANCH  20  21
ATOM     21  C   UNL     1       5.055   6.119  17.954  0.00  0.00    +0.000 A 
ATOM     22  C   UNL     1       5.926   6.885  17.164  0.00  0.00    +0.000 A 
ATOM     23  C   UNL     1       7.287   6.948  17.468  0.00  0.00    +0.000 A 
ATOM     24  C   UNL     1       7.793   6.248  18.561  0.00  0.00    +0.000 A 
ATOM     25  C   UNL     1       6.942   5.471  19.343  0.00  0.00    +0.000 A 
ATOM     26  C   UNL     1       5.582   5.405  19.042  0.00  0.00    +0.000 A 
ENDBRANCH  20  21
ENDBRANCH  17  20
ENDBRANCH  10  15
BRANCH   1  27
ATOM     27  C   UNL     1      -0.266  15.126  19.122  0.00  0.00    +0.000 C 
BRANCH  27  31
ATOM     28  O   UNL     1       1.513  18.631  17.412  0.00  0.00    +0.000 OA
ATOM     29  C   UNL     1       1.621  17.582  18.047  0.00  0.00    +0.000 C 
ATOM     30  C   UNL     1       0.845  17.330  19.352  0.00  0.00    +0.000 C 
ATOM     31  N   UNL     1       0.774  15.913  19.818  0.00  0.00    +0.000 NA
ATOM     32  C   UNL     1       2.103  15.285  19.653  0.00  0.00    +0.000 C 
ATOM     33  C   UNL     1       2.624  15.331  18.210  0.00  0.00    +0.000 C 
ATOM     34  N   UNL     1       2.552  16.660  17.651  0.00  0.00    +0.000 N 
ATOM     35  H   UNL     1       3.008  16.872  16.771  0.00  0.00    +0.000 HD
ENDBRANCH  27  31
ENDBRANCH   1  27
TORSDOF 5
ENDMDL
MODEL 3
REMARK VINA RESULT:      -8.7      2.666      9.321
REMARK  Name = 
REMARK  5 active torsions:
REMARK  status: ('A' for Active; 'I' for Inactive)
REMARK    1  A    between atoms: N_4  and  C_5
REMARK    2  A    between atoms: C_5  and  C_6
REMARK    3  A    between atoms: C_15  and  C_16
REMARK    4  A    between atoms: N_18  and  C_19
REMARK    5  A    between atoms: C_19  and  C_20
REMARK                            x       y       z     vdW  Elec       q    Type
REMARK                         _______ _______ _______ _____ _____    ______ ____
ROOT
ATOM      1  C   UNL     1       5.757   4.113  16.811  0.00  0.00    +0.000 C 
ATOM      2  O   UNL     1       6.061   5.024  17.585  0.00  0.00    +0.000 OA
ATOM      3  N   UNL     1       4.793   3.155  17.046  0.00  0.00    +0.000 N 
ATOM      4  C   UNL     1       4.067   3.204  18.221  0.00  0.00    +0.000 A 
ATOM      5  N   UNL     1       3.912   2.105  18.963  0.00  0.00    +0.000 NA
ATOM      6  N   UNL     1       3.356   2.576  20.097  0.00  0.00    +0.000 N 
ATOM      7  C   UNL     1       2.978   3.891  20.038  0.00  0.00    +0.000 A 
ATOM      8  C   UNL     1       2.339   4.721  20.960  0.00  0.00    +0.000 A 
ATOM      9  C   UNL     1       2.058   6.031  20.547  0.00  0.00    +0.000 A 
ATOM     10  C   UNL     1       2.405   6.494  19.269  0.00  0.00    +0.000 A 
ATOM     11  C   UNL     1       3.097   5.647  18.390  0.00  0.00    +0.000 A 
ATOM     12  C   UNL     1       3.397   4.327  18.787  0.00  0.00    +0.000 A 
ATOM     13  H   UNL     1       5.004   2.219  16.727  0.00  0.00    +0.000 HD
ATOM     14  H   UNL     1       3.251   1.941  20.879  0.00  0.00    +0.000 HD
ENDROOT
BRANCH  10  15
ATOM     15  C   UNL     1       2.077   7.844  18.847  0.00  0.00    +0.000 A 
ATOM     16  C   UNL     1       1.284   8.740  19.534  0.00  0.00    +0.000 A 
ATOM     17  N   UNL     1       1.318   9.862  18.758  0.00  0.00    +0.000 N 
ATOM     18  N   UNL     1       2.061   9.669  17.651  0.00  0.00    +0.000 NA
ATOM     19  N   UNL     1       2.511   8.424  17.686  0.00  0.00    +0.000 NA
BRANCH  17  20
ATOM     20  C   UNL     1       0.789  11.175  19.078  0.00  0.00    +0.000 C 
BRANCH  20  21
ATOM     21  C   UNL     1      -0.691  11.284  18.811  0.00  0.00    +0.000 A 
ATOM     22  C   UNL     1      -1.306  10.466  17.851  0.00  0.00    +0.000 A 
ATOM     23  C   UNL     1      -2.689  10.516  17.660  0.00  0.00    +0.000 A 
ATOM     24  C   UNL     1      -3.469  11.382  18.424  0.00  0.00    +0.000 A 
ATOM     25  C   UNL     1      -2.869  12.211  19.367  0.00  0.00    +0.000 A 
ATOM     26  C   UNL     1      -1.488  12.164  19.560  0.00  0.00    +0.000 A 
ENDBRANCH  20  21
ENDBRANCH  17  20
ENDBRANCH  10  15
BRANCH   1  27
ATOM     27  C   UNL     1       6.488   3.960  15.480  0.00  0.00    +0.000 C 
BRANCH  27  31
ATOM     28  O   UNL     1       5.618   2.289  11.631  0.00  0.00    +0.000 OA
ATOM     29  C   UNL     1       6.026   3.224  12.319  0.00  0.00    +0.000 C 
ATOM     30  C   UNL     1       5.151   3.893  13.394  0.00  0.00    +0.000 C 
ATOM     31  N   UNL     1       5.864   4.743  14.394  0.00  0.00    +0.000 NA
ATOM     32  C   UNL     1       6.875   5.564  13.694  0.00  0.00    +0.000 C 
ATOM     33  C   UNL     1       7.893   4.732  12.901  0.00  0.00    +0.000 C 
ATOM     34  N   UNL     1       7.251   3.768  12.040  0.00  0.00    +0.000 N 
ATOM     35  H   UNL     1       7.787   3.265  11.343  0.00  0.00    +0.000 HD
ENDBRANCH  27  31
ENDBRANCH   1  27
TORSDOF 5
ENDMDL
MODEL 4
REMARK VINA RESULT:      -8.7      1.218      1.529
REMARK  Name = 
REMARK  5 active torsions:
REMARK  status: ('A' for Active; 'I' for Inactive)
REMARK    1  A    between atoms: N_4  and  C_5
REMARK    2  A    between atoms: C_5  and  C_6
REMARK    3  A    between atoms: C_15  and  C_16
REMARK    4  A    between atoms: N_18  and  C_19
REMARK    5  A    between atoms: C_19  and  C_20
REMARK                            x       y       z     vdW  Elec       q    Type
REMARK                         _______ _______ _______ _____ _____    ______ ____
ROOT
ATOM      1  C   UNL     1       1.945   8.038  18.990  0.00  0.00    +0.000 C 
ATOM      2  O   UNL     1       1.753   7.574  17.864  0.00  0.00    +0.000 OA
ATOM      3  N   UNL     1       2.204   7.298  20.125  0.00  0.00    +0.000 N 
ATOM      4  C   UNL     1       2.289   5.923  20.027  0.00  0.00    +0.000 A 
ATOM      5  N   UNL     1       1.624   5.144  20.883  0.00  0.00    +0.000 NA
ATOM      6  N   UNL     1       1.771   3.912  20.356  0.00  0.00    +0.000 N 
ATOM      7  C   UNL     1       2.654   3.845  19.311  0.00  0.00    +0.000 A 
ATOM      8  C   UNL     1       3.111   2.775  18.542  0.00  0.00    +0.000 A 
ATOM      9  C   UNL     1       4.069   3.062  17.559  0.00  0.00    +0.000 A 
ATOM     10  C   UNL     1       4.546   4.365  17.350  0.00  0.00    +0.000 A 
ATOM     11  C   UNL     1       4.021   5.424  18.106  0.00  0.00    +0.000 A 
ATOM     12  C   UNL     1       3.051   5.159  19.095  0.00  0.00    +0.000 A 
ATOM     13  H   UNL     1       1.778   7.628  20.981  0.00  0.00    +0.000 HD
ATOM     14  H   UNL     1       1.245   3.149  20.765  0.00  0.00    +0.000 HD
ENDROOT
BRANCH  10  15
ATOM     15  C   UNL     1       5.563   4.639  16.350  0.00  0.00    +0.000 A 
ATOM     16  C   UNL     1       5.506   4.287  15.017  0.00  0.00    +0.000 A 
ATOM     17  N   UNL     1       6.661   4.798  14.499  0.00  0.00    +0.000 N 
ATOM     18  N   UNL     1       7.397   5.404  15.451  0.00  0.00    +0.000 NA
ATOM     19  N   UNL     1       6.740   5.290  16.595  0.00  0.00    +0.000 NA
BRANCH  17  20
ATOM     20  C   UNL     1       7.050   4.865  13.103  0.00  0.00    +0.000 C 
BRANCH  20  21
ATOM     21  C   UNL     1       6.673   3.623  12.336  0.00  0.00    +0.000 A 
ATOM     22  C   UNL     1       5.326   3.313  12.094  0.00  0.00    +0.000 A 
ATOM     23  C   UNL     1       4.983   2.204  11.319  0.00  0.00    +0.000 A 
ATOM     24  C   UNL     1       5.979   1.393  10.779  0.00  0.00    +0.000 A 
ATOM     25  C   UNL     1       7.319   1.680  11.026  0.00  0.00    +0.000 A 
ATOM     26  C   UNL     1       7.666   2.787  11.801  0.00  0.00    +0.000 A 
ENDBRANCH  20  21
ENDBRANCH  17  20
ENDBRANCH  10  15
BRANCH   1  27
ATOM     27  C   UNL     1       1.879   9.545  19.220  0.00  0.00    +0.000 C 
BRANCH  27  31
ATOM     28  O   UNL     1       0.937  13.674  19.881  0.00  0.00    +0.000 OA
ATOM     29  C   UNL     1       0.647  12.483  19.995  0.00  0.00    +0.000 C 
ATOM     30  C   UNL     1       0.499  11.556  18.775  0.00  0.00    +0.000 C 
ATOM     31  N   UNL     1       0.514  10.088  19.053  0.00  0.00    +0.000 NA
ATOM     32  C   UNL     1      -0.307   9.816  20.252  0.00  0.00    +0.000 C 
ATOM     33  C   UNL     1       0.158  10.585  21.497  0.00  0.00    +0.000 C 
ATOM     34  N   UNL     1       0.326  11.994  21.232  0.00  0.00    +0.000 N 
ATOM     35  H   UNL     1       0.471  12.646  21.994  0.00  0.00    +0.000 HD
ENDBRANCH  27  31
ENDBRANCH   1  27
TORSDOF 5
ENDMDL
MODEL 5
REMARK VINA RESULT:      -8.7      1.185      1.748
REMARK  Name = 
REMARK  5 active torsions:
REMARK  status: ('A' for Active; 'I' for Inactive)
REMARK    1  A    between atoms: N_4  and  C_5
REMARK    2  A    between atoms: C_5  and  C_6
REMARK    3  A    between atoms: C_15  and  C_16
REMARK    4  A    between atoms: N_18  and  C_19
REMARK    5  A    between atoms: C_19  and  C_20
REMARK                            x       y       z     vdW  Elec       q    Type
REMARK                         _______ _______ _______ _____ _____    ______ ____
ROOT
ATOM      1  C   UNL     1       1.963   7.460  19.336  0.00  0.00    +0.000 C 
ATOM      2  O   UNL     1       1.769   7.066  18.184  0.00  0.00    +0.000 OA
ATOM      3  N   UNL     1       2.308   6.659  20.405  0.00  0.00    +0.000 N 
ATOM      4  C   UNL     1       2.487   5.304  20.202  0.00  0.00    +0.000 A 
ATOM      5  N   UNL     1       1.905   4.419  21.013  0.00  0.00    +0.000 NA
ATOM      6  N   UNL     1       2.122   3.242  20.392  0.00  0.00    +0.000 N 
ATOM      7  C   UNL     1       2.975   3.317  19.323  0.00  0.00    +0.000 A 
ATOM      8  C   UNL     1       3.482   2.341  18.464  0.00  0.00    +0.000 A 
ATOM      9  C   UNL     1       4.387   2.769  17.481  0.00  0.00    +0.000 A 
ATOM     10  C   UNL     1       4.764   4.114  17.358  0.00  0.00    +0.000 A 
ATOM     11  C   UNL     1       4.189   5.075  18.204  0.00  0.00    +0.000 A 
ATOM     12  C   UNL     1       3.271   4.669  19.195  0.00  0.00    +0.000 A 
ATOM     13  H   UNL     1       1.887   6.894  21.294  0.00  0.00    +0.000 HD
ATOM     14  H   UNL     1       1.664   2.416  20.756  0.00  0.00    +0.000 HD
ENDROOT
BRANCH  10  15
ATOM     15  C   UNL     1       5.727   4.533  16.355  0.00  0.00    +0.000 A 
ATOM     16  C   UNL     1       5.786   4.089  15.051  0.00  0.00    +0.000 A 
ATOM     17  N   UNL     1       6.819   4.802  14.514  0.00  0.00    +0.000 N 
ATOM     18  N   UNL     1       7.380   5.616  15.429  0.00  0.00    +0.000 NA
ATOM     19  N   UNL     1       6.729   5.439  16.570  0.00  0.00    +0.000 NA
BRANCH  17  20
ATOM     20  C   UNL     1       7.225   4.858  13.122  0.00  0.00    +0.000 C 
BRANCH  20  21
ATOM     21  C   UNL     1       6.700   3.696  12.318  0.00  0.00    +0.000 A 
ATOM     22  C   UNL     1       7.580   2.747  11.774  0.00  0.00    +0.000 A 
ATOM     23  C   UNL     1       7.086   1.631  11.095  0.00  0.00    +0.000 A 
ATOM     24  C   UNL     1       5.712   1.451  10.953  0.00  0.00    +0.000 A 
ATOM     25  C   UNL     1       4.829   2.393  11.473  0.00  0.00    +0.000 A 
ATOM     26  C   UNL     1       5.319   3.510  12.151  0.00  0.00    +0.000 A 
ENDBRANCH  20  21
ENDBRANCH  17  20
ENDBRANCH  10  15
BRANCH   1  27
ATOM     27  C   UNL     1       1.798   8.937  19.680  0.00  0.00    +0.000 C 
BRANCH  27  31
ATOM     28  O   UNL     1       0.803  12.912  18.423  0.00  0.00    +0.000 OA
ATOM     29  C   UNL     1       0.600  11.943  19.154  0.00  0.00    +0.000 C 
ATOM     30  C   UNL     1       0.261  10.550  18.593  0.00  0.00    +0.000 C 
ATOM     31  N   UNL     1       0.402   9.403  19.540  0.00  0.00    +0.000 NA
ATOM     32  C   UNL     1      -0.155   9.791  20.853  0.00  0.00    +0.000 C 
ATOM     33  C   UNL     1       0.507  11.041  21.451  0.00  0.00    +0.000 C 
ATOM     34  N   UNL     1       0.551  12.133  20.509  0.00  0.00    +0.000 N 
ATOM     35  H   UNL     1       0.811  13.064  20.814  0.00  0.00    +0.000 HD
ENDBRANCH  27  31
ENDBRANCH   1  27
TORSDOF 5
ENDMDL
MODEL 6
REMARK VINA RESULT:      -8.6      1.859      2.543
REMARK  Name = 
REMARK  5 active torsions:
REMARK  status: ('A' for Active; 'I' for Inactive)
REMARK    1  A    between atoms: N_4  and  C_5
REMARK    2  A    between atoms: C_5  and  C_6
REMARK    3  A    between atoms: C_15  and  C_16
REMARK    4  A    between atoms: N_18  and  C_19
REMARK    5  A    between atoms: C_19  and  C_20
REMARK                            x       y       z     vdW  Elec       q    Type
REMARK                         _______ _______ _______ _____ _____    ______ ____
ROOT
ATOM      1  C   UNL     1       1.699   6.727  20.353  0.00  0.00    +0.000 C 
ATOM      2  O   UNL     1       1.343   6.474  19.200  0.00  0.00    +0.000 OA
ATOM      3  N   UNL     1       2.240   5.818  21.238  0.00  0.00    +0.000 N 
ATOM      4  C   UNL     1       2.439   4.514  20.828  0.00  0.00    +0.000 A 
ATOM      5  N   UNL     1       2.028   3.497  21.589  0.00  0.00    +0.000 NA
ATOM      6  N   UNL     1       2.192   2.426  20.786  0.00  0.00    +0.000 N 
ATOM      7  C   UNL     1       2.862   2.690  19.622  0.00  0.00    +0.000 A 
ATOM      8  C   UNL     1       3.267   1.866  18.571  0.00  0.00    +0.000 A 
ATOM      9  C   UNL     1       3.988   2.470  17.531  0.00  0.00    +0.000 A 
ATOM     10  C   UNL     1       4.287   3.841  17.538  0.00  0.00    +0.000 A 
ATOM     11  C   UNL     1       3.814   4.648  18.585  0.00  0.00    +0.000 A 
ATOM     12  C   UNL     1       3.080   4.062  19.637  0.00  0.00    +0.000 A 
ATOM     13  H   UNL     1       1.955   5.910  22.205  0.00  0.00    +0.000 HD
ATOM     14  H   UNL     1       1.830   1.533  21.099  0.00  0.00    +0.000 HD
ENDROOT
BRANCH  10  15
ATOM     15  C   UNL     1       5.063   4.444  16.469  0.00  0.00    +0.000 A 
ATOM     16  C   UNL     1       5.822   3.768  15.537  0.00  0.00    +0.000 A 
ATOM     17  N   UNL     1       6.310   4.761  14.737  0.00  0.00    +0.000 N 
ATOM     18  N   UNL     1       5.902   5.974  15.159  0.00  0.00    +0.000 NA
ATOM     19  N   UNL     1       5.155   5.789  16.237  0.00  0.00    +0.000 NA
BRANCH  17  20
ATOM     20  C   UNL     1       7.042   4.615  13.493  0.00  0.00    +0.000 C 
BRANCH  20  21
ATOM     21  C   UNL     1       6.373   3.663  12.535  0.00  0.00    +0.000 A 
ATOM     22  C   UNL     1       7.096   2.612  11.950  0.00  0.00    +0.000 A 
ATOM     23  C   UNL     1       6.456   1.686  11.123  0.00  0.00    +0.000 A 
ATOM     24  C   UNL     1       5.090   1.800  10.872  0.00  0.00    +0.000 A 
ATOM     25  C   UNL     1       4.365   2.848  11.433  0.00  0.00    +0.000 A 
ATOM     26  C   UNL     1       5.001   3.775  12.259  0.00  0.00    +0.000 A 
ENDBRANCH  20  21
ENDBRANCH  17  20
ENDBRANCH  10  15
BRANCH   1  27
ATOM     27  C   UNL     1       1.531   8.135  20.917  0.00  0.00    +0.000 C 
BRANCH  27  31
ATOM     28  O   UNL     1       0.864  12.343  20.457  0.00  0.00    +0.000 OA
ATOM     29  C   UNL     1       0.508  11.250  20.895  0.00  0.00    +0.000 C 
ATOM     30  C   UNL     1       0.256  10.041  19.976  0.00  0.00    +0.000 C 
ATOM     31  N   UNL     1       0.196   8.705  20.640  0.00  0.00    +0.000 NA
ATOM     32  C   UNL     1      -0.592   8.821  21.886  0.00  0.00    +0.000 C 
ATOM     33  C   UNL     1      -0.032   9.863  22.866  0.00  0.00    +0.000 C 
ATOM     34  N   UNL     1       0.208  11.133  22.225  0.00  0.00    +0.000 N 
ATOM     35  H   UNL     1       0.423  11.955  22.780  0.00  0.00    +0.000 HD
ENDBRANCH  27  31
ENDBRANCH   1  27
TORSDOF 5
ENDMDL
MODEL 7
REMARK VINA RESULT:      -8.6      4.315      6.742
REMARK  Name = 
REMARK  5 active torsions:
REMARK  status: ('A' for Active; 'I' for Inactive)
REMARK    1  A    between atoms: N_4  and  C_5
REMARK    2  A    between atoms: C_5  and  C_6
REMARK    3  A    between atoms: C_15  and  C_16
REMARK    4  A    between atoms: N_18  and  C_19
REMARK    5  A    between atoms: C_19  and  C_20
REMARK                            x       y       z     vdW  Elec       q    Type
REMARK                         _______ _______ _______ _____ _____    ______ ____
ROOT
ATOM      1  C   UNL     1      -0.375  13.464  19.385  0.00  0.00    +0.000 C 
ATOM      2  O   UNL     1      -0.883  12.484  18.835  0.00  0.00    +0.000 OA
ATOM      3  N   UNL     1      -0.058  13.551  20.725  0.00  0.00    +0.000 N 
ATOM      4  C   UNL     1      -0.290  12.464  21.544  0.00  0.00    +0.000 A 
ATOM      5  N   UNL     1      -0.921  12.621  22.710  0.00  0.00    +0.000 NA
ATOM      6  N   UNL     1      -1.150  11.354  23.110  0.00  0.00    +0.000 N 
ATOM      7  C   UNL     1      -0.529  10.400  22.348  0.00  0.00    +0.000 A 
ATOM      8  C   UNL     1      -0.475   9.010  22.455  0.00  0.00    +0.000 A 
ATOM      9  C   UNL     1       0.305   8.330  21.508  0.00  0.00    +0.000 A 
ATOM     10  C   UNL     1       0.998   9.010  20.495  0.00  0.00    +0.000 A 
ATOM     11  C   UNL     1       0.874  10.404  20.386  0.00  0.00    +0.000 A 
ATOM     12  C   UNL     1       0.088  11.107  21.323  0.00  0.00    +0.000 A 
ATOM     13  H   UNL     1      -0.223  14.447  21.166  0.00  0.00    +0.000 HD
ATOM     14  H   UNL     1      -1.733  11.206  23.924  0.00  0.00    +0.000 HD
ENDROOT
BRANCH  10  15
ATOM     15  C   UNL     1       1.828   8.292  19.543  0.00  0.00    +0.000 A 
ATOM     16  C   UNL     1       2.362   7.033  19.719  0.00  0.00    +0.000 A 
ATOM     17  N   UNL     1       3.014   6.792  18.545  0.00  0.00    +0.000 N 
ATOM     18  N   UNL     1       2.913   7.841  17.705  0.00  0.00    +0.000 NA
ATOM     19  N   UNL     1       2.206   8.776  18.321  0.00  0.00    +0.000 NA
BRANCH  17  20
ATOM     20  C   UNL     1       3.623   5.549  18.111  0.00  0.00    +0.000 C 
BRANCH  20  21
ATOM     21  C   UNL     1       2.902   4.335  18.638  0.00  0.00    +0.000 A 
ATOM     22  C   UNL     1       3.375   3.658  19.773  0.00  0.00    +0.000 A 
ATOM     23  C   UNL     1       2.662   2.580  20.303  0.00  0.00    +0.000 A 
ATOM     24  C   UNL     1       1.472   2.168  19.708  0.00  0.00    +0.000 A 
ATOM     25  C   UNL     1       1.000   2.821  18.572  0.00  0.00    +0.000 A 
ATOM     26  C   UNL     1       1.710   3.897  18.039  0.00  0.00    +0.000 A 
ENDBRANCH  20  21
ENDBRANCH  17  20
ENDBRANCH  10  15
BRANCH   1  27
ATOM     27  C   UNL     1      -0.069  14.724  18.580  0.00  0.00    +0.000 C 
BRANCH  27  31
ATOM     28  O   UNL     1      -1.168  18.631  17.203  0.00  0.00    +0.000 OA
ATOM     29  C   UNL     1      -0.401  17.897  17.826  0.00  0.00    +0.000 C 
ATOM     30  C   UNL     1      -0.874  17.029  19.006  0.00  0.00    +0.000 C 
ATOM     31  N   UNL     1       0.043  15.929  19.429  0.00  0.00    +0.000 NA
ATOM     32  C   UNL     1       1.432  16.435  19.436  0.00  0.00    +0.000 C 
ATOM     33  C   UNL     1       1.884  16.995  18.080  0.00  0.00    +0.000 C 
ATOM     34  N   UNL     1       0.938  17.943  17.543  0.00  0.00    +0.000 N 
ATOM     35  H   UNL     1       1.180  18.510  16.738  0.00  0.00    +0.000 HD
ENDBRANCH  27  31
ENDBRANCH   1  27
TORSDOF 5
ENDMDL
MODEL 8
REMARK VINA RESULT:      -8.6      2.749      8.838
REMARK  Name = 
REMARK  5 active torsions:
REMARK  status: ('A' for Active; 'I' for Inactive)
REMARK    1  A    between atoms: N_4  and  C_5
REMARK    2  A    between atoms: C_5  and  C_6
REMARK    3  A    between atoms: C_15  and  C_16
REMARK    4  A    between atoms: N_18  and  C_19
REMARK    5  A    between atoms: C_19  and  C_20
REMARK                            x       y       z     vdW  Elec       q    Type
REMARK                         _______ _______ _______ _____ _____    ______ ____
ROOT
ATOM      1  C   UNL     1       6.534   4.620  18.696  0.00  0.00    +0.000 C 
ATOM      2  O   UNL     1       6.417   5.485  19.567  0.00  0.00    +0.000 OA
ATOM      3  N   UNL     1       5.669   3.563  18.501  0.00  0.00    +0.000 N 
ATOM      4  C   UNL     1       4.555   3.446  19.309  0.00  0.00    +0.000 A 
ATOM      5  N   UNL     1       4.261   2.279  19.885  0.00  0.00    +0.000 NA
ATOM      6  N   UNL     1       3.269   2.599  20.741  0.00  0.00    +0.000 N 
ATOM      7  C   UNL     1       2.792   3.874  20.601  0.00  0.00    +0.000 A 
ATOM      8  C   UNL     1       1.762   4.562  21.244  0.00  0.00    +0.000 A 
ATOM      9  C   UNL     1       1.508   5.872  20.815  0.00  0.00    +0.000 A 
ATOM     10  C   UNL     1       2.253   6.472  19.789  0.00  0.00    +0.000 A 
ATOM     11  C   UNL     1       3.318   5.769  19.204  0.00  0.00    +0.000 A 
ATOM     12  C   UNL     1       3.596   4.452  19.626  0.00  0.00    +0.000 A 
ATOM     13  H   UNL     1       6.092   2.680  18.245  0.00  0.00    +0.000 HD
ATOM     14  H   UNL     1       2.952   1.892  21.394  0.00  0.00    +0.000 HD
ENDROOT
BRANCH  10  15
ATOM     15  C   UNL     1       1.954   7.818  19.334  0.00  0.00    +0.000 A 
ATOM     16  C   UNL     1       1.190   8.751  20.004  0.00  0.00    +0.000 A 
ATOM     17  N   UNL     1       1.244   9.851  19.199  0.00  0.00    +0.000 N 
ATOM     18  N   UNL     1       1.971   9.611  18.091  0.00  0.00    +0.000 NA
ATOM     19  N   UNL     1       2.391   8.357  18.155  0.00  0.00    +0.000 NA
BRANCH  17  20
ATOM     20  C   UNL     1       0.750  11.185  19.490  0.00  0.00    +0.000 C 
BRANCH  20  21
ATOM     21  C   UNL     1      -0.725  11.329  19.214  0.00  0.00    +0.000 A 
ATOM     22  C   UNL     1      -1.519  12.182  19.996  0.00  0.00    +0.000 A 
ATOM     23  C   UNL     1      -2.868  12.372  19.690  0.00  0.00    +0.000 A 
ATOM     24  C   UNL     1      -3.438  11.712  18.602  0.00  0.00    +0.000 A 
ATOM     25  C   UNL     1      -2.665  10.850  17.829  0.00  0.00    +0.000 A 
ATOM     26  C   UNL     1      -1.317  10.658  18.132  0.00  0.00    +0.000 A 
ENDBRANCH  20  21
ENDBRANCH  17  20
ENDBRANCH  10  15
BRANCH   1  27
ATOM     27  C   UNL     1       7.724   4.647  17.741  0.00  0.00    +0.000 C 
BRANCH  27  31
ATOM     28  O   UNL     1       3.965   6.259  16.460  0.00  0.00    +0.000 OA
ATOM     29  C   UNL     1       5.103   5.872  16.198  0.00  0.00    +0.000 C 
ATOM     30  C   UNL     1       6.352   6.504  16.839  0.00  0.00    +0.000 C 
ATOM     31  N   UNL     1       7.620   5.722  16.731  0.00  0.00    +0.000 NA
ATOM     32  C   UNL     1       7.730   5.169  15.365  0.00  0.00    +0.000 C 
ATOM     33  C   UNL     1       6.540   4.284  14.967  0.00  0.00    +0.000 C 
ATOM     34  N   UNL     1       5.276   4.935  15.215  0.00  0.00    +0.000 N 
ATOM     35  H   UNL     1       4.415   4.539  14.854  0.00  0.00    +0.000 HD
ENDBRANCH  27  31
ENDBRANCH   1  27
TORSDOF 5
ENDMDL
MODEL 9
REMARK VINA RESULT:      -8.5      4.874      8.429
REMARK  Name = 
REMARK  5 active torsions:
REMARK  status: ('A' for Active; 'I' for Inactive)
REMARK    1  A    between atoms: N_4  and  C_5
REMARK    2  A    between atoms: C_5  and  C_6
REMARK    3  A    between atoms: C_15  and  C_16
REMARK    4  A    between atoms: N_18  and  C_19
REMARK    5  A    between atoms: C_19  and  C_20
REMARK                            x       y       z     vdW  Elec       q    Type
REMARK                         _______ _______ _______ _____ _____    ______ ____
ROOT
ATOM      1  C   UNL     1       3.595  14.508  19.046  0.00  0.00    +0.000 C 
ATOM      2  O   UNL     1       3.561  13.626  18.185  0.00  0.00    +0.000 OA
ATOM      3  N   UNL     1       2.492  15.079  19.646  0.00  0.00    +0.000 N 
ATOM      4  C   UNL     1       1.231  14.633  19.302  0.00  0.00    +0.000 A 
ATOM      5  N   UNL     1       0.269  15.506  18.996  0.00  0.00    +0.000 NA
ATOM      6  N   UNL     1      -0.718  14.721  18.517  0.00  0.00    +0.000 N 
ATOM      7  C   UNL     1      -0.501  13.379  18.679  0.00  0.00    +0.000 A 
ATOM      8  C   UNL     1      -1.281  12.264  18.372  0.00  0.00    +0.000 A 
ATOM      9  C   UNL     1      -0.760  11.009  18.720  0.00  0.00    +0.000 A 
ATOM     10  C   UNL     1       0.489  10.874  19.345  0.00  0.00    +0.000 A 
ATOM     11  C   UNL     1       1.269  12.015  19.588  0.00  0.00    +0.000 A 
ATOM     12  C   UNL     1       0.768  13.287  19.239  0.00  0.00    +0.000 A 
ATOM     13  H   UNL     1       2.547  16.073  19.830  0.00  0.00    +0.000 HD
ATOM     14  H   UNL     1      -1.525  15.167  18.099  0.00  0.00    +0.000 HD
ENDROOT
BRANCH  10  15
ATOM     15  C   UNL     1       0.997   9.569  19.728  0.00  0.00    +0.000 A 
ATOM     16  C   UNL     1       1.730   8.716  18.930  0.00  0.00    +0.000 A 
ATOM     17  N   UNL     1       2.000   7.659  19.749  0.00  0.00    +0.000 N 
ATOM     18  N   UNL     1       1.449   7.830  20.967  0.00  0.00    +0.000 NA
ATOM     19  N   UNL     1       0.811   8.991  20.954  0.00  0.00    +0.000 NA
BRANCH  17  20
ATOM     20  C   UNL     1       2.879   6.536  19.483  0.00  0.00    +0.000 C 
BRANCH  20  21
ATOM     21  C   UNL     1       2.137   5.226  19.395  0.00  0.00    +0.000 A 
ATOM     22  C   UNL     1       1.964   4.584  18.159  0.00  0.00    +0.000 A 
ATOM     23  C   UNL     1       1.344   3.335  18.091  0.00  0.00    +0.000 A 
ATOM     24  C   UNL     1       0.890   2.716  19.254  0.00  0.00    +0.000 A 
ATOM     25  C   UNL     1       1.040   3.350  20.484  0.00  0.00    +0.000 A 
ATOM     26  C   UNL     1       1.659   4.598  20.556  0.00  0.00    +0.000 A 
ENDBRANCH  20  21
ENDBRANCH  17  20
ENDBRANCH  10  15
BRANCH   1  27
ATOM     27  C   UNL     1       4.933  15.078  19.510  0.00  0.00    +0.000 C 
BRANCH  27  31
ATOM     28  O   UNL     1       8.842  13.757  18.352  0.00  0.00    +0.000 OA
ATOM     29  C   UNL     1       8.048  14.671  18.572  0.00  0.00    +0.000 C 
ATOM     30  C   UNL     1       6.717  14.800  17.811  0.00  0.00    +0.000 C 
ATOM     31  N   UNL     1       5.695  15.709  18.412  0.00  0.00    +0.000 NA
ATOM     32  C   UNL     1       6.364  16.942  18.881  0.00  0.00    +0.000 C 
ATOM     33  C   UNL     1       7.485  16.678  19.896  0.00  0.00    +0.000 C 
ATOM     34  N   UNL     1       8.410  15.673  19.431  0.00  0.00    +0.000 N 
ATOM     35  H   UNL     1       9.284  15.514  19.921  0.00  0.00    +0.000 HD
ENDBRANCH  27  31
ENDBRANCH   1  27
TORSDOF 5
ENDMDL
