MODEL 1
REMARK VINA RESULT:      -7.1      0.000      0.000
REMARK  Name = 
REMARK  5 active torsions:
REMARK  status: ('A' for Active; 'I' for Inactive)
REMARK    1  A    between atoms: C_1  and  C_2
REMARK    2  A    between atoms: C_2  and  C_4
REMARK    3  A    between atoms: C_5  and  C_6
REMARK    4  A    between atoms: C_11  and  C_12
REMARK    5  A    between atoms: C_17  and  O_18
REMARK                            x       y       z     vdW  Elec       q    Type
REMARK                         _______ _______ _______ _____ _____    ______ ____
ROOT
ATOM      1  C   UNL     1       3.153   4.090  19.116  0.00  0.00    +0.000 C 
ATOM      2  C   UNL     1       3.884   3.149  18.478  0.00  0.00    +0.000 C 
ATOM      3  C   UNL     1       3.455   1.758  18.078  0.00  0.00    +0.000 C 
ATOM      4  N   UNL     1       5.202   3.419  18.172  0.00  0.00    +0.000 N 
ATOM      5  C   UNL     1       5.837   4.594  18.415  0.00  0.00    +0.000 C 
ATOM      6  S   UNL     1       7.432   4.821  18.008  0.00  0.00    +0.000 S 
ATOM      7  N   UNL     1       5.109   5.579  18.982  0.00  0.00    +0.000 N 
ATOM      8  C   UNL     1       3.763   5.420  19.521  0.00  0.00    +0.000 C 
ATOM      9  H   UNL     1       5.770   2.693  17.745  0.00  0.00    +0.000 HD
ATOM     10  H   UNL     1       5.594   6.446  19.177  0.00  0.00    +0.000 HD
ENDROOT
BRANCH   8  11
ATOM     11  C   UNL     1       2.987   6.674  19.154  0.00  0.00    +0.000 A 
ATOM     12  C   UNL     1       3.158   7.285  17.897  0.00  0.00    +0.000 A 
ATOM     13  C   UNL     1       2.448   8.439  17.561  0.00  0.00    +0.000 A 
ATOM     14  C   UNL     1       1.563   9.008  18.476  0.00  0.00    +0.000 A 
ATOM     15  C   UNL     1       1.389   8.425  19.730  0.00  0.00    +0.000 A 
ATOM     16  C   UNL     1       2.099   7.271  20.060  0.00  0.00    +0.000 A 
BRANCH  16  17
ATOM     17  O   UNL     1       1.913   6.688  21.282  0.00  0.00    +0.000 OA
ATOM     18  H   UNL     1       1.448   7.313  21.865  0.00  0.00    +0.000 HD
ENDBRANCH  16  17
ENDBRANCH   8  11
BRANCH   1  20
ATOM     19  C   UNL     1       1.669   3.236  21.092  0.00  0.00    +0.000 C 
ATOM     20  C   UNL     1       1.802   3.719  19.674  0.00  0.00    +0.000 C 
ATOM     21  O   UNL     1       0.797   3.794  18.967  0.00  0.00    +0.000 OA
ENDBRANCH   1  20
TORSDOF 3
ENDMDL
MODEL 2
REMARK VINA RESULT:      -7.1      3.004      4.461
REMARK  Name = 
REMARK  5 active torsions:
REMARK  status: ('A' for Active; 'I' for Inactive)
REMARK    1  A    between atoms: C_1  and  C_2
REMARK    2  A    between atoms: C_2  and  C_4
REMARK    3  A    between atoms: C_5  and  C_6
REMARK    4  A    between atoms: C_11  and  C_12
REMARK    5  A    between atoms: C_17  and  O_18
REMARK                            x       y       z     vdW  Elec       q    Type
REMARK                         _______ _______ _______ _____ _____    ______ ____
ROOT
ATOM      1  C   UNL     1       3.403   4.214  19.682  0.00  0.00    +0.000 C 
ATOM      2  C   UNL     1       2.538   4.294  20.719  0.00  0.00    +0.000 C 
ATOM      3  C   UNL     1       2.110   3.188  21.653  0.00  0.00    +0.000 C 
ATOM      4  N   UNL     1       1.905   5.493  20.972  0.00  0.00    +0.000 N 
ATOM      5  C   UNL     1       2.112   6.647  20.287  0.00  0.00    +0.000 C 
ATOM      6  S   UNL     1       1.296   8.043  20.671  0.00  0.00    +0.000 S 
ATOM      7  N   UNL     1       3.027   6.617  19.296  0.00  0.00    +0.000 N 
ATOM      8  C   UNL     1       3.665   5.410  18.784  0.00  0.00    +0.000 C 
ATOM      9  H   UNL     1       1.211   5.540  21.714  0.00  0.00    +0.000 HD
ATOM     10  H   UNL     1       3.162   7.476  18.779  0.00  0.00    +0.000 HD
ENDROOT
BRANCH   8  11
ATOM     11  C   UNL     1       5.119   5.758  18.509  0.00  0.00    +0.000 A 
ATOM     12  C   UNL     1       6.134   5.371  19.405  0.00  0.00    +0.000 A 
ATOM     13  C   UNL     1       7.469   5.695  19.155  0.00  0.00    +0.000 A 
ATOM     14  C   UNL     1       7.812   6.418  18.014  0.00  0.00    +0.000 A 
ATOM     15  C   UNL     1       6.820   6.821  17.122  0.00  0.00    +0.000 A 
ATOM     16  C   UNL     1       5.489   6.494  17.374  0.00  0.00    +0.000 A 
BRANCH  16  17
ATOM     17  O   UNL     1       4.519   6.872  16.489  0.00  0.00    +0.000 OA
ATOM     18  H   UNL     1       4.505   7.843  16.427  0.00  0.00    +0.000 HD
ENDBRANCH  16  17
ENDBRANCH   8  11
BRANCH   1  20
ATOM     19  C   UNL     1       3.299   2.172  18.054  0.00  0.00    +0.000 C 
ATOM     20  C   UNL     1       3.905   2.861  19.244  0.00  0.00    +0.000 C 
ATOM     21  O   UNL     1       4.806   2.303  19.871  0.00  0.00    +0.000 OA
ENDBRANCH   1  20
TORSDOF 3
ENDMDL
MODEL 3
REMARK VINA RESULT:      -7.1      2.589      4.299
REMARK  Name = 
REMARK  5 active torsions:
REMARK  status: ('A' for Active; 'I' for Inactive)
REMARK    1  A    between atoms: C_1  and  C_2
REMARK    2  A    between atoms: C_2  and  C_4
REMARK    3  A    between atoms: C_5  and  C_6
REMARK    4  A    between atoms: C_11  and  C_12
REMARK    5  A    between atoms: C_17  and  O_18
REMARK                            x       y       z     vdW  Elec       q    Type
REMARK                         _______ _______ _______ _____ _____    ______ ____
ROOT
ATOM      1  C   UNL     1       2.656   3.781  18.790  0.00  0.00    +0.000 C 
ATOM      2  C   UNL     1       1.958   4.035  19.920  0.00  0.00    +0.000 C 
ATOM      3  C   UNL     1       1.308   3.039  20.850  0.00  0.00    +0.000 C 
ATOM      4  N   UNL     1       1.741   5.346  20.292  0.00  0.00    +0.000 N 
ATOM      5  C   UNL     1       2.219   6.434  19.637  0.00  0.00    +0.000 C 
ATOM      6  S   UNL     1       1.900   7.977  20.167  0.00  0.00    +0.000 S 
ATOM      7  N   UNL     1       2.984   6.209  18.548  0.00  0.00    +0.000 N 
ATOM      8  C   UNL     1       3.177   4.908  17.918  0.00  0.00    +0.000 C 
ATOM      9  H   UNL     1       1.168   5.540  21.109  0.00  0.00    +0.000 HD
ATOM     10  H   UNL     1       3.320   7.026  18.055  0.00  0.00    +0.000 HD
ENDROOT
BRANCH   8  11
ATOM     11  C   UNL     1       4.636   4.833  17.496  0.00  0.00    +0.000 A 
ATOM     12  C   UNL     1       4.985   4.559  16.160  0.00  0.00    +0.000 A 
ATOM     13  C   UNL     1       6.324   4.485  15.772  0.00  0.00    +0.000 A 
ATOM     14  C   UNL     1       7.337   4.673  16.712  0.00  0.00    +0.000 A 
ATOM     15  C   UNL     1       7.011   4.932  18.042  0.00  0.00    +0.000 A 
ATOM     16  C   UNL     1       5.672   5.007  18.424  0.00  0.00    +0.000 A 
BRANCH  16  17
ATOM     17  O   UNL     1       5.353   5.282  19.724  0.00  0.00    +0.000 OA
ATOM     18  H   UNL     1       4.386   5.249  19.828  0.00  0.00    +0.000 HD
ENDBRANCH  16  17
ENDBRANCH   8  11
BRANCH   1  20
ATOM     19  C   UNL     1       3.769   1.419  18.654  0.00  0.00    +0.000 C 
ATOM     20  C   UNL     1       2.684   2.376  18.243  0.00  0.00    +0.000 C 
ATOM     21  O   UNL     1       1.826   2.006  17.441  0.00  0.00    +0.000 OA
ENDBRANCH   1  20
TORSDOF 3
ENDMDL
MODEL 4
REMARK VINA RESULT:      -6.9      2.694      4.386
REMARK  Name = 
REMARK  5 active torsions:
REMARK  status: ('A' for Active; 'I' for Inactive)
REMARK    1  A    between atoms: C_1  and  C_2
REMARK    2  A    between atoms: C_2  and  C_4
REMARK    3  A    between atoms: C_5  and  C_6
REMARK    4  A    between atoms: C_11  and  C_12
REMARK    5  A    between atoms: C_17  and  O_18
REMARK                            x       y       z     vdW  Elec       q    Type
REMARK                         _______ _______ _______ _____ _____    ______ ____
ROOT
ATOM      1  C   UNL     1       3.069   3.858  19.379  0.00  0.00    +0.000 C 
ATOM      2  C   UNL     1       2.490   4.307  20.516  0.00  0.00    +0.000 C 
ATOM      3  C   UNL     1       2.103   3.506  21.736  0.00  0.00    +0.000 C 
ATOM      4  N   UNL     1       2.145   5.640  20.610  0.00  0.00    +0.000 N 
ATOM      5  C   UNL     1       2.385   6.578  19.659  0.00  0.00    +0.000 C 
ATOM      6  S   UNL     1       1.928   8.163  19.869  0.00  0.00    +0.000 S 
ATOM      7  N   UNL     1       3.031   6.174  18.546  0.00  0.00    +0.000 N 
ATOM      8  C   UNL     1       3.318   4.786  18.205  0.00  0.00    +0.000 C 
ATOM      9  H   UNL     1       1.658   5.968  21.440  0.00  0.00    +0.000 HD
ATOM     10  H   UNL     1       3.189   6.876  17.834  0.00  0.00    +0.000 HD
ENDROOT
BRANCH   8  11
ATOM     11  C   UNL     1       4.709   4.759  17.591  0.00  0.00    +0.000 A 
ATOM     12  C   UNL     1       4.896   4.386  16.246  0.00  0.00    +0.000 A 
ATOM     13  C   UNL     1       6.173   4.357  15.683  0.00  0.00    +0.000 A 
ATOM     14  C   UNL     1       7.286   4.690  16.455  0.00  0.00    +0.000 A 
ATOM     15  C   UNL     1       7.123   5.050  17.791  0.00  0.00    +0.000 A 
ATOM     16  C   UNL     1       5.845   5.079  18.349  0.00  0.00    +0.000 A 
BRANCH  16  17
ATOM     17  O   UNL     1       5.684   5.452  19.653  0.00  0.00    +0.000 OA
ATOM     18  H   UNL     1       4.939   4.956  20.035  0.00  0.00    +0.000 HD
ENDBRANCH  16  17
ENDBRANCH   8  11
BRANCH   1  20
ATOM     19  C   UNL     1       2.113   1.577  18.529  0.00  0.00    +0.000 C 
ATOM     20  C   UNL     1       3.219   2.372  19.167  0.00  0.00    +0.000 C 
ATOM     21  O   UNL     1       4.244   1.795  19.530  0.00  0.00    +0.000 OA
ENDBRANCH   1  20
TORSDOF 3
ENDMDL
MODEL 5
REMARK VINA RESULT:      -6.9      2.741      4.737
REMARK  Name = 
REMARK  5 active torsions:
REMARK  status: ('A' for Active; 'I' for Inactive)
REMARK    1  A    between atoms: C_1  and  C_2
REMARK    2  A    between atoms: C_2  and  C_4
REMARK    3  A    between atoms: C_5  and  C_6
REMARK    4  A    between atoms: C_11  and  C_12
REMARK    5  A    between atoms: C_17  and  O_18
REMARK                            x       y       z     vdW  Elec       q    Type
REMARK                         _______ _______ _______ _____ _____    ______ ____
ROOT
ATOM      1  C   UNL     1       4.407   5.841  18.566  0.00  0.00    +0.000 C 
ATOM      2  C   UNL     1       4.520   6.664  17.498  0.00  0.00    +0.000 C 
ATOM      3  C   UNL     1       5.586   6.653  16.430  0.00  0.00    +0.000 C 
ATOM      4  N   UNL     1       3.605   7.685  17.340  0.00  0.00    +0.000 N 
ATOM      5  C   UNL     1       2.543   7.916  18.155  0.00  0.00    +0.000 C 
ATOM      6  S   UNL     1       1.496   9.176  17.878  0.00  0.00    +0.000 S 
ATOM      7  N   UNL     1       2.362   7.063  19.185  0.00  0.00    +0.000 N 
ATOM      8  C   UNL     1       3.313   6.040  19.599  0.00  0.00    +0.000 C 
ATOM      9  H   UNL     1       3.721   8.339  16.572  0.00  0.00    +0.000 HD
ATOM     10  H   UNL     1       1.579   7.254  19.797  0.00  0.00    +0.000 HD
ENDROOT
BRANCH   8  11
ATOM     11  C   UNL     1       2.504   4.813  19.988  0.00  0.00    +0.000 A 
ATOM     12  C   UNL     1       2.557   4.300  21.298  0.00  0.00    +0.000 A 
ATOM     13  C   UNL     1       1.818   3.171  21.654  0.00  0.00    +0.000 A 
ATOM     14  C   UNL     1       1.021   2.528  20.707  0.00  0.00    +0.000 A 
ATOM     15  C   UNL     1       0.965   3.013  19.401  0.00  0.00    +0.000 A 
ATOM     16  C   UNL     1       1.704   4.142  19.051  0.00  0.00    +0.000 A 
BRANCH  16  17
ATOM     17  O   UNL     1       1.633   4.629  17.776  0.00  0.00    +0.000 OA
ATOM     18  H   UNL     1       2.169   5.439  17.715  0.00  0.00    +0.000 HD
ENDBRANCH  16  17
ENDBRANCH   8  11
BRANCH   1  20
ATOM     19  C   UNL     1       6.845   5.408  19.406  0.00  0.00    +0.000 C 
ATOM     20  C   UNL     1       5.534   4.890  18.884  0.00  0.00    +0.000 C 
ATOM     21  O   UNL     1       5.393   3.681  18.702  0.00  0.00    +0.000 OA
ENDBRANCH   1  20
TORSDOF 3
ENDMDL
MODEL 6
REMARK VINA RESULT:      -6.8      2.862      4.555
REMARK  Name = 
REMARK  5 active torsions:
REMARK  status: ('A' for Active; 'I' for Inactive)
REMARK    1  A    between atoms: C_1  and  C_2
REMARK    2  A    between atoms: C_2  and  C_4
REMARK    3  A    between atoms: C_5  and  C_6
REMARK    4  A    between atoms: C_11  and  C_12
REMARK    5  A    between atoms: C_17  and  O_18
REMARK                            x       y       z     vdW  Elec       q    Type
REMARK                         _______ _______ _______ _____ _____    ______ ____
ROOT
ATOM      1  C   UNL     1       2.702   3.864  19.011  0.00  0.00    +0.000 C 
ATOM      2  C   UNL     1       1.818   4.021  20.022  0.00  0.00    +0.000 C 
ATOM      3  C   UNL     1       1.027   2.949  20.733  0.00  0.00    +0.000 C 
ATOM      4  N   UNL     1       1.530   5.294  20.469  0.00  0.00    +0.000 N 
ATOM      5  C   UNL     1       2.105   6.433  20.006  0.00  0.00    +0.000 C 
ATOM      6  S   UNL     1       1.687   7.924  20.611  0.00  0.00    +0.000 S 
ATOM      7  N   UNL     1       3.048   6.301  19.049  0.00  0.00    +0.000 N 
ATOM      8  C   UNL     1       3.357   5.062  18.347  0.00  0.00    +0.000 C 
ATOM      9  H   UNL     1       0.824   5.418  21.189  0.00  0.00    +0.000 HD
ATOM     10  H   UNL     1       3.457   7.157  18.697  0.00  0.00    +0.000 HD
ENDROOT
BRANCH   8  11
ATOM     11  C   UNL     1       4.867   5.014  18.176  0.00  0.00    +0.000 A 
ATOM     12  C   UNL     1       5.723   5.398  19.225  0.00  0.00    +0.000 A 
ATOM     13  C   UNL     1       7.109   5.358  19.068  0.00  0.00    +0.000 A 
ATOM     14  C   UNL     1       7.665   4.944  17.857  0.00  0.00    +0.000 A 
ATOM     15  C   UNL     1       6.834   4.571  16.803  0.00  0.00    +0.000 A 
ATOM     16  C   UNL     1       5.449   4.611  16.965  0.00  0.00    +0.000 A 
BRANCH  16  17
ATOM     17  O   UNL     1       4.635   4.226  15.938  0.00  0.00    +0.000 OA
ATOM     18  H   UNL     1       3.743   4.053  16.287  0.00  0.00    +0.000 HD
ENDBRANCH  16  17
ENDBRANCH   8  11
BRANCH   1  20
ATOM     19  C   UNL     1       3.853   1.523  18.844  0.00  0.00    +0.000 C 
ATOM     20  C   UNL     1       2.836   2.514  18.352  0.00  0.00    +0.000 C 
ATOM     21  O   UNL     1       2.121   2.219  17.394  0.00  0.00    +0.000 OA
ENDBRANCH   1  20
TORSDOF 3
ENDMDL
MODEL 7
REMARK VINA RESULT:      -6.8      2.905      4.394
REMARK  Name = 
REMARK  5 active torsions:
REMARK  status: ('A' for Active; 'I' for Inactive)
REMARK    1  A    between atoms: C_1  and  C_2
REMARK    2  A    between atoms: C_2  and  C_4
REMARK    3  A    between atoms: C_5  and  C_6
REMARK    4  A    between atoms: C_11  and  C_12
REMARK    5  A    between atoms: C_17  and  O_18
REMARK                            x       y       z     vdW  Elec       q    Type
REMARK                         _______ _______ _______ _____ _____    ______ ____
ROOT
ATOM      1  C   UNL     1       2.612   4.478  18.870  0.00  0.00    +0.000 C 
ATOM      2  C   UNL     1       1.699   4.430  19.866  0.00  0.00    +0.000 C 
ATOM      3  C   UNL     1       0.945   3.224  20.373  0.00  0.00    +0.000 C 
ATOM      4  N   UNL     1       1.336   5.602  20.499  0.00  0.00    +0.000 N 
ATOM      5  C   UNL     1       1.864   6.826  20.240  0.00  0.00    +0.000 C 
ATOM      6  S   UNL     1       1.358   8.180  21.060  0.00  0.00    +0.000 S 
ATOM      7  N   UNL     1       2.834   6.891  19.304  0.00  0.00    +0.000 N 
ATOM      8  C   UNL     1       3.221   5.795  18.424  0.00  0.00    +0.000 C 
ATOM      9  H   UNL     1       0.608   5.577  21.207  0.00  0.00    +0.000 HD
ATOM     10  H   UNL     1       3.208   7.810  19.105  0.00  0.00    +0.000 HD
ENDROOT
BRANCH   8  11
ATOM     11  C   UNL     1       4.735   5.844  18.295  0.00  0.00    +0.000 A 
ATOM     12  C   UNL     1       5.562   5.357  19.324  0.00  0.00    +0.000 A 
ATOM     13  C   UNL     1       6.952   5.406  19.208  0.00  0.00    +0.000 A 
ATOM     14  C   UNL     1       7.541   5.950  18.067  0.00  0.00    +0.000 A 
ATOM     15  C   UNL     1       6.739   6.449  17.042  0.00  0.00    +0.000 A 
ATOM     16  C   UNL     1       5.351   6.396  17.162  0.00  0.00    +0.000 A 
BRANCH  16  17
ATOM     17  O   UNL     1       4.565   6.867  16.148  0.00  0.00    +0.000 OA
ATOM     18  H   UNL     1       4.889   7.743  15.875  0.00  0.00    +0.000 HD
ENDBRANCH  16  17
ENDBRANCH   8  11
BRANCH   1  20
ATOM     19  C   UNL     1       3.746   2.157  18.465  0.00  0.00    +0.000 C 
ATOM     20  C   UNL     1       2.829   3.258  18.010  0.00  0.00    +0.000 C 
ATOM     21  O   UNL     1       2.266   3.162  16.919  0.00  0.00    +0.000 OA
ENDBRANCH   1  20
TORSDOF 3
ENDMDL
MODEL 8
REMARK VINA RESULT:      -6.8      1.069      1.569
REMARK  Name = 
REMARK  5 active torsions:
REMARK  status: ('A' for Active; 'I' for Inactive)
REMARK    1  A    between atoms: C_1  and  C_2
REMARK    2  A    between atoms: C_2  and  C_4
REMARK    3  A    between atoms: C_5  and  C_6
REMARK    4  A    between atoms: C_11  and  C_12
REMARK    5  A    between atoms: C_17  and  O_18
REMARK                            x       y       z     vdW  Elec       q    Type
REMARK                         _______ _______ _______ _____ _____    ______ ____
ROOT
ATOM      1  C   UNL     1       3.061   4.033  19.221  0.00  0.00    +0.000 C 
ATOM      2  C   UNL     1       3.802   3.133  18.535  0.00  0.00    +0.000 C 
ATOM      3  C   UNL     1       3.383   1.765  18.054  0.00  0.00    +0.000 C 
ATOM      4  N   UNL     1       5.120   3.427  18.253  0.00  0.00    +0.000 N 
ATOM      5  C   UNL     1       5.747   4.590  18.568  0.00  0.00    +0.000 C 
ATOM      6  S   UNL     1       7.343   4.847  18.184  0.00  0.00    +0.000 S 
ATOM      7  N   UNL     1       5.010   5.537  19.185  0.00  0.00    +0.000 N 
ATOM      8  C   UNL     1       3.663   5.340  19.705  0.00  0.00    +0.000 C 
ATOM      9  H   UNL     1       5.695   2.729  17.789  0.00  0.00    +0.000 HD
ATOM     10  H   UNL     1       5.490   6.393  19.432  0.00  0.00    +0.000 HD
ENDROOT
BRANCH   8  11
ATOM     11  C   UNL     1       2.881   6.609  19.406  0.00  0.00    +0.000 A 
ATOM     12  C   UNL     1       2.096   7.223  20.400  0.00  0.00    +0.000 A 
ATOM     13  C   UNL     1       1.374   8.386  20.124  0.00  0.00    +0.000 A 
ATOM     14  C   UNL     1       1.416   8.950  18.849  0.00  0.00    +0.000 A 
ATOM     15  C   UNL     1       2.178   8.350  17.848  0.00  0.00    +0.000 A 
ATOM     16  C   UNL     1       2.898   7.190  18.129  0.00  0.00    +0.000 A 
BRANCH  16  17
ATOM     17  O   UNL     1       3.661   6.613  17.153  0.00  0.00    +0.000 OA
ATOM     18  H   UNL     1       3.487   5.656  17.137  0.00  0.00    +0.000 HD
ENDBRANCH  16  17
ENDBRANCH   8  11
BRANCH   1  20
ATOM     19  C   UNL     1       1.543   3.216  21.187  0.00  0.00    +0.000 C 
ATOM     20  C   UNL     1       1.709   3.624  19.749  0.00  0.00    +0.000 C 
ATOM     21  O   UNL     1       0.732   3.605  19.001  0.00  0.00    +0.000 OA
ENDBRANCH   1  20
TORSDOF 3
ENDMDL
MODEL 9
REMARK VINA RESULT:      -6.6      2.751      4.582
REMARK  Name = 
REMARK  5 active torsions:
REMARK  status: ('A' for Active; 'I' for Inactive)
REMARK    1  A    between atoms: C_1  and  C_2
REMARK    2  A    between atoms: C_2  and  C_4
REMARK    3  A    between atoms: C_5  and  C_6
REMARK    4  A    between atoms: C_11  and  C_12
REMARK    5  A    between atoms: C_17  and  O_18
REMARK                            x       y       z     vdW  Elec       q    Type
REMARK                         _______ _______ _______ _____ _____    ______ ____
ROOT
ATOM      1  C   UNL     1       4.274   5.666  17.824  0.00  0.00    +0.000 C 
ATOM      2  C   UNL     1       4.381   6.659  16.912  0.00  0.00    +0.000 C 
ATOM      3  C   UNL     1       5.313   6.730  15.727  0.00  0.00    +0.000 C 
ATOM      4  N   UNL     1       3.602   7.788  17.057  0.00  0.00    +0.000 N 
ATOM      5  C   UNL     1       2.677   7.980  18.033  0.00  0.00    +0.000 C 
ATOM      6  S   UNL     1       1.787   9.381  18.122  0.00  0.00    +0.000 S 
ATOM      7  N   UNL     1       2.494   6.973  18.912  0.00  0.00    +0.000 N 
ATOM      8  C   UNL     1       3.337   5.787  19.012  0.00  0.00    +0.000 C 
ATOM      9  H   UNL     1       3.721   8.560  16.407  0.00  0.00    +0.000 HD
ATOM     10  H   UNL     1       1.816   7.132  19.647  0.00  0.00    +0.000 HD
ENDROOT
BRANCH   8  11
ATOM     11  C   UNL     1       2.415   4.610  19.283  0.00  0.00    +0.000 A 
ATOM     12  C   UNL     1       1.919   3.825  18.225  0.00  0.00    +0.000 A 
ATOM     13  C   UNL     1       1.068   2.746  18.473  0.00  0.00    +0.000 A 
ATOM     14  C   UNL     1       0.691   2.438  19.780  0.00  0.00    +0.000 A 
ATOM     15  C   UNL     1       1.161   3.210  20.840  0.00  0.00    +0.000 A 
ATOM     16  C   UNL     1       2.012   4.286  20.587  0.00  0.00    +0.000 A 
BRANCH  16  17
ATOM     17  O   UNL     1       2.490   5.031  21.628  0.00  0.00    +0.000 OA
ATOM     18  H   UNL     1       1.836   5.716  21.855  0.00  0.00    +0.000 HD
ENDBRANCH  16  17
ENDBRANCH   8  11
BRANCH   1  20
ATOM     19  C   UNL     1       5.303   3.538  16.706  0.00  0.00    +0.000 C 
ATOM     20  C   UNL     1       5.288   4.549  17.819  0.00  0.00    +0.000 C 
ATOM     21  O   UNL     1       6.103   4.448  18.736  0.00  0.00    +0.000 OA
ENDBRANCH   1  20
TORSDOF 3
ENDMDL
