MODEL 1
REMARK VINA RESULT:      -8.1      0.000      0.000
REMARK  Name = 
REMARK  7 active torsions:
REMARK  status: ('A' for Active; 'I' for Inactive)
REMARK    1  A    between atoms: C_1  and  O_2
REMARK    2  A    between atoms: O_2  and  C_3
REMARK    3  A    between atoms: C_8  and  C_9
REMARK    4  A    between atoms: C_14  and  C_15
REMARK    5  A    between atoms: C_21  and  C_22
REMARK    6  A    between atoms: C_23  and  O_24
REMARK    7  A    between atoms: O_24  and  C_25
REMARK                            x       y       z     vdW  Elec       q    Type
REMARK                         _______ _______ _______ _____ _____    ______ ____
ROOT
ATOM      1  C   UNL     1       1.389   9.143  19.118  0.00  0.00    +0.000 A 
ATOM      2  C   UNL     1       2.023   8.153  18.348  0.00  0.00    +0.000 A 
ATOM      3  C   UNL     1       2.313   6.942  18.922  0.00  0.00    +0.000 A 
ATOM      4  C   UNL     1       2.107   6.764  20.289  0.00  0.00    +0.000 A 
ATOM      5  C   UNL     1       1.476   7.724  21.089  0.00  0.00    +0.000 A 
ATOM      6  C   UNL     1       1.092   8.936  20.478  0.00  0.00    +0.000 A 
ATOM      7  C   UNL     1       0.371  10.004  21.265  0.00  0.00    +0.000 C 
ATOM      8  N   UNL     1       2.720   5.587  20.699  0.00  0.00    +0.000 N 
ATOM      9  C   UNL     1       3.409   4.965  19.652  0.00  0.00    +0.000 C 
ATOM     10  O   UNL     1       4.060   3.944  19.723  0.00  0.00    +0.000 OA
ATOM     11  C   UNL     1       3.106   5.793  18.397  0.00  0.00    +0.000 C 
ATOM     12  C   UNL     1       3.639   5.776  17.153  0.00  0.00    +0.000 C 
ATOM     13  H   UNL     1       2.770   5.260  21.654  0.00  0.00    +0.000 HD
ENDROOT
BRANCH  12  14
ATOM     14  C   UNL     1       4.960   5.285  16.816  0.00  0.00    +0.000 A 
ATOM     15  C   UNL     1       6.045   6.035  17.262  0.00  0.00    +0.000 A 
ATOM     16 CL   UNL     1       6.232   7.732  17.429  0.00  0.00    +0.000 Cl
ATOM     17  N   UNL     1       7.164   5.333  16.957  0.00  0.00    +0.000 N 
ATOM     18  C   UNL     1       6.896   4.946  15.658  0.00  0.00    +0.000 A 
ATOM     19  C   UNL     1       7.710   5.063  14.542  0.00  0.00    +0.000 A 
ATOM     20  C   UNL     1       7.168   4.658  13.330  0.00  0.00    +0.000 A 
ATOM     21  C   UNL     1       7.874   5.106  12.075  0.00  0.00    +0.000 C 
ATOM     22  C   UNL     1       5.997   3.882  13.312  0.00  0.00    +0.000 A 
ATOM     23  C   UNL     1       5.141   3.846  14.459  0.00  0.00    +0.000 A 
ATOM     24  C   UNL     1       5.540   4.575  15.637  0.00  0.00    +0.000 A 
ATOM     25  H   UNL     1       7.493   4.624  17.597  0.00  0.00    +0.000 HD
BRANCH  22  26
ATOM     26  O   UNL     1       5.767   3.348  12.074  0.00  0.00    +0.000 OA
ATOM     27  C   UNL     1       4.474   3.163  11.530  0.00  0.00    +0.000 C 
ENDBRANCH  22  26
ENDBRANCH  12  14
BRANCH   1  29
ATOM     28  C   UNL     1       2.194  11.132  18.153  0.00  0.00    +0.000 C 
ATOM     29  O   UNL     1       1.074  10.376  18.602  0.00  0.00    +0.000 OA
ENDBRANCH   1  29
TORSDOF 3
ENDMDL
MODEL 2
REMARK VINA RESULT:      -7.0      3.596      4.941
REMARK  Name = 
REMARK  7 active torsions:
REMARK  status: ('A' for Active; 'I' for Inactive)
REMARK    1  A    between atoms: C_1  and  O_2
REMARK    2  A    between atoms: O_2  and  C_3
REMARK    3  A    between atoms: C_8  and  C_9
REMARK    4  A    between atoms: C_14  and  C_15
REMARK    5  A    between atoms: C_21  and  C_22
REMARK    6  A    between atoms: C_23  and  O_24
REMARK    7  A    between atoms: O_24  and  C_25
REMARK                            x       y       z     vdW  Elec       q    Type
REMARK                         _______ _______ _______ _____ _____    ______ ____
ROOT
ATOM      1  C   UNL     1       1.547  12.368  18.622  0.00  0.00    +0.000 A 
ATOM      2  C   UNL     1       1.876  11.036  18.321  0.00  0.00    +0.000 A 
ATOM      3  C   UNL     1       1.426  10.033  19.141  0.00  0.00    +0.000 A 
ATOM      4  C   UNL     1       0.776  10.360  20.329  0.00  0.00    +0.000 A 
ATOM      5  C   UNL     1       0.427  11.673  20.663  0.00  0.00    +0.000 A 
ATOM      6  C   UNL     1       0.808  12.699  19.773  0.00  0.00    +0.000 A 
ATOM      7  C   UNL     1       0.433  14.137  20.043  0.00  0.00    +0.000 C 
ATOM      8  N   UNL     1       0.662   9.224  21.121  0.00  0.00    +0.000 N 
ATOM      9  C   UNL     1       1.281   8.115  20.534  0.00  0.00    +0.000 C 
ATOM     10  O   UNL     1       1.366   7.001  21.008  0.00  0.00    +0.000 OA
ATOM     11  C   UNL     1       1.750   8.577  19.149  0.00  0.00    +0.000 C 
ATOM     12  C   UNL     1       2.558   8.000  18.229  0.00  0.00    +0.000 C 
ATOM     13  H   UNL     1       0.284   9.204  22.058  0.00  0.00    +0.000 HD
ENDROOT
BRANCH  12  14
ATOM     14  C   UNL     1       3.565   6.997  18.512  0.00  0.00    +0.000 A 
ATOM     15  C   UNL     1       4.605   6.871  17.595  0.00  0.00    +0.000 A 
ATOM     16 CL   UNL     1       4.609   7.036  15.888  0.00  0.00    +0.000 Cl
ATOM     17  N   UNL     1       5.489   5.986  18.117  0.00  0.00    +0.000 N 
ATOM     18  C   UNL     1       4.643   4.987  18.560  0.00  0.00    +0.000 A 
ATOM     19  C   UNL     1       4.732   3.623  18.333  0.00  0.00    +0.000 A 
ATOM     20  C   UNL     1       3.703   2.838  18.836  0.00  0.00    +0.000 A 
ATOM     21  C   UNL     1       3.582   1.434  18.301  0.00  0.00    +0.000 C 
ATOM     22  C   UNL     1       2.817   3.373  19.786  0.00  0.00    +0.000 A 
ATOM     23  C   UNL     1       2.697   4.791  19.939  0.00  0.00    +0.000 A 
ATOM     24  C   UNL     1       3.542   5.642  19.139  0.00  0.00    +0.000 A 
ATOM     25  H   UNL     1       6.199   6.314  18.757  0.00  0.00    +0.000 HD
BRANCH  22  26
ATOM     26  O   UNL     1       2.056   2.396  20.368  0.00  0.00    +0.000 OA
ATOM     27  C   UNL     1       1.355   2.572  21.584  0.00  0.00    +0.000 C 
ENDBRANCH  22  26
ENDBRANCH  12  14
BRANCH   1  29
ATOM     28  C   UNL     1       3.302  13.845  18.099  0.00  0.00    +0.000 C 
ATOM     29  O   UNL     1       1.968  13.417  17.842  0.00  0.00    +0.000 OA
ENDBRANCH   1  29
TORSDOF 3
ENDMDL
MODEL 3
REMARK VINA RESULT:      -6.8      6.489     11.806
REMARK  Name = 
REMARK  7 active torsions:
REMARK  status: ('A' for Active; 'I' for Inactive)
REMARK    1  A    between atoms: C_1  and  O_2
REMARK    2  A    between atoms: O_2  and  C_3
REMARK    3  A    between atoms: C_8  and  C_9
REMARK    4  A    between atoms: C_14  and  C_15
REMARK    5  A    between atoms: C_21  and  C_22
REMARK    6  A    between atoms: C_23  and  O_24
REMARK    7  A    between atoms: O_24  and  C_25
REMARK                            x       y       z     vdW  Elec       q    Type
REMARK                         _______ _______ _______ _____ _____    ______ ____
ROOT
ATOM      1  C   UNL     1       1.012   9.319  19.924  0.00  0.00    +0.000 A 
ATOM      2  C   UNL     1       0.457  10.604  20.041  0.00  0.00    +0.000 A 
ATOM      3  C   UNL     1      -0.122  10.978  21.227  0.00  0.00    +0.000 A 
ATOM      4  C   UNL     1      -0.277  10.035  22.241  0.00  0.00    +0.000 A 
ATOM      5  C   UNL     1       0.265   8.747  22.165  0.00  0.00    +0.000 A 
ATOM      6  C   UNL     1       0.943   8.391  20.980  0.00  0.00    +0.000 A 
ATOM      7  C   UNL     1       1.589   7.034  20.837  0.00  0.00    +0.000 C 
ATOM      8  N   UNL     1      -1.122  10.544  23.220  0.00  0.00    +0.000 N 
ATOM      9  C   UNL     1      -1.615  11.808  22.878  0.00  0.00    +0.000 C 
ATOM     10  O   UNL     1      -2.394  12.478  23.523  0.00  0.00    +0.000 OA
ATOM     11  C   UNL     1      -0.911  12.196  21.571  0.00  0.00    +0.000 C 
ATOM     12  C   UNL     1      -1.126  13.203  20.694  0.00  0.00    +0.000 C 
ATOM     13  H   UNL     1      -1.444  10.035  24.032  0.00  0.00    +0.000 HD
ENDROOT
BRANCH  12  14
ATOM     14  C   UNL     1      -2.380  13.909  20.521  0.00  0.00    +0.000 A 
ATOM     15  C   UNL     1      -2.450  15.205  21.024  0.00  0.00    +0.000 A 
ATOM     16 CL   UNL     1      -1.743  15.893  22.427  0.00  0.00    +0.000 Cl
ATOM     17  N   UNL     1      -3.644  15.717  20.638  0.00  0.00    +0.000 N 
ATOM     18  C   UNL     1      -4.494  14.666  20.923  0.00  0.00    +0.000 A 
ATOM     19  C   UNL     1      -5.688  14.693  21.627  0.00  0.00    +0.000 A 
ATOM     20  C   UNL     1      -6.318  13.474  21.835  0.00  0.00    +0.000 A 
ATOM     21  C   UNL     1      -7.396  13.426  22.887  0.00  0.00    +0.000 C 
ATOM     22  C   UNL     1      -5.923  12.348  21.092  0.00  0.00    +0.000 A 
ATOM     23  C   UNL     1      -4.649  12.327  20.441  0.00  0.00    +0.000 A 
ATOM     24  C   UNL     1      -3.817  13.501  20.522  0.00  0.00    +0.000 A 
ATOM     25  H   UNL     1      -3.726  16.151  19.729  0.00  0.00    +0.000 HD
BRANCH  22  26
ATOM     26  O   UNL     1      -6.820  11.322  21.222  0.00  0.00    +0.000 OA
ATOM     27  C   UNL     1      -7.180  10.461  20.159  0.00  0.00    +0.000 C 
ENDBRANCH  22  26
ENDBRANCH  12  14
BRANCH   1  29
ATOM     28  C   UNL     1       1.922   9.920  17.840  0.00  0.00    +0.000 C 
ATOM     29  O   UNL     1       1.604   8.884  18.764  0.00  0.00    +0.000 OA
ENDBRANCH   1  29
TORSDOF 3
ENDMDL
MODEL 4
REMARK VINA RESULT:      -6.6      4.158      9.321
REMARK  Name = 
REMARK  7 active torsions:
REMARK  status: ('A' for Active; 'I' for Inactive)
REMARK    1  A    between atoms: C_1  and  O_2
REMARK    2  A    between atoms: O_2  and  C_3
REMARK    3  A    between atoms: C_8  and  C_9
REMARK    4  A    between atoms: C_14  and  C_15
REMARK    5  A    between atoms: C_21  and  C_22
REMARK    6  A    between atoms: C_23  and  O_24
REMARK    7  A    between atoms: O_24  and  C_25
REMARK                            x       y       z     vdW  Elec       q    Type
REMARK                         _______ _______ _______ _____ _____    ______ ____
ROOT
ATOM      1  C   UNL     1       2.746   4.715  20.324  0.00  0.00    +0.000 A 
ATOM      2  C   UNL     1       1.894   5.826  20.205  0.00  0.00    +0.000 A 
ATOM      3  C   UNL     1       2.105   6.726  19.192  0.00  0.00    +0.000 A 
ATOM      4  C   UNL     1       3.238   6.602  18.390  0.00  0.00    +0.000 A 
ATOM      5  C   UNL     1       4.108   5.509  18.475  0.00  0.00    +0.000 A 
ATOM      6  C   UNL     1       3.839   4.533  19.457  0.00  0.00    +0.000 A 
ATOM      7  C   UNL     1       4.708   3.304  19.584  0.00  0.00    +0.000 C 
ATOM      8  N   UNL     1       3.396   7.755  17.631  0.00  0.00    +0.000 N 
ATOM      9  C   UNL     1       2.424   8.716  17.935  0.00  0.00    +0.000 C 
ATOM     10  O   UNL     1       2.332   9.826  17.454  0.00  0.00    +0.000 OA
ATOM     11  C   UNL     1       1.467   8.049  18.931  0.00  0.00    +0.000 C 
ATOM     12  C   UNL     1       0.470   8.547  19.698  0.00  0.00    +0.000 C 
ATOM     13  H   UNL     1       4.173   7.944  17.014  0.00  0.00    +0.000 HD
ENDROOT
BRANCH  12  14
ATOM     14  C   UNL     1       0.352   9.927  20.125  0.00  0.00    +0.000 A 
ATOM     15  C   UNL     1       0.848  10.242  21.387  0.00  0.00    +0.000 A 
ATOM     16 CL   UNL     1       0.856   9.327  22.839  0.00  0.00    +0.000 Cl
ATOM     17  N   UNL     1       0.760  11.587  21.524  0.00  0.00    +0.000 N 
ATOM     18  C   UNL     1      -0.515  11.825  21.045  0.00  0.00    +0.000 A 
ATOM     19  C   UNL     1      -1.527  12.568  21.632  0.00  0.00    +0.000 A 
ATOM     20  C   UNL     1      -2.747  12.591  20.970  0.00  0.00    +0.000 A 
ATOM     21  C   UNL     1      -3.945  13.071  21.749  0.00  0.00    +0.000 C 
ATOM     22  C   UNL     1      -2.827  12.156  19.636  0.00  0.00    +0.000 A 
ATOM     23  C   UNL     1      -1.798  11.326  19.088  0.00  0.00    +0.000 A 
ATOM     24  C   UNL     1      -0.664  11.001  19.916  0.00  0.00    +0.000 A 
ATOM     25  H   UNL     1       1.507  12.170  21.173  0.00  0.00    +0.000 HD
BRANCH  22  26
ATOM     26  O   UNL     1      -4.021  12.504  19.066  0.00  0.00    +0.000 OA
ATOM     27  C   UNL     1      -4.831  11.602  18.336  0.00  0.00    +0.000 C 
ENDBRANCH  22  26
ENDBRANCH  12  14
BRANCH   1  29
ATOM     28  C   UNL     1       1.381   3.031  21.236  0.00  0.00    +0.000 C 
ATOM     29  O   UNL     1       2.589   3.780  21.317  0.00  0.00    +0.000 OA
ENDBRANCH   1  29
TORSDOF 3
ENDMDL
MODEL 5
REMARK VINA RESULT:      -6.5      4.235     10.469
REMARK  Name = 
REMARK  7 active torsions:
REMARK  status: ('A' for Active; 'I' for Inactive)
REMARK    1  A    between atoms: C_1  and  O_2
REMARK    2  A    between atoms: O_2  and  C_3
REMARK    3  A    between atoms: C_8  and  C_9
REMARK    4  A    between atoms: C_14  and  C_15
REMARK    5  A    between atoms: C_21  and  C_22
REMARK    6  A    between atoms: C_23  and  O_24
REMARK    7  A    between atoms: O_24  and  C_25
REMARK                            x       y       z     vdW  Elec       q    Type
REMARK                         _______ _______ _______ _____ _____    ______ ____
ROOT
ATOM      1  C   UNL     1       2.659   6.614  19.400  0.00  0.00    +0.000 A 
ATOM      2  C   UNL     1       1.597   7.468  19.737  0.00  0.00    +0.000 A 
ATOM      3  C   UNL     1       1.394   8.607  19.000  0.00  0.00    +0.000 A 
ATOM      4  C   UNL     1       2.323   8.969  18.027  0.00  0.00    +0.000 A 
ATOM      5  C   UNL     1       3.392   8.143  17.659  0.00  0.00    +0.000 A 
ATOM      6  C   UNL     1       3.549   6.926  18.354  0.00  0.00    +0.000 A 
ATOM      7  C   UNL     1       4.654   5.963  17.989  0.00  0.00    +0.000 C 
ATOM      8  N   UNL     1       2.074  10.270  17.610  0.00  0.00    +0.000 N 
ATOM      9  C   UNL     1       1.020  10.853  18.323  0.00  0.00    +0.000 C 
ATOM     10  O   UNL     1       0.603  11.985  18.197  0.00  0.00    +0.000 OA
ATOM     11  C   UNL     1       0.461   9.748  19.228  0.00  0.00    +0.000 C 
ATOM     12  C   UNL     1      -0.422   9.781  20.253  0.00  0.00    +0.000 C 
ATOM     13  H   UNL     1       2.642  10.791  16.956  0.00  0.00    +0.000 HD
ENDROOT
BRANCH  12  14
ATOM     14  C   UNL     1      -0.718  10.943  21.066  0.00  0.00    +0.000 A 
ATOM     15  C   UNL     1      -0.380  10.873  22.415  0.00  0.00    +0.000 A 
ATOM     16 CL   UNL     1      -0.417   9.548  23.504  0.00  0.00    +0.000 Cl
ATOM     17  N   UNL     1      -0.615  12.097  22.947  0.00  0.00    +0.000 N 
ATOM     18  C   UNL     1      -1.856  12.390  22.414  0.00  0.00    +0.000 A 
ATOM     19  C   UNL     1      -2.990  12.840  23.072  0.00  0.00    +0.000 A 
ATOM     20  C   UNL     1      -4.137  12.991  22.306  0.00  0.00    +0.000 A 
ATOM     21  C   UNL     1      -5.446  13.119  23.043  0.00  0.00    +0.000 C 
ATOM     22  C   UNL     1      -4.046  12.997  20.904  0.00  0.00    +0.000 A 
ATOM     23  C   UNL     1      -2.891  12.454  20.257  0.00  0.00    +0.000 A 
ATOM     24  C   UNL     1      -1.813  11.959  21.076  0.00  0.00    +0.000 A 
ATOM     25  H   UNL     1       0.099  12.809  22.887  0.00  0.00    +0.000 HD
BRANCH  22  26
ATOM     26  O   UNL     1      -5.209  13.429  20.327  0.00  0.00    +0.000 OA
ATOM     27  C   UNL     1      -5.819  12.788  19.223  0.00  0.00    +0.000 C 
ENDBRANCH  22  26
ENDBRANCH  12  14
BRANCH   1  29
ATOM     28  C   UNL     1       1.776   4.884  20.727  0.00  0.00    +0.000 C 
ATOM     29  O   UNL     1       2.917   5.460  20.099  0.00  0.00    +0.000 OA
ENDBRANCH   1  29
TORSDOF 3
ENDMDL
MODEL 6
REMARK VINA RESULT:      -6.3      6.370     12.065
REMARK  Name = 
REMARK  7 active torsions:
REMARK  status: ('A' for Active; 'I' for Inactive)
REMARK    1  A    between atoms: C_1  and  O_2
REMARK    2  A    between atoms: O_2  and  C_3
REMARK    3  A    between atoms: C_8  and  C_9
REMARK    4  A    between atoms: C_14  and  C_15
REMARK    5  A    between atoms: C_21  and  C_22
REMARK    6  A    between atoms: C_23  and  O_24
REMARK    7  A    between atoms: O_24  and  C_25
REMARK                            x       y       z     vdW  Elec       q    Type
REMARK                         _______ _______ _______ _____ _____    ______ ____
ROOT
ATOM      1  C   UNL     1       1.544  11.216  18.980  0.00  0.00    +0.000 A 
ATOM      2  C   UNL     1       0.962  12.125  19.878  0.00  0.00    +0.000 A 
ATOM      3  C   UNL     1       0.302  11.648  20.981  0.00  0.00    +0.000 A 
ATOM      4  C   UNL     1       0.097  10.276  21.117  0.00  0.00    +0.000 A 
ATOM      5  C   UNL     1       0.664   9.338  20.247  0.00  0.00    +0.000 A 
ATOM      6  C   UNL     1       1.422   9.825  19.162  0.00  0.00    +0.000 A 
ATOM      7  C   UNL     1       2.099   8.875  18.203  0.00  0.00    +0.000 C 
ATOM      8  N   UNL     1      -0.816  10.045  22.137  0.00  0.00    +0.000 N 
ATOM      9  C   UNL     1      -1.307  11.238  22.679  0.00  0.00    +0.000 C 
ATOM     10  O   UNL     1      -2.136  11.344  23.558  0.00  0.00    +0.000 OA
ATOM     11  C   UNL     1      -0.527  12.366  21.992  0.00  0.00    +0.000 C 
ATOM     12  C   UNL     1      -0.702  13.708  21.979  0.00  0.00    +0.000 C 
ATOM     13  H   UNL     1      -1.182   9.139  22.396  0.00  0.00    +0.000 HD
ENDROOT
BRANCH  12  14
ATOM     14  C   UNL     1      -1.953  14.391  22.237  0.00  0.00    +0.000 A 
ATOM     15  C   UNL     1      -2.008  15.203  23.367  0.00  0.00    +0.000 A 
ATOM     16 CL   UNL     1      -1.279  15.014  24.909  0.00  0.00    +0.000 Cl
ATOM     17  N   UNL     1      -3.203  15.840  23.341  0.00  0.00    +0.000 N 
ATOM     18  C   UNL     1      -4.057  14.802  23.018  0.00  0.00    +0.000 A 
ATOM     19  C   UNL     1      -5.241  14.439  23.640  0.00  0.00    +0.000 A 
ATOM     20  C   UNL     1      -5.876  13.303  23.158  0.00  0.00    +0.000 A 
ATOM     21  C   UNL     1      -6.941  12.686  24.028  0.00  0.00    +0.000 C 
ATOM     22  C   UNL     1      -5.498  12.765  21.916  0.00  0.00    +0.000 A 
ATOM     23  C   UNL     1      -4.233  13.105  21.340  0.00  0.00    +0.000 A 
ATOM     24  C   UNL     1      -3.392  14.046  22.036  0.00  0.00    +0.000 A 
ATOM     25  H   UNL     1      -3.295  16.699  22.817  0.00  0.00    +0.000 HD
BRANCH  22  26
ATOM     26  O   UNL     1      -6.400  11.834  21.477  0.00  0.00    +0.000 OA
ATOM     27  C   UNL     1      -6.896  11.789  20.153  0.00  0.00    +0.000 C 
ENDBRANCH  22  26
ENDBRANCH  12  14
BRANCH   1  29
ATOM     28  C   UNL     1       2.659  12.982  17.898  0.00  0.00    +0.000 C 
ATOM     29  O   UNL     1       2.217  11.629  17.856  0.00  0.00    +0.000 OA
ENDBRANCH   1  29
TORSDOF 3
ENDMDL
MODEL 7
REMARK VINA RESULT:      -6.2      7.269      9.551
REMARK  Name = 
REMARK  7 active torsions:
REMARK  status: ('A' for Active; 'I' for Inactive)
REMARK    1  A    between atoms: C_1  and  O_2
REMARK    2  A    between atoms: O_2  and  C_3
REMARK    3  A    between atoms: C_8  and  C_9
REMARK    4  A    between atoms: C_14  and  C_15
REMARK    5  A    between atoms: C_21  and  C_22
REMARK    6  A    between atoms: C_23  and  O_24
REMARK    7  A    between atoms: O_24  and  C_25
REMARK                            x       y       z     vdW  Elec       q    Type
REMARK                         _______ _______ _______ _____ _____    ______ ____
ROOT
ATOM      1  C   UNL     1       2.652  14.107  20.514  0.00  0.00    +0.000 A 
ATOM      2  C   UNL     1       3.935  14.602  20.801  0.00  0.00    +0.000 A 
ATOM      3  C   UNL     1       4.799  14.859  19.768  0.00  0.00    +0.000 A 
ATOM      4  C   UNL     1       4.446  14.492  18.471  0.00  0.00    +0.000 A 
ATOM      5  C   UNL     1       3.177  14.000  18.144  0.00  0.00    +0.000 A 
ATOM      6  C   UNL     1       2.253  13.822  19.195  0.00  0.00    +0.000 A 
ATOM      7  C   UNL     1       0.851  13.333  18.918  0.00  0.00    +0.000 C 
ATOM      8  N   UNL     1       5.559  14.584  17.645  0.00  0.00    +0.000 N 
ATOM      9  C   UNL     1       6.707  14.950  18.356  0.00  0.00    +0.000 C 
ATOM     10  O   UNL     1       7.826  15.077  17.904  0.00  0.00    +0.000 OA
ATOM     11  C   UNL     1       6.244  15.230  19.791  0.00  0.00    +0.000 C 
ATOM     12  C   UNL     1       6.931  15.434  20.939  0.00  0.00    +0.000 C 
ATOM     13  H   UNL     1       5.585  14.316  16.671  0.00  0.00    +0.000 HD
ENDROOT
BRANCH  12  14
ATOM     14  C   UNL     1       8.282  14.979  21.198  0.00  0.00    +0.000 A 
ATOM     15  C   UNL     1       9.300  15.920  21.072  0.00  0.00    +0.000 A 
ATOM     16 CL   UNL     1       9.474  17.231  19.980  0.00  0.00    +0.000 Cl
ATOM     17  N   UNL     1      10.445  15.324  21.485  0.00  0.00    +0.000 N 
ATOM     18  C   UNL     1      10.358  14.100  20.849  0.00  0.00    +0.000 A 
ATOM     19  C   UNL     1      11.321  13.460  20.085  0.00  0.00    +0.000 A 
ATOM     20  C   UNL     1      10.951  12.260  19.494  0.00  0.00    +0.000 A 
ATOM     21  C   UNL     1      11.829  11.738  18.385  0.00  0.00    +0.000 C 
ATOM     22  C   UNL     1       9.788  11.599  19.923  0.00  0.00    +0.000 A 
ATOM     23  C   UNL     1       8.780  12.313  20.645  0.00  0.00    +0.000 A 
ATOM     24  C   UNL     1       9.016  13.699  20.964  0.00  0.00    +0.000 A 
ATOM     25  H   UNL     1      10.676  15.323  22.469  0.00  0.00    +0.000 HD
BRANCH  22  26
ATOM     26  O   UNL     1       9.730  10.320  19.439  0.00  0.00    +0.000 OA
ATOM     27  C   UNL     1       8.732   9.868  18.543  0.00  0.00    +0.000 C 
ENDBRANCH  22  26
ENDBRANCH  12  14
BRANCH   1  29
ATOM     28  C   UNL     1       1.127  14.975  22.081  0.00  0.00    +0.000 C 
ATOM     29  O   UNL     1       1.741  13.828  21.503  0.00  0.00    +0.000 OA
ENDBRANCH   1  29
TORSDOF 3
ENDMDL
MODEL 8
REMARK VINA RESULT:      -6.2      5.271     10.840
REMARK  Name = 
REMARK  7 active torsions:
REMARK  status: ('A' for Active; 'I' for Inactive)
REMARK    1  A    between atoms: C_1  and  O_2
REMARK    2  A    between atoms: O_2  and  C_3
REMARK    3  A    between atoms: C_8  and  C_9
REMARK    4  A    between atoms: C_14  and  C_15
REMARK    5  A    between atoms: C_21  and  C_22
REMARK    6  A    between atoms: C_23  and  O_24
REMARK    7  A    between atoms: O_24  and  C_25
REMARK                            x       y       z     vdW  Elec       q    Type
REMARK                         _______ _______ _______ _____ _____    ______ ____
ROOT
ATOM      1  C   UNL     1       1.829   8.039  19.807  0.00  0.00    +0.000 A 
ATOM      2  C   UNL     1       0.946   8.867  20.520  0.00  0.00    +0.000 A 
ATOM      3  C   UNL     1       0.295   9.877  19.860  0.00  0.00    +0.000 A 
ATOM      4  C   UNL     1       0.625  10.155  18.535  0.00  0.00    +0.000 A 
ATOM      5  C   UNL     1       1.496   9.353  17.789  0.00  0.00    +0.000 A 
ATOM      6  C   UNL     1       2.096   8.256  18.442  0.00  0.00    +0.000 A 
ATOM      7  C   UNL     1       3.016   7.320  17.694  0.00  0.00    +0.000 C 
ATOM      8  N   UNL     1       0.060  11.368  18.163  0.00  0.00    +0.000 N 
ATOM      9  C   UNL     1      -0.610  11.980  19.228  0.00  0.00    +0.000 C 
ATOM     10  O   UNL     1      -1.170  13.056  19.205  0.00  0.00    +0.000 OA
ATOM     11  C   UNL     1      -0.558  10.981  20.390  0.00  0.00    +0.000 C 
ATOM     12  C   UNL     1      -0.869  11.103  21.701  0.00  0.00    +0.000 C 
ATOM     13  H   UNL     1       0.199  11.826  17.272  0.00  0.00    +0.000 HD
ENDROOT
BRANCH  12  14
ATOM     14  C   UNL     1      -0.896  12.347  22.443  0.00  0.00    +0.000 A 
ATOM     15  C   UNL     1      -2.123  12.744  22.966  0.00  0.00    +0.000 A 
ATOM     16 CL   UNL     1      -3.710  12.569  22.337  0.00  0.00    +0.000 Cl
ATOM     17  N   UNL     1      -1.895  13.844  23.725  0.00  0.00    +0.000 N 
ATOM     18  C   UNL     1      -1.065  14.576  22.897  0.00  0.00    +0.000 A 
ATOM     19  C   UNL     1      -1.172  15.910  22.536  0.00  0.00    +0.000 A 
ATOM     20  C   UNL     1      -0.239  16.386  21.626  0.00  0.00    +0.000 A 
ATOM     21  C   UNL     1      -0.544  17.698  20.948  0.00  0.00    +0.000 C 
ATOM     22  C   UNL     1       0.920  15.639  21.357  0.00  0.00    +0.000 A 
ATOM     23  C   UNL     1       0.966  14.244  21.675  0.00  0.00    +0.000 A 
ATOM     24  C   UNL     1      -0.176  13.650  22.323  0.00  0.00    +0.000 A 
ATOM     25  H   UNL     1      -1.611  13.731  24.688  0.00  0.00    +0.000 HD
BRANCH  22  26
ATOM     26  O   UNL     1       1.843  16.375  20.665  0.00  0.00    +0.000 OA
ATOM     27  C   UNL     1       2.521  15.899  19.518  0.00  0.00    +0.000 C 
ENDBRANCH  22  26
ENDBRANCH  12  14
BRANCH   1  29
ATOM     28  C   UNL     1       1.742   5.834  20.620  0.00  0.00    +0.000 C 
ATOM     29  O   UNL     1       2.513   7.012  20.410  0.00  0.00    +0.000 OA
ENDBRANCH   1  29
TORSDOF 3
ENDMDL
MODEL 9
REMARK VINA RESULT:      -6.2      3.666      6.481
REMARK  Name = 
REMARK  7 active torsions:
REMARK  status: ('A' for Active; 'I' for Inactive)
REMARK    1  A    between atoms: C_1  and  O_2
REMARK    2  A    between atoms: O_2  and  C_3
REMARK    3  A    between atoms: C_8  and  C_9
REMARK    4  A    between atoms: C_14  and  C_15
REMARK    5  A    between atoms: C_21  and  C_22
REMARK    6  A    between atoms: C_23  and  O_24
REMARK    7  A    between atoms: O_24  and  C_25
REMARK                            x       y       z     vdW  Elec       q    Type
REMARK                         _______ _______ _______ _____ _____    ______ ____
ROOT
ATOM      1  C   UNL     1       0.913  14.275  21.536  0.00  0.00    +0.000 A 
ATOM      2  C   UNL     1       1.246  13.093  20.854  0.00  0.00    +0.000 A 
ATOM      3  C   UNL     1       0.304  12.490  20.061  0.00  0.00    +0.000 A 
ATOM      4  C   UNL     1      -1.002  12.977  20.057  0.00  0.00    +0.000 A 
ATOM      5  C   UNL     1      -1.372  14.153  20.720  0.00  0.00    +0.000 A 
ATOM      6  C   UNL     1      -0.379  14.826  21.462  0.00  0.00    +0.000 A 
ATOM      7  C   UNL     1      -0.691  16.122  22.172  0.00  0.00    +0.000 C 
ATOM      8  N   UNL     1      -1.833  12.065  19.418  0.00  0.00    +0.000 N 
ATOM      9  C   UNL     1      -1.142  10.913  19.028  0.00  0.00    +0.000 C 
ATOM     10  O   UNL     1      -1.613   9.939  18.479  0.00  0.00    +0.000 OA
ATOM     11  C   UNL     1       0.333  11.172  19.363  0.00  0.00    +0.000 C 
ATOM     12  C   UNL     1       1.412  10.356  19.382  0.00  0.00    +0.000 C 
ATOM     13  H   UNL     1      -2.837  12.152  19.335  0.00  0.00    +0.000 HD
ENDROOT
BRANCH  12  14
ATOM     14  C   UNL     1       1.370   8.916  19.537  0.00  0.00    +0.000 A 
ATOM     15  C   UNL     1       1.159   8.425  20.823  0.00  0.00    +0.000 A 
ATOM     16 CL   UNL     1       1.690   9.020  22.342  0.00  0.00    +0.000 Cl
ATOM     17  N   UNL     1       1.021   7.081  20.718  0.00  0.00    +0.000 N 
ATOM     18  C   UNL     1       2.065   6.768  19.867  0.00  0.00    +0.000 A 
ATOM     19  C   UNL     1       3.033   5.788  20.020  0.00  0.00    +0.000 A 
ATOM     20  C   UNL     1       4.019   5.728  19.045  0.00  0.00    +0.000 A 
ATOM     21  C   UNL     1       5.261   4.938  19.369  0.00  0.00    +0.000 C 
ATOM     22  C   UNL     1       3.841   6.408  17.828  0.00  0.00    +0.000 A 
ATOM     23  C   UNL     1       2.883   7.467  17.729  0.00  0.00    +0.000 A 
ATOM     24  C   UNL     1       2.077   7.774  18.885  0.00  0.00    +0.000 A 
ATOM     25  H   UNL     1       0.114   6.691  20.506  0.00  0.00    +0.000 HD
BRANCH  22  26
ATOM     26  O   UNL     1       4.764   6.018  16.896  0.00  0.00    +0.000 OA
ATOM     27  C   UNL     1       5.115   6.799  15.770  0.00  0.00    +0.000 C 
ENDBRANCH  22  26
ENDBRANCH  12  14
BRANCH   1  29
ATOM     28  C   UNL     1       2.970  15.408  21.676  0.00  0.00    +0.000 C 
ATOM     29  O   UNL     1       1.811  14.925  22.347  0.00  0.00    +0.000 OA
ENDBRANCH   1  29
TORSDOF 3
ENDMDL
