MODEL 1
REMARK VINA RESULT:      -7.9      0.000      0.000
REMARK  Name = 
REMARK  20 active torsions:
REMARK  status: ('A' for Active; 'I' for Inactive)
REMARK    1  A    between atoms: C_2  and  C_3
REMARK    2  A    between atoms: C_3  and  C_4
REMARK    3  A    between atoms: C_3  and  C_5
REMARK    4  A    between atoms: C_3  and  C_6
REMARK    5  A    between atoms: C_8  and  C_9
REMARK    6  A    between atoms: C_9  and  C_10
REMARK    7  A    between atoms: C_10  and  C_11
REMARK    8  A    between atoms: C_11  and  C_12
REMARK    9  A    between atoms: C_14  and  O_15
REMARK   10  A    between atoms: C_16  and  O_17
REMARK   11  A    between atoms: C_18  and  C_19
REMARK   12  A    between atoms: C_19  and  C_20
REMARK   13  A    between atoms: C_21  and  C_22
REMARK   14  A    between atoms: C_21  and  C_23
REMARK   15  A    between atoms: C_24  and  C_25
REMARK   16  A    between atoms: C_25  and  C_26
REMARK   17  A    between atoms: C_27  and  C_28
REMARK   18  A    between atoms: C_27  and  C_29
REMARK   19  A    between atoms: C_30  and  O_31
REMARK   20  A    between atoms: C_33  and  O_34
REMARK                            x       y       z     vdW  Elec       q    Type
REMARK                         _______ _______ _______ _____ _____    ______ ____
ROOT
ATOM      1  C   UNL     1       0.321  10.041  19.968  0.00  0.00    +0.000 A 
ATOM      2  C   UNL     1       0.307   9.282  21.156  0.00  0.00    +0.000 A 
ATOM      3  C   UNL     1      -0.352   9.743  22.282  0.00  0.00    +0.000 A 
ATOM      4  C   UNL     1      -1.037  10.947  22.247  0.00  0.00    +0.000 A 
ATOM      5  C   UNL     1      -1.077  11.738  21.087  0.00  0.00    +0.000 A 
ATOM      6  C   UNL     1      -0.352  11.303  19.935  0.00  0.00    +0.000 A 
ENDROOT
BRANCH   3   7
ATOM      7  O   UNL     1      -0.352   9.039  23.456  0.00  0.00    +0.000 OA
ATOM      8  H   UNL     1       0.258   8.286  23.358  0.00  0.00    +0.000 HD
ENDBRANCH   3   7
BRANCH   4   9
ATOM      9  O   UNL     1      -1.672  11.351  23.395  0.00  0.00    +0.000 OA
ATOM     10  H   UNL     1      -1.662  10.561  23.969  0.00  0.00    +0.000 HD
ENDBRANCH   4   9
BRANCH   1  11
ATOM     11  C   UNL     1       1.068   9.528  18.744  0.00  0.00    +0.000 C 
BRANCH  11  12
ATOM     12  C   UNL     1       2.095   8.420  18.990  0.00  0.00    +0.000 C 
BRANCH  12  13
ATOM     13  C   UNL     1       2.853   8.049  17.716  0.00  0.00    +0.000 C 
BRANCH  13  16
ATOM     14  C   UNL     1       2.720   4.336  18.612  0.00  0.00    +0.000 A 
ATOM     15  C   UNL     1       2.474   5.721  18.540  0.00  0.00    +0.000 A 
ATOM     16  C   UNL     1       3.276   6.601  17.783  0.00  0.00    +0.000 A 
ATOM     17  C   UNL     1       4.348   6.068  17.069  0.00  0.00    +0.000 A 
ATOM     18  C   UNL     1       4.619   4.705  17.109  0.00  0.00    +0.000 A 
ATOM     19  C   UNL     1       3.819   3.855  17.876  0.00  0.00    +0.000 A 
BRANCH  14  20
ATOM     20  C   UNL     1       1.836   3.409  19.478  0.00  0.00    +0.000 C 
ATOM     21  C   UNL     1       1.036   2.361  18.662  0.00  0.00    +0.000 C 
ATOM     22  C   UNL     1       0.786   4.292  20.196  0.00  0.00    +0.000 C 
BRANCH  20  24
ATOM     23  C   UNL     1       2.413   2.552  21.830  0.00  0.00    +0.000 C 
ATOM     24  C   UNL     1       2.624   2.593  20.506  0.00  0.00    +0.000 C 
ENDBRANCH  20  24
ENDBRANCH  14  20
BRANCH  17  25
ATOM     25  O   UNL     1       5.179   6.815  16.284  0.00  0.00    +0.000 OA
ATOM     26  H   UNL     1       6.007   6.336  16.137  0.00  0.00    +0.000 HD
ENDBRANCH  17  25
BRANCH  19  27
ATOM     27  O   UNL     1       4.121   2.520  17.899  0.00  0.00    +0.000 OA
ATOM     28  H   UNL     1       4.205   2.232  18.822  0.00  0.00    +0.000 HD
ENDBRANCH  19  27
ENDBRANCH  13  16
ENDBRANCH  12  13
ENDBRANCH  11  12
ENDBRANCH   1  11
BRANCH   5  29
ATOM     29  C   UNL     1      -1.890  13.020  21.120  0.00  0.00    +0.000 C 
BRANCH  29  30
ATOM     30  C   UNL     1      -3.275  12.891  20.539  0.00  0.00    +0.000 C 
ATOM     31  C   UNL     1      -4.454  12.885  21.195  0.00  0.00    +0.000 C 
ATOM     32  C   UNL     1      -4.616  12.944  22.688  0.00  0.00    +0.000 C 
ATOM     33  C   UNL     1      -5.758  12.857  20.437  0.00  0.00    +0.000 C 
ENDBRANCH  29  30
ENDBRANCH   5  29
BRANCH   6  34
ATOM     34  C   UNL     1      -0.221  12.210  18.713  0.00  0.00    +0.000 C 
BRANCH  34  35
ATOM     35  C   UNL     1       1.019  13.069  18.622  0.00  0.00    +0.000 C 
ATOM     36  C   UNL     1       1.018  14.421  18.686  0.00  0.00    +0.000 C 
ATOM     37  C   UNL     1      -0.221  15.258  18.885  0.00  0.00    +0.000 C 
ATOM     38  C   UNL     1       2.277  15.239  18.550  0.00  0.00    +0.000 C 
ENDBRANCH  34  35
ENDBRANCH   6  34
TORSDOF 14
ENDMDL
MODEL 2
REMARK VINA RESULT:      -7.8      1.308      2.294
REMARK  Name = 
REMARK  20 active torsions:
REMARK  status: ('A' for Active; 'I' for Inactive)
REMARK    1  A    between atoms: C_2  and  C_3
REMARK    2  A    between atoms: C_3  and  C_4
REMARK    3  A    between atoms: C_3  and  C_5
REMARK    4  A    between atoms: C_3  and  C_6
REMARK    5  A    between atoms: C_8  and  C_9
REMARK    6  A    between atoms: C_9  and  C_10
REMARK    7  A    between atoms: C_10  and  C_11
REMARK    8  A    between atoms: C_11  and  C_12
REMARK    9  A    between atoms: C_14  and  O_15
REMARK   10  A    between atoms: C_16  and  O_17
REMARK   11  A    between atoms: C_18  and  C_19
REMARK   12  A    between atoms: C_19  and  C_20
REMARK   13  A    between atoms: C_21  and  C_22
REMARK   14  A    between atoms: C_21  and  C_23
REMARK   15  A    between atoms: C_24  and  C_25
REMARK   16  A    between atoms: C_25  and  C_26
REMARK   17  A    between atoms: C_27  and  C_28
REMARK   18  A    between atoms: C_27  and  C_29
REMARK   19  A    between atoms: C_30  and  O_31
REMARK   20  A    between atoms: C_33  and  O_34
REMARK                            x       y       z     vdW  Elec       q    Type
REMARK                         _______ _______ _______ _____ _____    ______ ____
ROOT
ATOM      1  C   UNL     1       0.590  10.123  19.841  0.00  0.00    +0.000 A 
ATOM      2  C   UNL     1       0.891   9.543  21.091  0.00  0.00    +0.000 A 
ATOM      3  C   UNL     1       0.347  10.053  22.256  0.00  0.00    +0.000 A 
ATOM      4  C   UNL     1      -0.530  11.124  22.207  0.00  0.00    +0.000 A 
ATOM      5  C   UNL     1      -0.885  11.731  20.991  0.00  0.00    +0.000 A 
ATOM      6  C   UNL     1      -0.285  11.253  19.786  0.00  0.00    +0.000 A 
ENDROOT
BRANCH   3   7
ATOM      7  O   UNL     1       0.650   9.528  23.483  0.00  0.00    +0.000 OA
ATOM      8  H   UNL     1       0.869  10.264  24.082  0.00  0.00    +0.000 HD
ENDBRANCH   3   7
BRANCH   4   9
ATOM      9  O   UNL     1      -1.038  11.585  23.397  0.00  0.00    +0.000 OA
ATOM     10  H   UNL     1      -0.932  10.835  24.012  0.00  0.00    +0.000 HD
ENDBRANCH   4   9
BRANCH   1  11
ATOM     11  C   UNL     1       1.213   9.562  18.569  0.00  0.00    +0.000 C 
BRANCH  11  12
ATOM     12  C   UNL     1       1.984   8.246  18.714  0.00  0.00    +0.000 C 
BRANCH  12  13
ATOM     13  C   UNL     1       3.114   8.130  17.693  0.00  0.00    +0.000 C 
BRANCH  13  16
ATOM     14  C   UNL     1       3.297   4.395  18.482  0.00  0.00    +0.000 A 
ATOM     15  C   UNL     1       2.982   5.768  18.496  0.00  0.00    +0.000 A 
ATOM     16  C   UNL     1       3.605   6.703  17.643  0.00  0.00    +0.000 A 
ATOM     17  C   UNL     1       4.562   6.240  16.741  0.00  0.00    +0.000 A 
ATOM     18  C   UNL     1       4.895   4.890  16.693  0.00  0.00    +0.000 A 
ATOM     19  C   UNL     1       4.275   3.985  17.557  0.00  0.00    +0.000 A 
BRANCH  14  20
ATOM     20  C   UNL     1       2.615   3.407  19.456  0.00  0.00    +0.000 C 
ATOM     21  C   UNL     1       1.619   4.078  20.438  0.00  0.00    +0.000 C 
ATOM     22  C   UNL     1       3.720   2.768  20.332  0.00  0.00    +0.000 C 
BRANCH  20  24
ATOM     23  C   UNL     1       0.476   2.140  18.808  0.00  0.00    +0.000 C 
ATOM     24  C   UNL     1       1.805   2.313  18.755  0.00  0.00    +0.000 C 
ENDBRANCH  20  24
ENDBRANCH  14  20
BRANCH  17  25
ATOM     25  O   UNL     1       5.215   7.044  15.852  0.00  0.00    +0.000 OA
ATOM     26  H   UNL     1       6.102   6.694  15.686  0.00  0.00    +0.000 HD
ENDBRANCH  17  25
BRANCH  19  27
ATOM     27  O   UNL     1       4.635   2.666  17.487  0.00  0.00    +0.000 OA
ATOM     28  H   UNL     1       3.834   2.119  17.510  0.00  0.00    +0.000 HD
ENDBRANCH  19  27
ENDBRANCH  13  16
ENDBRANCH  12  13
ENDBRANCH  11  12
ENDBRANCH   1  11
BRANCH   5  29
ATOM     29  C   UNL     1      -1.890  12.869  21.022  0.00  0.00    +0.000 C 
BRANCH  29  30
ATOM     30  C   UNL     1      -3.330  12.424  21.041  0.00  0.00    +0.000 C 
ATOM     31  C   UNL     1      -4.436  13.181  20.883  0.00  0.00    +0.000 C 
ATOM     32  C   UNL     1      -4.448  14.674  20.718  0.00  0.00    +0.000 C 
ATOM     33  C   UNL     1      -5.802  12.546  20.821  0.00  0.00    +0.000 C 
ENDBRANCH  29  30
ENDBRANCH   5  29
BRANCH   6  34
ATOM     34  C   UNL     1      -0.504  11.990  18.466  0.00  0.00    +0.000 C 
BRANCH  34  35
ATOM     35  C   UNL     1      -1.927  12.110  17.971  0.00  0.00    +0.000 C 
ATOM     36  C   UNL     1      -2.590  11.133  17.309  0.00  0.00    +0.000 C 
ATOM     37  C   UNL     1      -2.008   9.776  16.998  0.00  0.00    +0.000 C 
ATOM     38  C   UNL     1      -3.996  11.312  16.798  0.00  0.00    +0.000 C 
ENDBRANCH  34  35
ENDBRANCH   6  34
TORSDOF 14
ENDMDL
MODEL 3
REMARK VINA RESULT:      -7.8      2.567      4.434
REMARK  Name = 
REMARK  20 active torsions:
REMARK  status: ('A' for Active; 'I' for Inactive)
REMARK    1  A    between atoms: C_2  and  C_3
REMARK    2  A    between atoms: C_3  and  C_4
REMARK    3  A    between atoms: C_3  and  C_5
REMARK    4  A    between atoms: C_3  and  C_6
REMARK    5  A    between atoms: C_8  and  C_9
REMARK    6  A    between atoms: C_9  and  C_10
REMARK    7  A    between atoms: C_10  and  C_11
REMARK    8  A    between atoms: C_11  and  C_12
REMARK    9  A    between atoms: C_14  and  O_15
REMARK   10  A    between atoms: C_16  and  O_17
REMARK   11  A    between atoms: C_18  and  C_19
REMARK   12  A    between atoms: C_19  and  C_20
REMARK   13  A    between atoms: C_21  and  C_22
REMARK   14  A    between atoms: C_21  and  C_23
REMARK   15  A    between atoms: C_24  and  C_25
REMARK   16  A    between atoms: C_25  and  C_26
REMARK   17  A    between atoms: C_27  and  C_28
REMARK   18  A    between atoms: C_27  and  C_29
REMARK   19  A    between atoms: C_30  and  O_31
REMARK   20  A    between atoms: C_33  and  O_34
REMARK                            x       y       z     vdW  Elec       q    Type
REMARK                         _______ _______ _______ _____ _____    ______ ____
ROOT
ATOM      1  C   UNL     1       0.943  10.688  18.338  0.00  0.00    +0.000 A 
ATOM      2  C   UNL     1       2.055  11.550  18.433  0.00  0.00    +0.000 A 
ATOM      3  C   UNL     1       1.903  12.852  18.876  0.00  0.00    +0.000 A 
ATOM      4  C   UNL     1       0.658  13.318  19.264  0.00  0.00    +0.000 A 
ATOM      5  C   UNL     1      -0.483  12.501  19.212  0.00  0.00    +0.000 A 
ATOM      6  C   UNL     1      -0.353  11.174  18.701  0.00  0.00    +0.000 A 
ENDROOT
BRANCH   3   7
ATOM      7  O   UNL     1       2.962  13.717  18.946  0.00  0.00    +0.000 OA
ATOM      8  H   UNL     1       2.656  14.596  18.658  0.00  0.00    +0.000 HD
ENDBRANCH   3   7
BRANCH   4   9
ATOM      9  O   UNL     1       0.571  14.619  19.696  0.00  0.00    +0.000 OA
ATOM     10  H   UNL     1      -0.021  15.050  19.049  0.00  0.00    +0.000 HD
ENDBRANCH   4   9
BRANCH   1  11
ATOM     11  C   UNL     1       1.124   9.264  17.829  0.00  0.00    +0.000 C 
BRANCH  11  12
ATOM     12  C   UNL     1       2.426   8.562  18.223  0.00  0.00    +0.000 C 
BRANCH  12  13
ATOM     13  C   UNL     1       2.179   7.384  19.164  0.00  0.00    +0.000 C 
BRANCH  13  16
ATOM     14  C   UNL     1       4.760   5.211  17.368  0.00  0.00    +0.000 A 
ATOM     15  C   UNL     1       4.025   6.300  17.875  0.00  0.00    +0.000 A 
ATOM     16  C   UNL     1       2.824   6.141  18.597  0.00  0.00    +0.000 A 
ATOM     17  C   UNL     1       2.357   4.848  18.826  0.00  0.00    +0.000 A 
ATOM     18  C   UNL     1       3.058   3.747  18.348  0.00  0.00    +0.000 A 
ATOM     19  C   UNL     1       4.238   3.929  17.624  0.00  0.00    +0.000 A 
BRANCH  14  20
ATOM     20  C   UNL     1       6.056   5.427  16.553  0.00  0.00    +0.000 C 
ATOM     21  C   UNL     1       7.218   4.483  16.959  0.00  0.00    +0.000 C 
ATOM     22  C   UNL     1       6.553   6.868  16.830  0.00  0.00    +0.000 C 
BRANCH  20  24
ATOM     23  C   UNL     1       6.117   4.087  14.363  0.00  0.00    +0.000 C 
ATOM     24  C   UNL     1       5.879   5.215  15.048  0.00  0.00    +0.000 C 
ENDBRANCH  20  24
ENDBRANCH  14  20
BRANCH  17  25
ATOM     25  O   UNL     1       1.221   4.568  19.531  0.00  0.00    +0.000 OA
ATOM     26  H   UNL     1       0.935   3.663  19.343  0.00  0.00    +0.000 HD
ENDBRANCH  17  25
BRANCH  19  27
ATOM     27  O   UNL     1       4.896   2.821  17.160  0.00  0.00    +0.000 OA
ATOM     28  H   UNL     1       5.154   2.268  17.915  0.00  0.00    +0.000 HD
ENDBRANCH  19  27
ENDBRANCH  13  16
ENDBRANCH  12  13
ENDBRANCH  11  12
ENDBRANCH   1  11
BRANCH   5  29
ATOM     29  C   UNL     1      -1.801  13.076  19.700  0.00  0.00    +0.000 C 
BRANCH  29  30
ATOM     30  C   UNL     1      -2.329  12.434  20.958  0.00  0.00    +0.000 C 
ATOM     31  C   UNL     1      -1.967  12.683  22.234  0.00  0.00    +0.000 C 
ATOM     32  C   UNL     1      -0.884  13.635  22.657  0.00  0.00    +0.000 C 
ATOM     33  C   UNL     1      -2.684  12.020  23.382  0.00  0.00    +0.000 C 
ENDBRANCH  29  30
ENDBRANCH   5  29
BRANCH   6  34
ATOM     34  C   UNL     1      -1.590  10.310  18.460  0.00  0.00    +0.000 C 
BRANCH  34  35
ATOM     35  C   UNL     1      -1.981  10.051  17.023  0.00  0.00    +0.000 C 
ATOM     36  C   UNL     1      -3.081  10.566  16.427  0.00  0.00    +0.000 C 
ATOM     37  C   UNL     1      -4.057  11.494  17.107  0.00  0.00    +0.000 C 
ATOM     38  C   UNL     1      -3.453  10.248  15.001  0.00  0.00    +0.000 C 
ENDBRANCH  34  35
ENDBRANCH   6  34
TORSDOF 14
ENDMDL
MODEL 4
REMARK VINA RESULT:      -7.7      2.327      3.382
REMARK  Name = 
REMARK  20 active torsions:
REMARK  status: ('A' for Active; 'I' for Inactive)
REMARK    1  A    between atoms: C_2  and  C_3
REMARK    2  A    between atoms: C_3  and  C_4
REMARK    3  A    between atoms: C_3  and  C_5
REMARK    4  A    between atoms: C_3  and  C_6
REMARK    5  A    between atoms: C_8  and  C_9
REMARK    6  A    between atoms: C_9  and  C_10
REMARK    7  A    between atoms: C_10  and  C_11
REMARK    8  A    between atoms: C_11  and  C_12
REMARK    9  A    between atoms: C_14  and  O_15
REMARK   10  A    between atoms: C_16  and  O_17
REMARK   11  A    between atoms: C_18  and  C_19
REMARK   12  A    between atoms: C_19  and  C_20
REMARK   13  A    between atoms: C_21  and  C_22
REMARK   14  A    between atoms: C_21  and  C_23
REMARK   15  A    between atoms: C_24  and  C_25
REMARK   16  A    between atoms: C_25  and  C_26
REMARK   17  A    between atoms: C_27  and  C_28
REMARK   18  A    between atoms: C_27  and  C_29
REMARK   19  A    between atoms: C_30  and  O_31
REMARK   20  A    between atoms: C_33  and  O_34
REMARK                            x       y       z     vdW  Elec       q    Type
REMARK                         _______ _______ _______ _____ _____    ______ ____
ROOT
ATOM      1  C   UNL     1       1.061  10.555  18.401  0.00  0.00    +0.000 A 
ATOM      2  C   UNL     1       2.124  11.469  18.551  0.00  0.00    +0.000 A 
ATOM      3  C   UNL     1       1.894  12.750  19.020  0.00  0.00    +0.000 A 
ATOM      4  C   UNL     1       0.616  13.143  19.382  0.00  0.00    +0.000 A 
ATOM      5  C   UNL     1      -0.481  12.271  19.275  0.00  0.00    +0.000 A 
ATOM      6  C   UNL     1      -0.268  10.965  18.736  0.00  0.00    +0.000 A 
ENDROOT
BRANCH   3   7
ATOM      7  O   UNL     1       2.905  13.665  19.143  0.00  0.00    +0.000 OA
ATOM      8  H   UNL     1       2.847  14.283  18.393  0.00  0.00    +0.000 HD
ENDBRANCH   3   7
BRANCH   4   9
ATOM      9  O   UNL     1       0.451  14.427  19.841  0.00  0.00    +0.000 OA
ATOM     10  H   UNL     1       0.046  14.318  20.723  0.00  0.00    +0.000 HD
ENDBRANCH   4   9
BRANCH   1  11
ATOM     11  C   UNL     1       1.328   9.155  17.864  0.00  0.00    +0.000 C 
BRANCH  11  12
ATOM     12  C   UNL     1       2.459   8.373  18.539  0.00  0.00    +0.000 C 
BRANCH  12  13
ATOM     13  C   UNL     1       3.316   7.617  17.524  0.00  0.00    +0.000 C 
BRANCH  13  16
ATOM     14  C   UNL     1       3.273   4.258  19.347  0.00  0.00    +0.000 A 
ATOM     15  C   UNL     1       2.915   5.503  18.794  0.00  0.00    +0.000 A 
ATOM     16  C   UNL     1       3.843   6.350  18.154  0.00  0.00    +0.000 A 
ATOM     17  C   UNL     1       5.167   5.924  18.056  0.00  0.00    +0.000 A 
ATOM     18  C   UNL     1       5.558   4.698  18.583  0.00  0.00    +0.000 A 
ATOM     19  C   UNL     1       4.624   3.883  19.225  0.00  0.00    +0.000 A 
BRANCH  14  20
ATOM     20  C   UNL     1       2.231   3.373  20.070  0.00  0.00    +0.000 C 
ATOM     21  C   UNL     1       0.958   4.138  20.517  0.00  0.00    +0.000 C 
ATOM     22  C   UNL     1       2.888   2.832  21.364  0.00  0.00    +0.000 C 
BRANCH  20  24
ATOM     23  C   UNL     1       0.527   2.129  18.605  0.00  0.00    +0.000 C 
ATOM     24  C   UNL     1       1.716   2.210  19.219  0.00  0.00    +0.000 C 
ENDBRANCH  20  24
ENDBRANCH  14  20
BRANCH  17  25
ATOM     25  O   UNL     1       6.149   6.645  17.439  0.00  0.00    +0.000 OA
ATOM     26  H   UNL     1       5.936   7.589  17.479  0.00  0.00    +0.000 HD
ENDBRANCH  17  25
BRANCH  19  27
ATOM     27  O   UNL     1       5.047   2.687  19.740  0.00  0.00    +0.000 OA
ATOM     28  H   UNL     1       5.990   2.753  19.959  0.00  0.00    +0.000 HD
ENDBRANCH  19  27
ENDBRANCH  13  16
ENDBRANCH  12  13
ENDBRANCH  11  12
ENDBRANCH   1  11
BRANCH   5  29
ATOM     29  C   UNL     1      -1.840  12.767  19.737  0.00  0.00    +0.000 C 
BRANCH  29  30
ATOM     30  C   UNL     1      -2.201  12.362  21.143  0.00  0.00    +0.000 C 
ATOM     31  C   UNL     1      -2.806  13.107  22.093  0.00  0.00    +0.000 C 
ATOM     32  C   UNL     1      -3.189  14.552  21.948  0.00  0.00    +0.000 C 
ATOM     33  C   UNL     1      -3.191  12.500  23.418  0.00  0.00    +0.000 C 
ENDBRANCH  29  30
ENDBRANCH   5  29
BRANCH   6  34
ATOM     34  C   UNL     1      -1.452  10.048  18.438  0.00  0.00    +0.000 C 
BRANCH  34  35
ATOM     35  C   UNL     1      -1.940   9.994  17.008  0.00  0.00    +0.000 C 
ATOM     36  C   UNL     1      -3.155  10.427  16.599  0.00  0.00    +0.000 C 
ATOM     37  C   UNL     1      -4.183  11.048  17.512  0.00  0.00    +0.000 C 
ATOM     38  C   UNL     1      -3.614  10.317  15.168  0.00  0.00    +0.000 C 
ENDBRANCH  34  35
ENDBRANCH   6  34
TORSDOF 14
ENDMDL
MODEL 5
REMARK VINA RESULT:      -7.7      2.349      3.807
REMARK  Name = 
REMARK  20 active torsions:
REMARK  status: ('A' for Active; 'I' for Inactive)
REMARK    1  A    between atoms: C_2  and  C_3
REMARK    2  A    between atoms: C_3  and  C_4
REMARK    3  A    between atoms: C_3  and  C_5
REMARK    4  A    between atoms: C_3  and  C_6
REMARK    5  A    between atoms: C_8  and  C_9
REMARK    6  A    between atoms: C_9  and  C_10
REMARK    7  A    between atoms: C_10  and  C_11
REMARK    8  A    between atoms: C_11  and  C_12
REMARK    9  A    between atoms: C_14  and  O_15
REMARK   10  A    between atoms: C_16  and  O_17
REMARK   11  A    between atoms: C_18  and  C_19
REMARK   12  A    between atoms: C_19  and  C_20
REMARK   13  A    between atoms: C_21  and  C_22
REMARK   14  A    between atoms: C_21  and  C_23
REMARK   15  A    between atoms: C_24  and  C_25
REMARK   16  A    between atoms: C_25  and  C_26
REMARK   17  A    between atoms: C_27  and  C_28
REMARK   18  A    between atoms: C_27  and  C_29
REMARK   19  A    between atoms: C_30  and  O_31
REMARK   20  A    between atoms: C_33  and  O_34
REMARK                            x       y       z     vdW  Elec       q    Type
REMARK                         _______ _______ _______ _____ _____    ______ ____
ROOT
ATOM      1  C   UNL     1       0.203  10.465  18.336  0.00  0.00    +0.000 A 
ATOM      2  C   UNL     1      -0.796   9.810  17.586  0.00  0.00    +0.000 A 
ATOM      3  C   UNL     1      -2.124  10.180  17.703  0.00  0.00    +0.000 A 
ATOM      4  C   UNL     1      -2.487  11.225  18.536  0.00  0.00    +0.000 A 
ATOM      5  C   UNL     1      -1.536  11.929  19.292  0.00  0.00    +0.000 A 
ATOM      6  C   UNL     1      -0.169  11.520  19.227  0.00  0.00    +0.000 A 
ENDROOT
BRANCH   3   7
ATOM      7  O   UNL     1      -3.114   9.538  17.010  0.00  0.00    +0.000 OA
ATOM      8  H   UNL     1      -3.953   9.674  17.484  0.00  0.00    +0.000 HD
ENDBRANCH   3   7
BRANCH   4   9
ATOM      9  O   UNL     1      -3.821  11.546  18.609  0.00  0.00    +0.000 OA
ATOM     10  H   UNL     1      -3.837  12.522  18.577  0.00  0.00    +0.000 HD
ENDBRANCH   4   9
BRANCH   1  11
ATOM     11  C   UNL     1       1.658  10.032  18.211  0.00  0.00    +0.000 C 
BRANCH  11  12
ATOM     12  C   UNL     1       1.903   8.548  17.922  0.00  0.00    +0.000 C 
BRANCH  12  13
ATOM     13  C   UNL     1       1.935   7.714  19.202  0.00  0.00    +0.000 C 
BRANCH  13  16
ATOM     14  C   UNL     1       4.648   5.532  17.626  0.00  0.00    +0.000 A 
ATOM     15  C   UNL     1       3.686   6.531  17.869  0.00  0.00    +0.000 A 
ATOM     16  C   UNL     1       2.864   6.538  19.015  0.00  0.00    +0.000 A 
ATOM     17  C   UNL     1       3.024   5.516  19.949  0.00  0.00    +0.000 A 
ATOM     18  C   UNL     1       3.968   4.514  19.748  0.00  0.00    +0.000 A 
ATOM     19  C   UNL     1       4.762   4.521  18.600  0.00  0.00    +0.000 A 
BRANCH  14  20
ATOM     20  C   UNL     1       5.509   5.542  16.342  0.00  0.00    +0.000 C 
ATOM     21  C   UNL     1       7.033   5.663  16.608  0.00  0.00    +0.000 C 
ATOM     22  C   UNL     1       5.114   6.792  15.518  0.00  0.00    +0.000 C 
BRANCH  20  24
ATOM     23  C   UNL     1       6.109   3.926  14.438  0.00  0.00    +0.000 C 
ATOM     24  C   UNL     1       5.355   4.282  15.487  0.00  0.00    +0.000 C 
ENDBRANCH  20  24
ENDBRANCH  14  20
BRANCH  17  25
ATOM     25  O   UNL     1       2.303   5.429  21.105  0.00  0.00    +0.000 OA
ATOM     26  H   UNL     1       2.169   6.314  21.474  0.00  0.00    +0.000 HD
ENDBRANCH  17  25
BRANCH  19  27
ATOM     27  O   UNL     1       5.674   3.514  18.431  0.00  0.00    +0.000 OA
ATOM     28  H   UNL     1       6.403   3.838  17.878  0.00  0.00    +0.000 HD
ENDBRANCH  19  27
ENDBRANCH  13  16
ENDBRANCH  12  13
ENDBRANCH  11  12
ENDBRANCH   1  11
BRANCH   5  29
ATOM     29  C   UNL     1      -2.014  13.091  20.145  0.00  0.00    +0.000 C 
BRANCH  29  30
ATOM     30  C   UNL     1      -2.832  12.685  21.344  0.00  0.00    +0.000 C 
ATOM     31  C   UNL     1      -2.484  12.746  22.647  0.00  0.00    +0.000 C 
ATOM     32  C   UNL     1      -1.145  13.185  23.167  0.00  0.00    +0.000 C 
ATOM     33  C   UNL     1      -3.477  12.396  23.726  0.00  0.00    +0.000 C 
ENDBRANCH  29  30
ENDBRANCH   5  29
BRANCH   6  34
ATOM     34  C   UNL     1       0.870  12.138  20.160  0.00  0.00    +0.000 C 
BRANCH  34  35
ATOM     35  C   UNL     1       1.829  13.139  19.557  0.00  0.00    +0.000 C 
ATOM     36  C   UNL     1       1.898  14.442  19.917  0.00  0.00    +0.000 C 
ATOM     37  C   UNL     1       1.045  15.070  20.991  0.00  0.00    +0.000 C 
ATOM     38  C   UNL     1       2.843  15.415  19.259  0.00  0.00    +0.000 C 
ENDBRANCH  34  35
ENDBRANCH   6  34
TORSDOF 14
ENDMDL
MODEL 6
REMARK VINA RESULT:      -7.7      1.714      2.576
REMARK  Name = 
REMARK  20 active torsions:
REMARK  status: ('A' for Active; 'I' for Inactive)
REMARK    1  A    between atoms: C_2  and  C_3
REMARK    2  A    between atoms: C_3  and  C_4
REMARK    3  A    between atoms: C_3  and  C_5
REMARK    4  A    between atoms: C_3  and  C_6
REMARK    5  A    between atoms: C_8  and  C_9
REMARK    6  A    between atoms: C_9  and  C_10
REMARK    7  A    between atoms: C_10  and  C_11
REMARK    8  A    between atoms: C_11  and  C_12
REMARK    9  A    between atoms: C_14  and  O_15
REMARK   10  A    between atoms: C_16  and  O_17
REMARK   11  A    between atoms: C_18  and  C_19
REMARK   12  A    between atoms: C_19  and  C_20
REMARK   13  A    between atoms: C_21  and  C_22
REMARK   14  A    between atoms: C_21  and  C_23
REMARK   15  A    between atoms: C_24  and  C_25
REMARK   16  A    between atoms: C_25  and  C_26
REMARK   17  A    between atoms: C_27  and  C_28
REMARK   18  A    between atoms: C_27  and  C_29
REMARK   19  A    between atoms: C_30  and  O_31
REMARK   20  A    between atoms: C_33  and  O_34
REMARK                            x       y       z     vdW  Elec       q    Type
REMARK                         _______ _______ _______ _____ _____    ______ ____
ROOT
ATOM      1  C   UNL     1       0.676   9.770  19.413  0.00  0.00    +0.000 A 
ATOM      2  C   UNL     1       1.330   9.218  20.534  0.00  0.00    +0.000 A 
ATOM      3  C   UNL     1       0.984   9.607  21.815  0.00  0.00    +0.000 A 
ATOM      4  C   UNL     1      -0.034  10.524  22.017  0.00  0.00    +0.000 A 
ATOM      5  C   UNL     1      -0.736  11.093  20.941  0.00  0.00    +0.000 A 
ATOM      6  C   UNL     1      -0.351  10.745  19.611  0.00  0.00    +0.000 A 
ENDROOT
BRANCH   3   7
ATOM      7  O   UNL     1       1.627   9.110  22.917  0.00  0.00    +0.000 OA
ATOM      8  H   UNL     1       1.178   8.288  23.185  0.00  0.00    +0.000 HD
ENDBRANCH   3   7
BRANCH   4   9
ATOM      9  O   UNL     1      -0.332  10.870  23.312  0.00  0.00    +0.000 OA
ATOM     10  H   UNL     1      -0.947  10.174  23.614  0.00  0.00    +0.000 HD
ENDBRANCH   4   9
BRANCH   1  11
ATOM     11  C   UNL     1       1.082   9.345  18.007  0.00  0.00    +0.000 C 
BRANCH  11  12
ATOM     12  C   UNL     1       1.640   7.926  17.861  0.00  0.00    +0.000 C 
BRANCH  12  13
ATOM     13  C   UNL     1       3.125   7.930  17.501  0.00  0.00    +0.000 C 
BRANCH  13  16
ATOM     14  C   UNL     1       3.363   4.362  18.850  0.00  0.00    +0.000 A 
ATOM     15  C   UNL     1       2.904   5.639  18.473  0.00  0.00    +0.000 A 
ATOM     16  C   UNL     1       3.756   6.633  17.950  0.00  0.00    +0.000 A 
ATOM     17  C   UNL     1       5.107   6.328  17.788  0.00  0.00    +0.000 A 
ATOM     18  C   UNL     1       5.597   5.075  18.142  0.00  0.00    +0.000 A 
ATOM     19  C   UNL     1       4.736   4.111  18.670  0.00  0.00    +0.000 A 
BRANCH  14  20
ATOM     20  C   UNL     1       2.402   3.309  19.450  0.00  0.00    +0.000 C 
ATOM     21  C   UNL     1       2.341   1.984  18.646  0.00  0.00    +0.000 C 
ATOM     22  C   UNL     1       0.972   3.902  19.416  0.00  0.00    +0.000 C 
BRANCH  20  24
ATOM     23  C   UNL     1       1.914   2.716  21.901  0.00  0.00    +0.000 C 
ATOM     24  C   UNL     1       2.762   2.891  20.877  0.00  0.00    +0.000 C 
ENDBRANCH  20  24
ENDBRANCH  14  20
BRANCH  17  25
ATOM     25  O   UNL     1       6.022   7.199  17.271  0.00  0.00    +0.000 OA
ATOM     26  H   UNL     1       5.607   8.060  17.124  0.00  0.00    +0.000 HD
ENDBRANCH  17  25
BRANCH  19  27
ATOM     27  O   UNL     1       5.256   2.892  19.015  0.00  0.00    +0.000 OA
ATOM     28  H   UNL     1       4.619   2.426  19.580  0.00  0.00    +0.000 HD
ENDBRANCH  19  27
ENDBRANCH  13  16
ENDBRANCH  12  13
ENDBRANCH  11  12
ENDBRANCH   1  11
BRANCH   5  29
ATOM     29  C   UNL     1      -1.870  12.054  21.252  0.00  0.00    +0.000 C 
BRANCH  29  30
ATOM     30  C   UNL     1      -1.462  13.505  21.282  0.00  0.00    +0.000 C 
ATOM     31  C   UNL     1      -2.253  14.594  21.181  0.00  0.00    +0.000 C 
ATOM     32  C   UNL     1      -3.737  14.568  20.945  0.00  0.00    +0.000 C 
ATOM     33  C   UNL     1      -1.681  15.979  21.343  0.00  0.00    +0.000 C 
ENDBRANCH  29  30
ENDBRANCH   5  29
BRANCH   6  34
ATOM     34  C   UNL     1      -0.964  11.467  18.412  0.00  0.00    +0.000 C 
BRANCH  34  35
ATOM     35  C   UNL     1      -2.472  11.468  18.305  0.00  0.00    +0.000 C 
ATOM     36  C   UNL     1      -3.159  11.058  17.214  0.00  0.00    +0.000 C 
ATOM     37  C   UNL     1      -2.516  10.519  15.961  0.00  0.00    +0.000 C 
ATOM     38  C   UNL     1      -4.664  11.114  17.137  0.00  0.00    +0.000 C 
ENDBRANCH  34  35
ENDBRANCH   6  34
TORSDOF 14
ENDMDL
MODEL 7
REMARK VINA RESULT:      -7.7      2.637      4.483
REMARK  Name = 
REMARK  20 active torsions:
REMARK  status: ('A' for Active; 'I' for Inactive)
REMARK    1  A    between atoms: C_2  and  C_3
REMARK    2  A    between atoms: C_3  and  C_4
REMARK    3  A    between atoms: C_3  and  C_5
REMARK    4  A    between atoms: C_3  and  C_6
REMARK    5  A    between atoms: C_8  and  C_9
REMARK    6  A    between atoms: C_9  and  C_10
REMARK    7  A    between atoms: C_10  and  C_11
REMARK    8  A    between atoms: C_11  and  C_12
REMARK    9  A    between atoms: C_14  and  O_15
REMARK   10  A    between atoms: C_16  and  O_17
REMARK   11  A    between atoms: C_18  and  C_19
REMARK   12  A    between atoms: C_19  and  C_20
REMARK   13  A    between atoms: C_21  and  C_22
REMARK   14  A    between atoms: C_21  and  C_23
REMARK   15  A    between atoms: C_24  and  C_25
REMARK   16  A    between atoms: C_25  and  C_26
REMARK   17  A    between atoms: C_27  and  C_28
REMARK   18  A    between atoms: C_27  and  C_29
REMARK   19  A    between atoms: C_30  and  O_31
REMARK   20  A    between atoms: C_33  and  O_34
REMARK                            x       y       z     vdW  Elec       q    Type
REMARK                         _______ _______ _______ _____ _____    ______ ____
ROOT
ATOM      1  C   UNL     1       0.276  10.080  18.244  0.00  0.00    +0.000 A 
ATOM      2  C   UNL     1      -0.678   9.692  17.282  0.00  0.00    +0.000 A 
ATOM      3  C   UNL     1      -1.935  10.269  17.259  0.00  0.00    +0.000 A 
ATOM      4  C   UNL     1      -2.263  11.265  18.165  0.00  0.00    +0.000 A 
ATOM      5  C   UNL     1      -1.348  11.710  19.133  0.00  0.00    +0.000 A 
ATOM      6  C   UNL     1      -0.067  11.081  19.207  0.00  0.00    +0.000 A 
ENDROOT
BRANCH   3   7
ATOM      7  O   UNL     1      -2.888   9.885  16.356  0.00  0.00    +0.000 OA
ATOM      8  H   UNL     1      -3.016   8.923  16.441  0.00  0.00    +0.000 HD
ENDBRANCH   3   7
BRANCH   4   9
ATOM      9  O   UNL     1      -3.525  11.801  18.092  0.00  0.00    +0.000 OA
ATOM     10  H   UNL     1      -3.761  11.992  19.020  0.00  0.00    +0.000 HD
ENDBRANCH   4   9
BRANCH   1  11
ATOM     11  C   UNL     1       1.649   9.420  18.268  0.00  0.00    +0.000 C 
BRANCH  11  12
ATOM     12  C   UNL     1       1.709   7.962  17.803  0.00  0.00    +0.000 C 
BRANCH  12  13
ATOM     13  C   UNL     1       2.390   7.061  18.832  0.00  0.00    +0.000 C 
BRANCH  13  16
ATOM     14  C   UNL     1       5.326   5.220  17.223  0.00  0.00    +0.000 A 
ATOM     15  C   UNL     1       4.500   6.196  17.812  0.00  0.00    +0.000 A 
ATOM     16  C   UNL     1       3.144   5.962  18.121  0.00  0.00    +0.000 A 
ATOM     17  C   UNL     1       2.609   4.705  17.843  0.00  0.00    +0.000 A 
ATOM     18  C   UNL     1       3.396   3.713  17.269  0.00  0.00    +0.000 A 
ATOM     19  C   UNL     1       4.732   3.971  16.959  0.00  0.00    +0.000 A 
BRANCH  14  20
ATOM     20  C   UNL     1       6.800   5.525  16.869  0.00  0.00    +0.000 C 
ATOM     21  C   UNL     1       7.160   5.250  15.385  0.00  0.00    +0.000 C 
ATOM     22  C   UNL     1       7.694   4.581  17.712  0.00  0.00    +0.000 C 
BRANCH  20  24
ATOM     23  C   UNL     1       7.976   7.446  18.104  0.00  0.00    +0.000 C 
ATOM     24  C   UNL     1       7.203   6.981  17.111  0.00  0.00    +0.000 C 
ENDBRANCH  20  24
ENDBRANCH  14  20
BRANCH  17  25
ATOM     25  O   UNL     1       1.319   4.354  18.119  0.00  0.00    +0.000 OA
ATOM     26  H   UNL     1       0.717   5.038  17.791  0.00  0.00    +0.000 HD
ENDBRANCH  17  25
BRANCH  19  27
ATOM     27  O   UNL     1       5.474   2.973  16.385  0.00  0.00    +0.000 OA
ATOM     28  H   UNL     1       5.010   2.128  16.502  0.00  0.00    +0.000 HD
ENDBRANCH  19  27
ENDBRANCH  13  16
ENDBRANCH  12  13
ENDBRANCH  11  12
ENDBRANCH   1  11
BRANCH   5  29
ATOM     29  C   UNL     1      -1.772  12.839  20.057  0.00  0.00    +0.000 C 
BRANCH  29  30
ATOM     30  C   UNL     1      -2.497  12.384  21.297  0.00  0.00    +0.000 C 
ATOM     31  C   UNL     1      -2.775  13.100  22.407  0.00  0.00    +0.000 C 
ATOM     32  C   UNL     1      -2.344  14.518  22.654  0.00  0.00    +0.000 C 
ATOM     33  C   UNL     1      -3.612  12.512  23.515  0.00  0.00    +0.000 C 
ENDBRANCH  29  30
ENDBRANCH   5  29
BRANCH   6  34
ATOM     34  C   UNL     1       0.892  11.407  20.350  0.00  0.00    +0.000 C 
BRANCH  34  35
ATOM     35  C   UNL     1       0.440  11.060  21.750  0.00  0.00    +0.000 C 
ATOM     36  C   UNL     1       0.404   9.804  22.251  0.00  0.00    +0.000 C 
ATOM     37  C   UNL     1       0.836   8.576  21.489  0.00  0.00    +0.000 C 
ATOM     38  C   UNL     1      -0.094   9.500  23.641  0.00  0.00    +0.000 C 
ENDBRANCH  34  35
ENDBRANCH   6  34
TORSDOF 14
ENDMDL
MODEL 8
REMARK VINA RESULT:      -7.7      2.252      3.485
REMARK  Name = 
REMARK  20 active torsions:
REMARK  status: ('A' for Active; 'I' for Inactive)
REMARK    1  A    between atoms: C_2  and  C_3
REMARK    2  A    between atoms: C_3  and  C_4
REMARK    3  A    between atoms: C_3  and  C_5
REMARK    4  A    between atoms: C_3  and  C_6
REMARK    5  A    between atoms: C_8  and  C_9
REMARK    6  A    between atoms: C_9  and  C_10
REMARK    7  A    between atoms: C_10  and  C_11
REMARK    8  A    between atoms: C_11  and  C_12
REMARK    9  A    between atoms: C_14  and  O_15
REMARK   10  A    between atoms: C_16  and  O_17
REMARK   11  A    between atoms: C_18  and  C_19
REMARK   12  A    between atoms: C_19  and  C_20
REMARK   13  A    between atoms: C_21  and  C_22
REMARK   14  A    between atoms: C_21  and  C_23
REMARK   15  A    between atoms: C_24  and  C_25
REMARK   16  A    between atoms: C_25  and  C_26
REMARK   17  A    between atoms: C_27  and  C_28
REMARK   18  A    between atoms: C_27  and  C_29
REMARK   19  A    between atoms: C_30  and  O_31
REMARK   20  A    between atoms: C_33  and  O_34
REMARK                            x       y       z     vdW  Elec       q    Type
REMARK                         _______ _______ _______ _____ _____    ______ ____
ROOT
ATOM      1  C   UNL     1       0.205  10.080  18.399  0.00  0.00    +0.000 A 
ATOM      2  C   UNL     1      -0.671   9.657  17.379  0.00  0.00    +0.000 A 
ATOM      3  C   UNL     1      -1.911  10.250  17.221  0.00  0.00    +0.000 A 
ATOM      4  C   UNL     1      -2.296  11.295  18.045  0.00  0.00    +0.000 A 
ATOM      5  C   UNL     1      -1.458  11.775  19.065  0.00  0.00    +0.000 A 
ATOM      6  C   UNL     1      -0.200  11.133  19.278  0.00  0.00    +0.000 A 
ENDROOT
BRANCH   3   7
ATOM      7  O   UNL     1      -2.791   9.834  16.259  0.00  0.00    +0.000 OA
ATOM      8  H   UNL     1      -2.718   8.867  16.178  0.00  0.00    +0.000 HD
ENDBRANCH   3   7
BRANCH   4   9
ATOM      9  O   UNL     1      -3.537  11.844  17.838  0.00  0.00    +0.000 OA
ATOM     10  H   UNL     1      -4.039  11.619  18.646  0.00  0.00    +0.000 HD
ENDBRANCH   4   9
BRANCH   1  11
ATOM     11  C   UNL     1       1.559   9.403  18.572  0.00  0.00    +0.000 C 
BRANCH  11  12
ATOM     12  C   UNL     1       1.742   8.060  17.859  0.00  0.00    +0.000 C 
BRANCH  12  13
ATOM     13  C   UNL     1       3.178   7.861  17.375  0.00  0.00    +0.000 C 
BRANCH  13  16
ATOM     14  C   UNL     1       3.236   4.460  19.118  0.00  0.00    +0.000 A 
ATOM     15  C   UNL     1       2.840   5.704  18.590  0.00  0.00    +0.000 A 
ATOM     16  C   UNL     1       3.744   6.599  17.982  0.00  0.00    +0.000 A 
ATOM     17  C   UNL     1       5.084   6.224  17.890  0.00  0.00    +0.000 A 
ATOM     18  C   UNL     1       5.513   5.001  18.393  0.00  0.00    +0.000 A 
ATOM     19  C   UNL     1       4.602   4.136  19.003  0.00  0.00    +0.000 A 
BRANCH  14  20
ATOM     20  C   UNL     1       2.220   3.520  19.807  0.00  0.00    +0.000 C 
ATOM     21  C   UNL     1       0.960   4.245  20.349  0.00  0.00    +0.000 C 
ATOM     22  C   UNL     1       2.918   2.889  21.036  0.00  0.00    +0.000 C 
BRANCH  20  24
ATOM     23  C   UNL     1       2.273   1.925  17.794  0.00  0.00    +0.000 C 
ATOM     24  C   UNL     1       1.680   2.420  18.889  0.00  0.00    +0.000 C 
ENDBRANCH  20  24
ENDBRANCH  14  20
BRANCH  17  25
ATOM     25  O   UNL     1       6.046   6.994  17.303  0.00  0.00    +0.000 OA
ATOM     26  H   UNL     1       6.754   6.429  16.961  0.00  0.00    +0.000 HD
ENDBRANCH  17  25
BRANCH  19  27
ATOM     27  O   UNL     1       5.062   2.944  19.496  0.00  0.00    +0.000 OA
ATOM     28  H   UNL     1       4.648   2.218  19.002  0.00  0.00    +0.000 HD
ENDBRANCH  19  27
ENDBRANCH  13  16
ENDBRANCH  12  13
ENDBRANCH  11  12
ENDBRANCH   1  11
BRANCH   5  29
ATOM     29  C   UNL     1      -1.938  12.954  19.893  0.00  0.00    +0.000 C 
BRANCH  29  30
ATOM     30  C   UNL     1      -2.818  12.577  21.057  0.00  0.00    +0.000 C 
ATOM     31  C   UNL     1      -2.757  13.029  22.327  0.00  0.00    +0.000 C 
ATOM     32  C   UNL     1      -1.721  13.979  22.859  0.00  0.00    +0.000 C 
ATOM     33  C   UNL     1      -3.795  12.621  23.342  0.00  0.00    +0.000 C 
ENDBRANCH  29  30
ENDBRANCH   5  29
BRANCH   6  34
ATOM     34  C   UNL     1       0.665  11.502  20.482  0.00  0.00    +0.000 C 
BRANCH  34  35
ATOM     35  C   UNL     1       0.183  11.050  21.842  0.00  0.00    +0.000 C 
ATOM     36  C   UNL     1       0.409   9.822  22.362  0.00  0.00    +0.000 C 
ATOM     37  C   UNL     1       1.197   8.739  21.666  0.00  0.00    +0.000 C 
ATOM     38  C   UNL     1      -0.126   9.401  23.707  0.00  0.00    +0.000 C 
ENDBRANCH  34  35
ENDBRANCH   6  34
TORSDOF 14
ENDMDL
MODEL 9
REMARK VINA RESULT:      -7.7      2.643      4.127
REMARK  Name = 
REMARK  20 active torsions:
REMARK  status: ('A' for Active; 'I' for Inactive)
REMARK    1  A    between atoms: C_2  and  C_3
REMARK    2  A    between atoms: C_3  and  C_4
REMARK    3  A    between atoms: C_3  and  C_5
REMARK    4  A    between atoms: C_3  and  C_6
REMARK    5  A    between atoms: C_8  and  C_9
REMARK    6  A    between atoms: C_9  and  C_10
REMARK    7  A    between atoms: C_10  and  C_11
REMARK    8  A    between atoms: C_11  and  C_12
REMARK    9  A    between atoms: C_14  and  O_15
REMARK   10  A    between atoms: C_16  and  O_17
REMARK   11  A    between atoms: C_18  and  C_19
REMARK   12  A    between atoms: C_19  and  C_20
REMARK   13  A    between atoms: C_21  and  C_22
REMARK   14  A    between atoms: C_21  and  C_23
REMARK   15  A    between atoms: C_24  and  C_25
REMARK   16  A    between atoms: C_25  and  C_26
REMARK   17  A    between atoms: C_27  and  C_28
REMARK   18  A    between atoms: C_27  and  C_29
REMARK   19  A    between atoms: C_30  and  O_31
REMARK   20  A    between atoms: C_33  and  O_34
REMARK                            x       y       z     vdW  Elec       q    Type
REMARK                         _______ _______ _______ _____ _____    ______ ____
ROOT
ATOM      1  C   UNL     1       0.700  10.620  18.256  0.00  0.00    +0.000 A 
ATOM      2  C   UNL     1      -0.544  10.029  17.957  0.00  0.00    +0.000 A 
ATOM      3  C   UNL     1      -1.727  10.675  18.268  0.00  0.00    +0.000 A 
ATOM      4  C   UNL     1      -1.705  11.932  18.850  0.00  0.00    +0.000 A 
ATOM      5  C   UNL     1      -0.497  12.582  19.153  0.00  0.00    +0.000 A 
ATOM      6  C   UNL     1       0.732  11.901  18.891  0.00  0.00    +0.000 A 
ENDROOT
BRANCH   3   7
ATOM      7  O   UNL     1      -2.947  10.106  18.018  0.00  0.00    +0.000 OA
ATOM      8  H   UNL     1      -2.977   9.856  17.077  0.00  0.00    +0.000 HD
ENDBRANCH   3   7
BRANCH   4   9
ATOM      9  O   UNL     1      -2.911  12.523  19.135  0.00  0.00    +0.000 OA
ATOM     10  H   UNL     1      -3.572  11.940  18.713  0.00  0.00    +0.000 HD
ENDBRANCH   4   9
BRANCH   1  11
ATOM     11  C   UNL     1       1.993   9.887  17.924  0.00  0.00    +0.000 C 
BRANCH  11  12
ATOM     12  C   UNL     1       1.917   8.358  17.891  0.00  0.00    +0.000 C 
BRANCH  12  13
ATOM     13  C   UNL     1       2.040   7.748  19.287  0.00  0.00    +0.000 C 
BRANCH  13  16
ATOM     14  C   UNL     1       4.915   5.395  18.389  0.00  0.00    +0.000 A 
ATOM     15  C   UNL     1       4.041   6.497  18.467  0.00  0.00    +0.000 A 
ATOM     16  C   UNL     1       2.844   6.472  19.211  0.00  0.00    +0.000 A 
ATOM     17  C   UNL     1       2.523   5.308  19.908  0.00  0.00    +0.000 A 
ATOM     18  C   UNL     1       3.364   4.201  19.861  0.00  0.00    +0.000 A 
ATOM     19  C   UNL     1       4.538   4.245  19.107  0.00  0.00    +0.000 A 
BRANCH  14  20
ATOM     20  C   UNL     1       6.203   5.452  17.536  0.00  0.00    +0.000 C 
ATOM     21  C   UNL     1       7.504   5.215  18.347  0.00  0.00    +0.000 C 
ATOM     22  C   UNL     1       6.316   6.879  16.945  0.00  0.00    +0.000 C 
BRANCH  20  24
ATOM     23  C   UNL     1       5.464   4.385  15.319  0.00  0.00    +0.000 C 
ATOM     24  C   UNL     1       6.242   4.415  16.411  0.00  0.00    +0.000 C 
ENDBRANCH  20  24
ENDBRANCH  14  20
BRANCH  17  25
ATOM     25  O   UNL     1       1.406   5.172  20.680  0.00  0.00    +0.000 OA
ATOM     26  H   UNL     1       1.126   4.245  20.689  0.00  0.00    +0.000 HD
ENDBRANCH  17  25
BRANCH  19  27
ATOM     27  O   UNL     1       5.337   3.133  19.077  0.00  0.00    +0.000 OA
ATOM     28  H   UNL     1       5.254   2.708  18.209  0.00  0.00    +0.000 HD
ENDBRANCH  19  27
ENDBRANCH  13  16
ENDBRANCH  12  13
ENDBRANCH  11  12
ENDBRANCH   1  11
BRANCH   5  29
ATOM     29  C   UNL     1      -0.562  13.978  19.747  0.00  0.00    +0.000 C 
BRANCH  29  30
ATOM     30  C   UNL     1      -0.347  15.086  18.749  0.00  0.00    +0.000 C 
ATOM     31  C   UNL     1      -0.705  16.383  18.857  0.00  0.00    +0.000 C 
ATOM     32  C   UNL     1      -1.471  16.978  20.004  0.00  0.00    +0.000 C 
ATOM     33  C   UNL     1      -0.309  17.383  17.799  0.00  0.00    +0.000 C 
ENDBRANCH  29  30
ENDBRANCH   5  29
BRANCH   6  34
ATOM     34  C   UNL     1       2.060  12.491  19.363  0.00  0.00    +0.000 C 
BRANCH  34  35
ATOM     35  C   UNL     1       2.824  13.343  18.375  0.00  0.00    +0.000 C 
ATOM     36  C   UNL     1       3.235  14.609  18.617  0.00  0.00    +0.000 C 
ATOM     37  C   UNL     1       3.010  15.338  19.919  0.00  0.00    +0.000 C 
ATOM     38  C   UNL     1       3.961  15.436  17.587  0.00  0.00    +0.000 C 
ENDBRANCH  34  35
ENDBRANCH   6  34
TORSDOF 14
ENDMDL
