MODEL 1
REMARK VINA RESULT:      -8.0      0.000      0.000
REMARK  Name = 
REMARK  4 active torsions:
REMARK  status: ('A' for Active; 'I' for Inactive)
REMARK    1  A    between atoms: N_3  and  C_4
REMARK    2  A    between atoms: C_4  and  C_5
REMARK    3  A    between atoms: C_5  and  O_6
REMARK    4  A    between atoms: N_16  and  C_17
REMARK                            x       y       z     vdW  Elec       q    Type
REMARK                         _______ _______ _______ _____ _____    ______ ____
ROOT
ATOM      1  C   UNL     1       7.100   6.887  17.426  0.00  0.00    +0.000 C 
ENDROOT
BRANCH   1   2
ATOM      2  C   UNL     1       6.909   5.368  17.696  0.00  0.00    +0.000 C 
ATOM      3  C   UNL     1       7.320   4.471  16.523  0.00  0.00    +0.000 C 
ATOM      4  C   UNL     1       6.274   4.531  15.424  0.00  0.00    +0.000 C 
ATOM      5  O   UNL     1       4.991   4.090  15.862  0.00  0.00    +0.000 OA
ATOM      6  C   UNL     1       4.605   4.505  17.109  0.00  0.00    +0.000 A 
ATOM      7  C   UNL     1       3.262   4.270  17.423  0.00  0.00    +0.000 A 
ATOM      8  C   UNL     1       2.758   4.623  18.672  0.00  0.00    +0.000 A 
ATOM      9  C   UNL     1       3.601   5.196  19.620  0.00  0.00    +0.000 A 
ATOM     10  C   UNL     1       4.944   5.424  19.313  0.00  0.00    +0.000 A 
ATOM     11  C   UNL     1       5.464   5.087  18.049  0.00  0.00    +0.000 A 
BRANCH   2  12
ATOM     12  O   UNL     1       7.743   5.026  18.821  0.00  0.00    +0.000 OA
ATOM     13  H   UNL     1       7.237   4.388  19.352  0.00  0.00    +0.000 HD
ENDBRANCH   2  12
ENDBRANCH   1   2
BRANCH   1  16
ATOM     14  O   UNL     1       7.686   9.599  17.538  0.00  0.00    +0.000 OA
ATOM     15  C   UNL     1       8.296   8.862  18.310  0.00  0.00    +0.000 C 
ATOM     16  N   UNL     1       8.104   7.505  18.290  0.00  0.00    +0.000 N 
ATOM     17  N   UNL     1       9.227   9.250  19.242  0.00  0.00    +0.000 N 
ATOM     18  H   UNL     1       8.666   6.901  18.869  0.00  0.00    +0.000 HD
ATOM     19  H   UNL     1       9.770   8.517  19.672  0.00  0.00    +0.000 HD
BRANCH  17  20
ATOM     20  C   UNL     1       9.640  10.576  19.512  0.00  0.00    +0.000 A 
ATOM     21  C   UNL     1      10.342  11.365  18.595  0.00  0.00    +0.000 A 
ATOM     22  C   UNL     1      10.812  12.627  18.956  0.00  0.00    +0.000 A 
ATOM     23  C   UNL     1      10.567  13.126  20.236  0.00  0.00    +0.000 A 
ATOM     24  C   UNL     1       9.815  12.374  21.134  0.00  0.00    +0.000 A 
ATOM     25  C   UNL     1       9.342  11.108  20.770  0.00  0.00    +0.000 A 
ENDBRANCH  17  20
ENDBRANCH   1  16
TORSDOF 4
ENDMDL
MODEL 2
REMARK VINA RESULT:      -7.9      0.162      1.038
REMARK  Name = 
REMARK  4 active torsions:
REMARK  status: ('A' for Active; 'I' for Inactive)
REMARK    1  A    between atoms: N_3  and  C_4
REMARK    2  A    between atoms: C_4  and  C_5
REMARK    3  A    between atoms: C_5  and  O_6
REMARK    4  A    between atoms: N_16  and  C_17
REMARK                            x       y       z     vdW  Elec       q    Type
REMARK                         _______ _______ _______ _____ _____    ______ ____
ROOT
ATOM      1  C   UNL     1       7.113   6.857  17.446  0.00  0.00    +0.000 C 
ENDROOT
BRANCH   1   2
ATOM      2  C   UNL     1       6.923   5.342  17.742  0.00  0.00    +0.000 C 
ATOM      3  C   UNL     1       7.371   4.424  16.600  0.00  0.00    +0.000 C 
ATOM      4  C   UNL     1       6.355   4.456  15.472  0.00  0.00    +0.000 C 
ATOM      5  O   UNL     1       5.063   4.015  15.884  0.00  0.00    +0.000 OA
ATOM      6  C   UNL     1       4.641   4.454  17.111  0.00  0.00    +0.000 A 
ATOM      7  C   UNL     1       3.291   4.217  17.393  0.00  0.00    +0.000 A 
ATOM      8  C   UNL     1       2.752   4.592  18.620  0.00  0.00    +0.000 A 
ATOM      9  C   UNL     1       3.564   5.189  19.579  0.00  0.00    +0.000 A 
ATOM     10  C   UNL     1       4.914   5.420  19.304  0.00  0.00    +0.000 A 
ATOM     11  C   UNL     1       5.471   5.060  18.062  0.00  0.00    +0.000 A 
BRANCH   2  12
ATOM     12  O   UNL     1       7.728   5.029  18.897  0.00  0.00    +0.000 OA
ATOM     13  H   UNL     1       7.559   5.732  19.546  0.00  0.00    +0.000 HD
ENDBRANCH   2  12
ENDBRANCH   1   2
BRANCH   1  16
ATOM     14  O   UNL     1       7.632   9.581  17.582  0.00  0.00    +0.000 OA
ATOM     15  C   UNL     1       8.279   8.850  18.330  0.00  0.00    +0.000 C 
ATOM     16  N   UNL     1       8.121   7.489  18.295  0.00  0.00    +0.000 N 
ATOM     17  N   UNL     1       9.222   9.250  19.245  0.00  0.00    +0.000 N 
ATOM     18  H   UNL     1       8.711   6.892  18.853  0.00  0.00    +0.000 HD
ATOM     19  H   UNL     1       9.793   8.524  19.652  0.00  0.00    +0.000 HD
BRANCH  17  20
ATOM     20  C   UNL     1       9.607  10.581  19.524  0.00  0.00    +0.000 A 
ATOM     21  C   UNL     1       9.350  11.216  20.744  0.00  0.00    +0.000 A 
ATOM     22  C   UNL     1       9.661  12.564  20.923  0.00  0.00    +0.000 A 
ATOM     23  C   UNL     1      10.254  13.290  19.889  0.00  0.00    +0.000 A 
ATOM     24  C   UNL     1      10.570  12.650  18.694  0.00  0.00    +0.000 A 
ATOM     25  C   UNL     1      10.259  11.297  18.515  0.00  0.00    +0.000 A 
ENDBRANCH  17  20
ENDBRANCH   1  16
TORSDOF 4
ENDMDL
MODEL 3
REMARK VINA RESULT:      -7.5      5.342      6.480
REMARK  Name = 
REMARK  4 active torsions:
REMARK  status: ('A' for Active; 'I' for Inactive)
REMARK    1  A    between atoms: N_3  and  C_4
REMARK    2  A    between atoms: C_4  and  C_5
REMARK    3  A    between atoms: C_5  and  O_6
REMARK    4  A    between atoms: N_16  and  C_17
REMARK                            x       y       z     vdW  Elec       q    Type
REMARK                         _______ _______ _______ _____ _____    ______ ____
ROOT
ATOM      1  C   UNL     1       3.218   6.598  18.036  0.00  0.00    +0.000 C 
ENDROOT
BRANCH   1   2
ATOM      2  C   UNL     1       3.803   5.416  18.861  0.00  0.00    +0.000 C 
ATOM      3  C   UNL     1       5.153   4.905  18.344  0.00  0.00    +0.000 C 
ATOM      4  C   UNL     1       4.955   4.086  17.081  0.00  0.00    +0.000 C 
ATOM      5  O   UNL     1       4.126   2.945  17.290  0.00  0.00    +0.000 OA
ATOM      6  C   UNL     1       3.025   3.139  18.082  0.00  0.00    +0.000 A 
ATOM      7  C   UNL     1       2.101   2.089  18.080  0.00  0.00    +0.000 A 
ATOM      8  C   UNL     1       0.955   2.157  18.867  0.00  0.00    +0.000 A 
ATOM      9  C   UNL     1       0.737   3.269  19.675  0.00  0.00    +0.000 A 
ATOM     10  C   UNL     1       1.661   4.316  19.686  0.00  0.00    +0.000 A 
ATOM     11  C   UNL     1       2.817   4.268  18.884  0.00  0.00    +0.000 A 
BRANCH   2  12
ATOM     12  O   UNL     1       4.002   5.892  20.207  0.00  0.00    +0.000 OA
ATOM     13  H   UNL     1       4.334   5.136  20.718  0.00  0.00    +0.000 HD
ENDBRANCH   2  12
ENDBRANCH   1   2
BRANCH   1  16
ATOM     14  O   UNL     1       2.212   9.033  17.161  0.00  0.00    +0.000 OA
ATOM     15  C   UNL     1       1.950   8.702  18.315  0.00  0.00    +0.000 C 
ATOM     16  N   UNL     1       2.446   7.539  18.845  0.00  0.00    +0.000 N 
ATOM     17  N   UNL     1       1.189   9.409  19.213  0.00  0.00    +0.000 N 
ATOM     18  H   UNL     1       2.293   7.314  19.815  0.00  0.00    +0.000 HD
ATOM     19  H   UNL     1       1.215   9.099  20.172  0.00  0.00    +0.000 HD
BRANCH  17  20
ATOM     20  C   UNL     1       0.535  10.640  18.970  0.00  0.00    +0.000 A 
ATOM     21  C   UNL     1      -0.806  10.734  18.583  0.00  0.00    +0.000 A 
ATOM     22  C   UNL     1      -1.367  11.969  18.257  0.00  0.00    +0.000 A 
ATOM     23  C   UNL     1      -0.597  13.130  18.334  0.00  0.00    +0.000 A 
ATOM     24  C   UNL     1       0.719  13.053  18.779  0.00  0.00    +0.000 A 
ATOM     25  C   UNL     1       1.281  11.814  19.108  0.00  0.00    +0.000 A 
ENDBRANCH  17  20
ENDBRANCH   1  16
TORSDOF 4
ENDMDL
MODEL 4
REMARK VINA RESULT:      -7.4      5.345      6.488
REMARK  Name = 
REMARK  4 active torsions:
REMARK  status: ('A' for Active; 'I' for Inactive)
REMARK    1  A    between atoms: N_3  and  C_4
REMARK    2  A    between atoms: C_4  and  C_5
REMARK    3  A    between atoms: C_5  and  O_6
REMARK    4  A    between atoms: N_16  and  C_17
REMARK                            x       y       z     vdW  Elec       q    Type
REMARK                         _______ _______ _______ _____ _____    ______ ____
ROOT
ATOM      1  C   UNL     1       3.198   6.589  18.017  0.00  0.00    +0.000 C 
ENDROOT
BRANCH   1   2
ATOM      2  C   UNL     1       3.795   5.416  18.846  0.00  0.00    +0.000 C 
ATOM      3  C   UNL     1       5.151   4.919  18.334  0.00  0.00    +0.000 C 
ATOM      4  C   UNL     1       4.966   4.095  17.072  0.00  0.00    +0.000 C 
ATOM      5  O   UNL     1       4.150   2.945  17.282  0.00  0.00    +0.000 OA
ATOM      6  C   UNL     1       3.044   3.128  18.071  0.00  0.00    +0.000 A 
ATOM      7  C   UNL     1       2.132   2.068  18.069  0.00  0.00    +0.000 A 
ATOM      8  C   UNL     1       0.984   2.125  18.854  0.00  0.00    +0.000 A 
ATOM      9  C   UNL     1       0.751   3.236  19.659  0.00  0.00    +0.000 A 
ATOM     10  C   UNL     1       1.664   4.293  19.669  0.00  0.00    +0.000 A 
ATOM     11  C   UNL     1       2.822   4.257  18.870  0.00  0.00    +0.000 A 
BRANCH   2  12
ATOM     12  O   UNL     1       3.985   5.898  20.192  0.00  0.00    +0.000 OA
ATOM     13  H   UNL     1       4.190   6.844  20.117  0.00  0.00    +0.000 HD
ENDBRANCH   2  12
ENDBRANCH   1   2
BRANCH   1  16
ATOM     14  O   UNL     1       2.246   9.049  17.150  0.00  0.00    +0.000 OA
ATOM     15  C   UNL     1       1.972   8.716  18.302  0.00  0.00    +0.000 C 
ATOM     16  N   UNL     1       2.441   7.541  18.828  0.00  0.00    +0.000 N 
ATOM     17  N   UNL     1       1.221   9.435  19.200  0.00  0.00    +0.000 N 
ATOM     18  H   UNL     1       2.280   7.314  19.797  0.00  0.00    +0.000 HD
ATOM     19  H   UNL     1       1.236   9.119  20.158  0.00  0.00    +0.000 HD
BRANCH  17  20
ATOM     20  C   UNL     1       0.593  10.679  18.961  0.00  0.00    +0.000 A 
ATOM     21  C   UNL     1       1.228  11.911  19.156  0.00  0.00    +0.000 A 
ATOM     22  C   UNL     1       0.524  13.106  19.002  0.00  0.00    +0.000 A 
ATOM     23  C   UNL     1      -0.821  13.083  18.632  0.00  0.00    +0.000 A 
ATOM     24  C   UNL     1      -1.443  11.865  18.374  0.00  0.00    +0.000 A 
ATOM     25  C   UNL     1      -0.736  10.667  18.527  0.00  0.00    +0.000 A 
ENDBRANCH  17  20
ENDBRANCH   1  16
TORSDOF 4
ENDMDL
MODEL 5
REMARK VINA RESULT:      -7.3      2.260      8.215
REMARK  Name = 
REMARK  4 active torsions:
REMARK  status: ('A' for Active; 'I' for Inactive)
REMARK    1  A    between atoms: N_3  and  C_4
REMARK    2  A    between atoms: C_4  and  C_5
REMARK    3  A    between atoms: C_5  and  O_6
REMARK    4  A    between atoms: N_16  and  C_17
REMARK                            x       y       z     vdW  Elec       q    Type
REMARK                         _______ _______ _______ _____ _____    ______ ____
ROOT
ATOM      1  C   UNL     1       9.262   9.956  19.068  0.00  0.00    +0.000 C 
ENDROOT
BRANCH   1   2
ATOM      2  C   UNL     1      10.049  11.220  18.622  0.00  0.00    +0.000 C 
ATOM      3  C   UNL     1      11.228  11.574  19.535  0.00  0.00    +0.000 C 
ATOM      4  C   UNL     1      10.724  12.194  20.826  0.00  0.00    +0.000 C 
ATOM      5  O   UNL     1       9.987  13.394  20.608  0.00  0.00    +0.000 OA
ATOM      6  C   UNL     1       9.121  13.384  19.546  0.00  0.00    +0.000 A 
ATOM      7  C   UNL     1       8.237  14.467  19.491  0.00  0.00    +0.000 A 
ATOM      8  C   UNL     1       7.328  14.581  18.443  0.00  0.00    +0.000 A 
ATOM      9  C   UNL     1       7.311  13.623  17.435  0.00  0.00    +0.000 A 
ATOM     10  C   UNL     1       8.198  12.545  17.482  0.00  0.00    +0.000 A 
ATOM     11  C   UNL     1       9.113  12.407  18.543  0.00  0.00    +0.000 A 
BRANCH   2  12
ATOM     12  O   UNL     1      10.579  10.952  17.308  0.00  0.00    +0.000 OA
ATOM     13  H   UNL     1      10.084  11.519  16.693  0.00  0.00    +0.000 HD
ENDBRANCH   2  12
ENDBRANCH   1   2
BRANCH   1  16
ATOM     14  O   UNL     1       8.399   7.322  18.894  0.00  0.00    +0.000 OA
ATOM     15  C   UNL     1       7.991   8.103  18.037  0.00  0.00    +0.000 C 
ATOM     16  N   UNL     1       8.404   9.410  18.018  0.00  0.00    +0.000 N 
ATOM     17  N   UNL     1       7.130   7.806  17.008  0.00  0.00    +0.000 N 
ATOM     18  H   UNL     1       8.128  10.022  17.267  0.00  0.00    +0.000 HD
ATOM     19  H   UNL     1       7.032   8.503  16.285  0.00  0.00    +0.000 HD
BRANCH  17  20
ATOM     20  C   UNL     1       6.525   6.553  16.758  0.00  0.00    +0.000 A 
ATOM     21  C   UNL     1       7.169   5.508  16.086  0.00  0.00    +0.000 A 
ATOM     22  C   UNL     1       6.485   4.332  15.778  0.00  0.00    +0.000 A 
ATOM     23  C   UNL     1       5.151   4.179  16.156  0.00  0.00    +0.000 A 
ATOM     24  C   UNL     1       4.521   5.187  16.880  0.00  0.00    +0.000 A 
ATOM     25  C   UNL     1       5.209   6.366  17.191  0.00  0.00    +0.000 A 
ENDBRANCH  17  20
ENDBRANCH   1  16
TORSDOF 4
ENDMDL
MODEL 6
REMARK VINA RESULT:      -7.3      5.399      6.368
REMARK  Name = 
REMARK  4 active torsions:
REMARK  status: ('A' for Active; 'I' for Inactive)
REMARK    1  A    between atoms: N_3  and  C_4
REMARK    2  A    between atoms: C_4  and  C_5
REMARK    3  A    between atoms: C_5  and  O_6
REMARK    4  A    between atoms: N_16  and  C_17
REMARK                            x       y       z     vdW  Elec       q    Type
REMARK                         _______ _______ _______ _____ _____    ______ ____
ROOT
ATOM      1  C   UNL     1       4.701   5.176  18.861  0.00  0.00    +0.000 C 
ENDROOT
BRANCH   1   2
ATOM      2  C   UNL     1       4.349   3.666  18.732  0.00  0.00    +0.000 C 
ATOM      3  C   UNL     1       4.089   3.209  17.293  0.00  0.00    +0.000 C 
ATOM      4  C   UNL     1       2.727   3.692  16.826  0.00  0.00    +0.000 C 
ATOM      5  O   UNL     1       1.662   3.187  17.626  0.00  0.00    +0.000 OA
ATOM      6  C   UNL     1       1.882   3.166  18.978  0.00  0.00    +0.000 A 
ATOM      7  C   UNL     1       0.753   2.901  19.760  0.00  0.00    +0.000 A 
ATOM      8  C   UNL     1       0.856   2.827  21.146  0.00  0.00    +0.000 A 
ATOM      9  C   UNL     1       2.095   2.999  21.756  0.00  0.00    +0.000 A 
ATOM     10  C   UNL     1       3.226   3.256  20.979  0.00  0.00    +0.000 A 
ATOM     11  C   UNL     1       3.135   3.349  19.577  0.00  0.00    +0.000 A 
BRANCH   2  12
ATOM     12  O   UNL     1       5.478   2.920  19.231  0.00  0.00    +0.000 OA
ATOM     13  H   UNL     1       5.168   2.458  20.028  0.00  0.00    +0.000 HD
ENDBRANCH   2  12
ENDBRANCH   1   2
BRANCH   1  16
ATOM     14  O   UNL     1       3.036   7.306  18.230  0.00  0.00    +0.000 OA
ATOM     15  C   UNL     1       3.016   6.905  19.392  0.00  0.00    +0.000 C 
ATOM     16  N   UNL     1       3.841   5.890  19.802  0.00  0.00    +0.000 N 
ATOM     17  N   UNL     1       2.234   7.395  20.409  0.00  0.00    +0.000 N 
ATOM     18  H   UNL     1       3.877   5.621  20.773  0.00  0.00    +0.000 HD
ATOM     19  H   UNL     1       2.461   7.086  21.343  0.00  0.00    +0.000 HD
BRANCH  17  20
ATOM     20  C   UNL     1       1.279   8.432  20.306  0.00  0.00    +0.000 A 
ATOM     21  C   UNL     1       1.171   9.270  19.191  0.00  0.00    +0.000 A 
ATOM     22  C   UNL     1       0.279  10.342  19.190  0.00  0.00    +0.000 A 
ATOM     23  C   UNL     1      -0.533  10.577  20.300  0.00  0.00    +0.000 A 
ATOM     24  C   UNL     1      -0.477   9.712  21.389  0.00  0.00    +0.000 A 
ATOM     25  C   UNL     1       0.417   8.636  21.388  0.00  0.00    +0.000 A 
ENDBRANCH  17  20
ENDBRANCH   1  16
TORSDOF 4
ENDMDL
MODEL 7
REMARK VINA RESULT:      -7.3      1.777      2.649
REMARK  Name = 
REMARK  4 active torsions:
REMARK  status: ('A' for Active; 'I' for Inactive)
REMARK    1  A    between atoms: N_3  and  C_4
REMARK    2  A    between atoms: C_4  and  C_5
REMARK    3  A    between atoms: C_5  and  O_6
REMARK    4  A    between atoms: N_16  and  C_17
REMARK                            x       y       z     vdW  Elec       q    Type
REMARK                         _______ _______ _______ _____ _____    ______ ____
ROOT
ATOM      1  C   UNL     1       6.531   6.453  17.186  0.00  0.00    +0.000 C 
ENDROOT
BRANCH   1   2
ATOM      2  C   UNL     1       5.217   6.212  16.391  0.00  0.00    +0.000 C 
ATOM      3  C   UNL     1       4.302   7.440  16.314  0.00  0.00    +0.000 C 
ATOM      4  C   UNL     1       3.603   7.658  17.644  0.00  0.00    +0.000 C 
ATOM      5  O   UNL     1       2.789   6.551  18.024  0.00  0.00    +0.000 OA
ATOM      6  C   UNL     1       3.320   5.308  17.799  0.00  0.00    +0.000 A 
ATOM      7  C   UNL     1       2.624   4.250  18.392  0.00  0.00    +0.000 A 
ATOM      8  C   UNL     1       3.051   2.937  18.212  0.00  0.00    +0.000 A 
ATOM      9  C   UNL     1       4.166   2.675  17.422  0.00  0.00    +0.000 A 
ATOM     10  C   UNL     1       4.858   3.729  16.821  0.00  0.00    +0.000 A 
ATOM     11  C   UNL     1       4.448   5.063  17.006  0.00  0.00    +0.000 A 
BRANCH   2  12
ATOM     12  O   UNL     1       5.591   5.860  15.044  0.00  0.00    +0.000 OA
ATOM     13  H   UNL     1       6.562   5.841  15.026  0.00  0.00    +0.000 HD
ENDBRANCH   2  12
ENDBRANCH   1   2
BRANCH   1  16
ATOM     14  O   UNL     1       8.507   7.525  18.815  0.00  0.00    +0.000 OA
ATOM     15  C   UNL     1       7.955   8.291  18.027  0.00  0.00    +0.000 C 
ATOM     16  N   UNL     1       6.936   7.857  17.220  0.00  0.00    +0.000 N 
ATOM     17  N   UNL     1       8.233   9.625  17.857  0.00  0.00    +0.000 N 
ATOM     18  H   UNL     1       6.435   8.508  16.635  0.00  0.00    +0.000 HD
ATOM     19  H   UNL     1       7.576  10.158  17.307  0.00  0.00    +0.000 HD
BRANCH  17  20
ATOM     20  C   UNL     1       9.230  10.366  18.534  0.00  0.00    +0.000 A 
ATOM     21  C   UNL     1       9.248  10.541  19.922  0.00  0.00    +0.000 A 
ATOM     22  C   UNL     1      10.198  11.368  20.522  0.00  0.00    +0.000 A 
ATOM     23  C   UNL     1      11.156  12.015  19.740  0.00  0.00    +0.000 A 
ATOM     24  C   UNL     1      11.184  11.797  18.366  0.00  0.00    +0.000 A 
ATOM     25  C   UNL     1      10.231  10.966  17.765  0.00  0.00    +0.000 A 
ENDBRANCH  17  20
ENDBRANCH   1  16
TORSDOF 4
ENDMDL
MODEL 8
REMARK VINA RESULT:      -7.2      1.804      2.471
REMARK  Name = 
REMARK  4 active torsions:
REMARK  status: ('A' for Active; 'I' for Inactive)
REMARK    1  A    between atoms: N_3  and  C_4
REMARK    2  A    between atoms: C_4  and  C_5
REMARK    3  A    between atoms: C_5  and  O_6
REMARK    4  A    between atoms: N_16  and  C_17
REMARK                            x       y       z     vdW  Elec       q    Type
REMARK                         _______ _______ _______ _____ _____    ______ ____
ROOT
ATOM      1  C   UNL     1       6.469   6.579  17.290  0.00  0.00    +0.000 C 
ENDROOT
BRANCH   1   2
ATOM      2  C   UNL     1       5.170   6.314  16.478  0.00  0.00    +0.000 C 
ATOM      3  C   UNL     1       4.220   7.515  16.414  0.00  0.00    +0.000 C 
ATOM      4  C   UNL     1       3.502   7.689  17.741  0.00  0.00    +0.000 C 
ATOM      5  O   UNL     1       2.718   6.552  18.093  0.00  0.00    +0.000 OA
ATOM      6  C   UNL     1       3.288   5.329  17.852  0.00  0.00    +0.000 A 
ATOM      7  C   UNL     1       2.618   4.241  18.420  0.00  0.00    +0.000 A 
ATOM      8  C   UNL     1       3.085   2.944  18.221  0.00  0.00    +0.000 A 
ATOM      9  C   UNL     1       4.215   2.730  17.437  0.00  0.00    +0.000 A 
ATOM     10  C   UNL     1       4.881   3.814  16.861  0.00  0.00    +0.000 A 
ATOM     11  C   UNL     1       4.430   5.131  17.066  0.00  0.00    +0.000 A 
BRANCH   2  12
ATOM     12  O   UNL     1       5.566   5.997  15.128  0.00  0.00    +0.000 OA
ATOM     13  H   UNL     1       6.106   5.191  15.185  0.00  0.00    +0.000 HD
ENDBRANCH   2  12
ENDBRANCH   1   2
BRANCH   1  16
ATOM     14  O   UNL     1       8.531   7.670  18.796  0.00  0.00    +0.000 OA
ATOM     15  C   UNL     1       7.943   8.423  18.023  0.00  0.00    +0.000 C 
ATOM     16  N   UNL     1       6.882   7.981  17.277  0.00  0.00    +0.000 N 
ATOM     17  N   UNL     1       8.218   9.753  17.814  0.00  0.00    +0.000 N 
ATOM     18  H   UNL     1       6.355   8.623  16.706  0.00  0.00    +0.000 HD
ATOM     19  H   UNL     1       7.537  10.279  17.288  0.00  0.00    +0.000 HD
BRANCH  17  20
ATOM     20  C   UNL     1       9.251  10.500  18.426  0.00  0.00    +0.000 A 
ATOM     21  C   UNL     1      10.333  11.038  17.718  0.00  0.00    +0.000 A 
ATOM     22  C   UNL     1      11.375  11.677  18.391  0.00  0.00    +0.000 A 
ATOM     23  C   UNL     1      11.337  11.804  19.780  0.00  0.00    +0.000 A 
ATOM     24  C   UNL     1      10.236  11.329  20.484  0.00  0.00    +0.000 A 
ATOM     25  C   UNL     1       9.190  10.689  19.809  0.00  0.00    +0.000 A 
ENDBRANCH  17  20
ENDBRANCH   1  16
TORSDOF 4
ENDMDL
MODEL 9
REMARK VINA RESULT:      -7.2      4.697      6.787
REMARK  Name = 
REMARK  4 active torsions:
REMARK  status: ('A' for Active; 'I' for Inactive)
REMARK    1  A    between atoms: N_3  and  C_4
REMARK    2  A    between atoms: C_4  and  C_5
REMARK    3  A    between atoms: C_5  and  O_6
REMARK    4  A    between atoms: N_16  and  C_17
REMARK                            x       y       z     vdW  Elec       q    Type
REMARK                         _______ _______ _______ _____ _____    ______ ____
ROOT
ATOM      1  C   UNL     1       3.549   6.191  18.005  0.00  0.00    +0.000 C 
ENDROOT
BRANCH   1   2
ATOM      2  C   UNL     1       4.279   4.819  18.042  0.00  0.00    +0.000 C 
ATOM      3  C   UNL     1       5.096   4.583  19.317  0.00  0.00    +0.000 C 
ATOM      4  C   UNL     1       6.375   5.401  19.280  0.00  0.00    +0.000 C 
ATOM      5  O   UNL     1       7.211   5.063  18.176  0.00  0.00    +0.000 OA
ATOM      6  C   UNL     1       6.575   4.853  16.981  0.00  0.00    +0.000 A 
ATOM      7  C   UNL     1       7.418   4.763  15.869  0.00  0.00    +0.000 A 
ATOM      8  C   UNL     1       6.891   4.523  14.603  0.00  0.00    +0.000 A 
ATOM      9  C   UNL     1       5.519   4.353  14.447  0.00  0.00    +0.000 A 
ATOM     10  C   UNL     1       4.675   4.434  15.557  0.00  0.00    +0.000 A 
ATOM     11  C   UNL     1       5.191   4.691  16.841  0.00  0.00    +0.000 A 
BRANCH   2  12
ATOM     12  O   UNL     1       3.267   3.794  17.974  0.00  0.00    +0.000 OA
ATOM     13  H   UNL     1       2.760   3.965  17.164  0.00  0.00    +0.000 HD
ENDBRANCH   2  12
ENDBRANCH   1   2
BRANCH   1  16
ATOM     14  O   UNL     1       2.025   8.463  18.479  0.00  0.00    +0.000 OA
ATOM     15  C   UNL     1       2.163   7.676  19.414  0.00  0.00    +0.000 C 
ATOM     16  N   UNL     1       2.938   6.553  19.283  0.00  0.00    +0.000 N 
ATOM     17  N   UNL     1       1.619   7.799  20.669  0.00  0.00    +0.000 N 
ATOM     18  H   UNL     1       3.111   5.956  20.076  0.00  0.00    +0.000 HD
ATOM     19  H   UNL     1       1.968   7.171  21.377  0.00  0.00    +0.000 HD
BRANCH  17  20
ATOM     20  C   UNL     1       0.770   8.838  21.116  0.00  0.00    +0.000 A 
ATOM     21  C   UNL     1       0.219   9.801  20.264  0.00  0.00    +0.000 A 
ATOM     22  C   UNL     1      -0.527  10.862  20.777  0.00  0.00    +0.000 A 
ATOM     23  C   UNL     1      -0.747  10.962  22.151  0.00  0.00    +0.000 A 
ATOM     24  C   UNL     1      -0.256   9.975  23.000  0.00  0.00    +0.000 A 
ATOM     25  C   UNL     1       0.491   8.910  22.484  0.00  0.00    +0.000 A 
ENDBRANCH  17  20
ENDBRANCH   1  16
TORSDOF 4
ENDMDL
