MODEL 1
REMARK VINA RESULT:      -7.6      0.000      0.000
REMARK  Name = 
REMARK  2 active torsions:
REMARK  status: ('A' for Active; 'I' for Inactive)
REMARK    1  A    between atoms: C_1  and  C_2
REMARK    2  A    between atoms: C_10  and  C_11
REMARK                            x       y       z     vdW  Elec       q    Type
REMARK                         _______ _______ _______ _____ _____    ______ ____
ROOT
ATOM      1  C   UNL     1       0.871  12.891  20.151  0.00  0.00    +0.000 C 
ATOM      2  C   UNL     1       0.703  11.534  19.469  0.00  0.00    +0.000 C 
ATOM      3  C   UNL     1       0.686  10.407  20.513  0.00  0.00    +0.000 C 
ATOM      4  C   UNL     1       0.687   9.022  19.864  0.00  0.00    +0.000 C 
ATOM      5  N   UNL     1       1.819   8.955  18.953  0.00  0.00    +0.000 N 
ATOM      6  C   UNL     1       2.448   7.747  18.752  0.00  0.00    +0.000 A 
ATOM      7  N   UNL     1       3.507   7.702  17.944  0.00  0.00    +0.000 NA
ATOM      8  C   UNL     1       4.187   6.547  17.818  0.00  0.00    +0.000 A 
ATOM      9  C   UNL     1       3.817   5.373  18.463  0.00  0.00    +0.000 A 
ATOM     10  C   UNL     1       2.689   5.481  19.275  0.00  0.00    +0.000 A 
ATOM     11  N   UNL     1       2.037   6.670  19.421  0.00  0.00    +0.000 NA
ATOM     12  C   UNL     1       4.601   4.118  18.204  0.00  0.00    +0.000 C 
ATOM     13  C   UNL     1       4.440   3.631  16.761  0.00  0.00    +0.000 C 
ATOM     14  C   UNL     1       5.376   4.324  15.769  0.00  0.00    +0.000 C 
ATOM     15  C   UNL     1       5.164   5.830  15.613  0.00  0.00    +0.000 C 
ATOM     16  C   UNL     1       5.383   6.618  16.901  0.00  0.00    +0.000 C 
ATOM     17  C   UNL     1       1.807   9.908  17.852  0.00  0.00    +0.000 C 
ATOM     18  C   UNL     1       1.823  11.321  18.436  0.00  0.00    +0.000 C 
ENDROOT
BRANCH  10  19
ATOM     19  C   UNL     1       2.074   4.349  20.085  0.00  0.00    +0.000 C 
ATOM     20  F   UNL     1       2.879   3.764  21.014  0.00  0.00    +0.000 F 
ATOM     21  F   UNL     1       0.964   4.747  20.778  0.00  0.00    +0.000 F 
ATOM     22  F   UNL     1       1.657   3.312  19.296  0.00  0.00    +0.000 F 
ENDBRANCH  10  19
TORSDOF 1
ENDMDL
MODEL 2
REMARK VINA RESULT:      -7.5      2.239      3.800
REMARK  Name = 
REMARK  2 active torsions:
REMARK  status: ('A' for Active; 'I' for Inactive)
REMARK    1  A    between atoms: C_1  and  C_2
REMARK    2  A    between atoms: C_10  and  C_11
REMARK                            x       y       z     vdW  Elec       q    Type
REMARK                         _______ _______ _______ _____ _____    ______ ____
ROOT
ATOM      1  C   UNL     1      -0.451  11.617  18.787  0.00  0.00    +0.000 C 
ATOM      2  C   UNL     1       0.751  10.734  19.118  0.00  0.00    +0.000 C 
ATOM      3  C   UNL     1       1.357  10.148  17.833  0.00  0.00    +0.000 C 
ATOM      4  C   UNL     1       2.458   9.128  18.130  0.00  0.00    +0.000 C 
ATOM      5  N   UNL     1       1.907   8.122  19.024  0.00  0.00    +0.000 N 
ATOM      6  C   UNL     1       2.368   6.829  18.944  0.00  0.00    +0.000 A 
ATOM      7  N   UNL     1       1.832   5.906  19.743  0.00  0.00    +0.000 NA
ATOM      8  C   UNL     1       2.206   4.620  19.604  0.00  0.00    +0.000 A 
ATOM      9  C   UNL     1       3.163   4.202  18.686  0.00  0.00    +0.000 A 
ATOM     10  C   UNL     1       3.701   5.218  17.897  0.00  0.00    +0.000 A 
ATOM     11  N   UNL     1       3.280   6.508  18.026  0.00  0.00    +0.000 NA
ATOM     12  C   UNL     1       3.563   2.754  18.655  0.00  0.00    +0.000 C 
ATOM     13  C   UNL     1       4.293   2.335  19.933  0.00  0.00    +0.000 C 
ATOM     14  C   UNL     1       3.356   1.967  21.086  0.00  0.00    +0.000 C 
ATOM     15  C   UNL     1       2.468   3.103  21.595  0.00  0.00    +0.000 C 
ATOM     16  C   UNL     1       1.516   3.658  20.540  0.00  0.00    +0.000 C 
ATOM     17  C   UNL     1       1.455   8.605  20.323  0.00  0.00    +0.000 C 
ATOM     18  C   UNL     1       0.336   9.621  20.096  0.00  0.00    +0.000 C 
ENDROOT
BRANCH  10  19
ATOM     19  C   UNL     1       4.764   5.031  16.824  0.00  0.00    +0.000 C 
ATOM     20  F   UNL     1       4.495   4.105  15.862  0.00  0.00    +0.000 F 
ATOM     21  F   UNL     1       5.023   6.186  16.140  0.00  0.00    +0.000 F 
ATOM     22  F   UNL     1       5.966   4.640  17.345  0.00  0.00    +0.000 F 
ENDBRANCH  10  19
TORSDOF 1
ENDMDL
MODEL 3
REMARK VINA RESULT:      -7.3      1.144      1.294
REMARK  Name = 
REMARK  2 active torsions:
REMARK  status: ('A' for Active; 'I' for Inactive)
REMARK    1  A    between atoms: C_1  and  C_2
REMARK    2  A    between atoms: C_10  and  C_11
REMARK                            x       y       z     vdW  Elec       q    Type
REMARK                         _______ _______ _______ _____ _____    ______ ____
ROOT
ATOM      1  C   UNL     1       0.290  12.144  21.452  0.00  0.00    +0.000 C 
ATOM      2  C   UNL     1       0.163  10.786  20.763  0.00  0.00    +0.000 C 
ATOM      3  C   UNL     1       0.349   9.649  21.780  0.00  0.00    +0.000 C 
ATOM      4  C   UNL     1       0.395   8.277  21.106  0.00  0.00    +0.000 C 
ATOM      5  N   UNL     1       1.426   8.315  20.081  0.00  0.00    +0.000 N 
ATOM      6  C   UNL     1       2.127   7.167  19.791  0.00  0.00    +0.000 A 
ATOM      7  N   UNL     1       3.095   7.221  18.876  0.00  0.00    +0.000 NA
ATOM      8  C   UNL     1       3.850   6.128  18.655  0.00  0.00    +0.000 A 
ATOM      9  C   UNL     1       3.647   4.919  19.312  0.00  0.00    +0.000 A 
ATOM     10  C   UNL     1       2.607   4.923  20.239  0.00  0.00    +0.000 A 
ATOM     11  N   UNL     1       1.879   6.051  20.477  0.00  0.00    +0.000 NA
ATOM     12  C   UNL     1       4.501   3.737  18.946  0.00  0.00    +0.000 C 
ATOM     13  C   UNL     1       4.228   3.256  17.518  0.00  0.00    +0.000 C 
ATOM     14  C   UNL     1       4.993   4.037  16.448  0.00  0.00    +0.000 C 
ATOM     15  C   UNL     1       4.644   5.521  16.346  0.00  0.00    +0.000 C 
ATOM     16  C   UNL     1       4.932   6.309  17.620  0.00  0.00    +0.000 C 
ATOM     17  C   UNL     1       1.219   9.277  19.006  0.00  0.00    +0.000 C 
ATOM     18  C   UNL     1       1.181  10.679  19.614  0.00  0.00    +0.000 C 
ENDROOT
BRANCH  10  19
ATOM     19  C   UNL     1       2.176   3.734  21.085  0.00  0.00    +0.000 C 
ATOM     20  F   UNL     1       2.318   3.869  22.433  0.00  0.00    +0.000 F 
ATOM     21  F   UNL     1       0.861   3.411  20.899  0.00  0.00    +0.000 F 
ATOM     22  F   UNL     1       2.876   2.599  20.782  0.00  0.00    +0.000 F 
ENDBRANCH  10  19
TORSDOF 1
ENDMDL
MODEL 4
REMARK VINA RESULT:      -7.1      1.297      1.677
REMARK  Name = 
REMARK  2 active torsions:
REMARK  status: ('A' for Active; 'I' for Inactive)
REMARK    1  A    between atoms: C_1  and  C_2
REMARK    2  A    between atoms: C_10  and  C_11
REMARK                            x       y       z     vdW  Elec       q    Type
REMARK                         _______ _______ _______ _____ _____    ______ ____
ROOT
ATOM      1  C   UNL     1       0.095  11.085  21.805  0.00  0.00    +0.000 C 
ATOM      2  C   UNL     1       0.161   9.858  20.897  0.00  0.00    +0.000 C 
ATOM      3  C   UNL     1       0.641   8.631  21.689  0.00  0.00    +0.000 C 
ATOM      4  C   UNL     1       0.881   7.421  20.784  0.00  0.00    +0.000 C 
ATOM      5  N   UNL     1       1.795   7.826  19.728  0.00  0.00    +0.000 N 
ATOM      6  C   UNL     1       2.667   6.900  19.204  0.00  0.00    +0.000 A 
ATOM      7  N   UNL     1       3.526   7.288  18.262  0.00  0.00    +0.000 NA
ATOM      8  C   UNL     1       4.448   6.416  17.814  0.00  0.00    +0.000 A 
ATOM      9  C   UNL     1       4.530   5.101  18.260  0.00  0.00    +0.000 A 
ATOM     10  C   UNL     1       3.590   4.751  19.228  0.00  0.00    +0.000 A 
ATOM     11  N   UNL     1       2.689   5.661  19.698  0.00  0.00    +0.000 NA
ATOM     12  C   UNL     1       5.552   4.184  17.648  0.00  0.00    +0.000 C 
ATOM     13  C   UNL     1       5.250   3.895  16.175  0.00  0.00    +0.000 C 
ATOM     14  C   UNL     1       5.763   4.972  15.218  0.00  0.00    +0.000 C 
ATOM     15  C   UNL     1       5.138   6.356  15.395  0.00  0.00    +0.000 C 
ATOM     16  C   UNL     1       5.385   6.970  16.770  0.00  0.00    +0.000 C 
ATOM     17  C   UNL     1       1.322   8.888  18.850  0.00  0.00    +0.000 C 
ATOM     18  C   UNL     1       1.079  10.139  19.695  0.00  0.00    +0.000 C 
ENDROOT
BRANCH  10  19
ATOM     19  C   UNL     1       3.461   3.381  19.876  0.00  0.00    +0.000 C 
ATOM     20  F   UNL     1       2.644   3.301  20.963  0.00  0.00    +0.000 F 
ATOM     21  F   UNL     1       2.989   2.436  19.008  0.00  0.00    +0.000 F 
ATOM     22  F   UNL     1       4.662   2.899  20.319  0.00  0.00    +0.000 F 
ENDBRANCH  10  19
TORSDOF 1
ENDMDL
MODEL 5
REMARK VINA RESULT:      -7.1      2.301      3.807
REMARK  Name = 
REMARK  2 active torsions:
REMARK  status: ('A' for Active; 'I' for Inactive)
REMARK    1  A    between atoms: C_1  and  C_2
REMARK    2  A    between atoms: C_10  and  C_11
REMARK                            x       y       z     vdW  Elec       q    Type
REMARK                         _______ _______ _______ _____ _____    ______ ____
ROOT
ATOM      1  C   UNL     1      -1.344  11.623  20.932  0.00  0.00    +0.000 C 
ATOM      2  C   UNL     1      -0.047  10.819  21.004  0.00  0.00    +0.000 C 
ATOM      3  C   UNL     1       0.519  10.587  19.594  0.00  0.00    +0.000 C 
ATOM      4  C   UNL     1       1.725   9.646  19.607  0.00  0.00    +0.000 C 
ATOM      5  N   UNL     1       1.331   8.421  20.285  0.00  0.00    +0.000 N 
ATOM      6  C   UNL     1       1.901   7.229  19.901  0.00  0.00    +0.000 A 
ATOM      7  N   UNL     1       1.507   6.107  20.503  0.00  0.00    +0.000 NA
ATOM      8  C   UNL     1       1.986   4.926  20.068  0.00  0.00    +0.000 A 
ATOM      9  C   UNL     1       2.911   4.815  19.036  0.00  0.00    +0.000 A 
ATOM     10  C   UNL     1       3.298   6.025  18.464  0.00  0.00    +0.000 A 
ATOM     11  N   UNL     1       2.772   7.208  18.892  0.00  0.00    +0.000 NA
ATOM     12  C   UNL     1       3.437   3.456  18.669  0.00  0.00    +0.000 C 
ATOM     13  C   UNL     1       4.289   2.852  19.788  0.00  0.00    +0.000 C 
ATOM     14  C   UNL     1       3.471   2.152  20.876  0.00  0.00    +0.000 C 
ATOM     15  C   UNL     1       2.522   3.056  21.664  0.00  0.00    +0.000 C 
ATOM     16  C   UNL     1       1.453   3.721  20.803  0.00  0.00    +0.000 C 
ATOM     17  C   UNL     1       0.929   8.567  21.677  0.00  0.00    +0.000 C 
ATOM     18  C   UNL     1      -0.291   9.487  21.733  0.00  0.00    +0.000 C 
ENDROOT
BRANCH  10  19
ATOM     19  C   UNL     1       4.296   6.183  17.326  0.00  0.00    +0.000 C 
ATOM     20  F   UNL     1       5.606   6.293  17.682  0.00  0.00    +0.000 F 
ATOM     21  F   UNL     1       4.255   5.137  16.447  0.00  0.00    +0.000 F 
ATOM     22  F   UNL     1       4.054   7.299  16.573  0.00  0.00    +0.000 F 
ENDBRANCH  10  19
TORSDOF 1
ENDMDL
MODEL 6
REMARK VINA RESULT:      -6.8      2.747      6.527
REMARK  Name = 
REMARK  2 active torsions:
REMARK  status: ('A' for Active; 'I' for Inactive)
REMARK    1  A    between atoms: C_1  and  C_2
REMARK    2  A    between atoms: C_10  and  C_11
REMARK                            x       y       z     vdW  Elec       q    Type
REMARK                         _______ _______ _______ _____ _____    ______ ____
ROOT
ATOM      1  C   UNL     1       2.499   2.408  18.356  0.00  0.00    +0.000 C 
ATOM      2  C   UNL     1       2.859   3.695  19.096  0.00  0.00    +0.000 C 
ATOM      3  C   UNL     1       1.758   4.059  20.104  0.00  0.00    +0.000 C 
ATOM      4  C   UNL     1       1.996   5.427  20.747  0.00  0.00    +0.000 C 
ATOM      5  N   UNL     1       2.154   6.402  19.680  0.00  0.00    +0.000 N 
ATOM      6  C   UNL     1       1.737   7.697  19.887  0.00  0.00    +0.000 A 
ATOM      7  N   UNL     1       1.852   8.575  18.891  0.00  0.00    +0.000 NA
ATOM      8  C   UNL     1       1.357   9.817  19.050  0.00  0.00    +0.000 A 
ATOM      9  C   UNL     1       0.758  10.251  20.228  0.00  0.00    +0.000 A 
ATOM     10  C   UNL     1       0.688   9.292  21.237  0.00  0.00    +0.000 A 
ATOM     11  N   UNL     1       1.160   8.027  21.043  0.00  0.00    +0.000 NA
ATOM     12  C   UNL     1       0.298  11.678  20.331  0.00  0.00    +0.000 C 
ATOM     13  C   UNL     1       1.473  12.659  20.313  0.00  0.00    +0.000 C 
ATOM     14  C   UNL     1       1.964  13.005  18.905  0.00  0.00    +0.000 C 
ATOM     15  C   UNL     1       2.529  11.832  18.103  0.00  0.00    +0.000 C 
ATOM     16  C   UNL     1       1.517  10.718  17.851  0.00  0.00    +0.000 C 
ATOM     17  C   UNL     1       3.281   6.186  18.782  0.00  0.00    +0.000 C 
ATOM     18  C   UNL     1       3.093   4.835  18.089  0.00  0.00    +0.000 C 
ENDROOT
BRANCH  10  19
ATOM     19  C   UNL     1       0.088   9.509  22.619  0.00  0.00    +0.000 C 
ATOM     20  F   UNL     1      -0.392  10.756  22.880  0.00  0.00    +0.000 F 
ATOM     21  F   UNL     1      -0.958   8.666  22.871  0.00  0.00    +0.000 F 
ATOM     22  F   UNL     1       0.992   9.276  23.620  0.00  0.00    +0.000 F 
ENDBRANCH  10  19
TORSDOF 1
ENDMDL
MODEL 7
REMARK VINA RESULT:      -6.7      4.292      7.817
REMARK  Name = 
REMARK  2 active torsions:
REMARK  status: ('A' for Active; 'I' for Inactive)
REMARK    1  A    between atoms: C_1  and  C_2
REMARK    2  A    between atoms: C_10  and  C_11
REMARK                            x       y       z     vdW  Elec       q    Type
REMARK                         _______ _______ _______ _____ _____    ______ ____
ROOT
ATOM      1  C   UNL     1       7.449   1.923  10.613  0.00  0.00    +0.000 C 
ATOM      2  C   UNL     1       6.806   3.082  11.372  0.00  0.00    +0.000 C 
ATOM      3  C   UNL     1       7.818   3.719  12.337  0.00  0.00    +0.000 C 
ATOM      4  C   UNL     1       7.171   4.774  13.236  0.00  0.00    +0.000 C 
ATOM      5  N   UNL     1       6.038   4.156  13.906  0.00  0.00    +0.000 N 
ATOM      6  C   UNL     1       5.694   4.578  15.170  0.00  0.00    +0.000 A 
ATOM      7  N   UNL     1       4.677   3.982  15.792  0.00  0.00    +0.000 NA
ATOM      8  C   UNL     1       4.396   4.320  17.064  0.00  0.00    +0.000 A 
ATOM      9  C   UNL     1       5.095   5.298  17.762  0.00  0.00    +0.000 A 
ATOM     10  C   UNL     1       6.131   5.899  17.050  0.00  0.00    +0.000 A 
ATOM     11  N   UNL     1       6.426   5.515  15.775  0.00  0.00    +0.000 NA
ATOM     12  C   UNL     1       4.660   5.652  19.157  0.00  0.00    +0.000 C 
ATOM     13  C   UNL     1       3.282   6.317  19.174  0.00  0.00    +0.000 C 
ATOM     14  C   UNL     1       2.118   5.324  19.151  0.00  0.00    +0.000 C 
ATOM     15  C   UNL     1       2.025   4.454  17.897  0.00  0.00    +0.000 C 
ATOM     16  C   UNL     1       3.244   3.563  17.677  0.00  0.00    +0.000 C 
ATOM     17  C   UNL     1       4.973   3.670  13.039  0.00  0.00    +0.000 C 
ATOM     18  C   UNL     1       5.554   2.593  12.121  0.00  0.00    +0.000 C 
ENDROOT
BRANCH  10  19
ATOM     19  C   UNL     1       7.044   6.996  17.578  0.00  0.00    +0.000 C 
ATOM     20  F   UNL     1       6.460   8.202  17.823  0.00  0.00    +0.000 F 
ATOM     21  F   UNL     1       7.650   6.651  18.753  0.00  0.00    +0.000 F 
ATOM     22  F   UNL     1       8.065   7.284  16.714  0.00  0.00    +0.000 F 
ENDBRANCH  10  19
TORSDOF 1
ENDMDL
MODEL 8
REMARK VINA RESULT:      -6.7      3.079      7.339
REMARK  Name = 
REMARK  2 active torsions:
REMARK  status: ('A' for Active; 'I' for Inactive)
REMARK    1  A    between atoms: C_1  and  C_2
REMARK    2  A    between atoms: C_10  and  C_11
REMARK                            x       y       z     vdW  Elec       q    Type
REMARK                         _______ _______ _______ _____ _____    ______ ____
ROOT
ATOM      1  C   UNL     1       4.261   2.516  19.972  0.00  0.00    +0.000 C 
ATOM      2  C   UNL     1       3.119   3.492  19.696  0.00  0.00    +0.000 C 
ATOM      3  C   UNL     1       3.617   4.676  18.853  0.00  0.00    +0.000 C 
ATOM      4  C   UNL     1       2.548   5.759  18.694  0.00  0.00    +0.000 C 
ATOM      5  N   UNL     1       2.096   6.140  20.022  0.00  0.00    +0.000 N 
ATOM      6  C   UNL     1       1.686   7.434  20.246  0.00  0.00    +0.000 A 
ATOM      7  N   UNL     1       1.308   7.784  21.475  0.00  0.00    +0.000 NA
ATOM      8  C   UNL     1       1.000   9.071  21.726  0.00  0.00    +0.000 A 
ATOM      9  C   UNL     1       1.018  10.060  20.749  0.00  0.00    +0.000 A 
ATOM     10  C   UNL     1       1.400   9.626  19.481  0.00  0.00    +0.000 A 
ATOM     11  N   UNL     1       1.747   8.326  19.256  0.00  0.00    +0.000 NA
ATOM     12  C   UNL     1       0.591  11.455  21.114  0.00  0.00    +0.000 C 
ATOM     13  C   UNL     1      -0.898  11.523  21.462  0.00  0.00    +0.000 C 
ATOM     14  C   UNL     1      -1.210  11.136  22.909  0.00  0.00    +0.000 C 
ATOM     15  C   UNL     1      -0.870   9.695  23.290  0.00  0.00    +0.000 C 
ATOM     16  C   UNL     1       0.612   9.359  23.155  0.00  0.00    +0.000 C 
ATOM     17  C   UNL     1       1.475   5.084  20.810  0.00  0.00    +0.000 C 
ATOM     18  C   UNL     1       2.502   3.972  21.022  0.00  0.00    +0.000 C 
ENDROOT
BRANCH  10  19
ATOM     19  C   UNL     1       1.498  10.502  18.241  0.00  0.00    +0.000 C 
ATOM     20  F   UNL     1       0.345  11.099  17.830  0.00  0.00    +0.000 F 
ATOM     21  F   UNL     1       2.391  11.526  18.394  0.00  0.00    +0.000 F 
ATOM     22  F   UNL     1       1.929   9.805  17.145  0.00  0.00    +0.000 F 
ENDBRANCH  10  19
TORSDOF 1
ENDMDL
MODEL 9
REMARK VINA RESULT:      -6.5      1.527      5.897
REMARK  Name = 
REMARK  2 active torsions:
REMARK  status: ('A' for Active; 'I' for Inactive)
REMARK    1  A    between atoms: C_1  and  C_2
REMARK    2  A    between atoms: C_10  and  C_11
REMARK                            x       y       z     vdW  Elec       q    Type
REMARK                         _______ _______ _______ _____ _____    ______ ____
ROOT
ATOM      1  C   UNL     1       6.548   4.007  13.505  0.00  0.00    +0.000 C 
ATOM      2  C   UNL     1       6.422   4.503  14.944  0.00  0.00    +0.000 C 
ATOM      3  C   UNL     1       5.638   3.491  15.794  0.00  0.00    +0.000 C 
ATOM      4  C   UNL     1       5.345   4.023  17.198  0.00  0.00    +0.000 C 
ATOM      5  N   UNL     1       4.678   5.308  17.060  0.00  0.00    +0.000 N 
ATOM      6  C   UNL     1       3.757   5.691  18.008  0.00  0.00    +0.000 A 
ATOM      7  N   UNL     1       3.124   6.854  17.854  0.00  0.00    +0.000 NA
ATOM      8  C   UNL     1       2.152   7.191  18.722  0.00  0.00    +0.000 A 
ATOM      9  C   UNL     1       1.794   6.400  19.807  0.00  0.00    +0.000 A 
ATOM     10  C   UNL     1       2.508   5.209  19.924  0.00  0.00    +0.000 A 
ATOM     11  N   UNL     1       3.462   4.866  19.012  0.00  0.00    +0.000 NA
ATOM     12  C   UNL     1       0.742   6.897  20.759  0.00  0.00    +0.000 C 
ATOM     13  C   UNL     1       1.212   8.129  21.536  0.00  0.00    +0.000 C 
ATOM     14  C   UNL     1       1.028   9.444  20.776  0.00  0.00    +0.000 C 
ATOM     15  C   UNL     1       1.834   9.569  19.482  0.00  0.00    +0.000 C 
ATOM     16  C   UNL     1       1.484   8.514  18.437  0.00  0.00    +0.000 C 
ATOM     17  C   UNL     1       5.443   6.353  16.392  0.00  0.00    +0.000 C 
ATOM     18  C   UNL     1       5.754   5.889  14.969  0.00  0.00    +0.000 C 
ENDROOT
BRANCH  10  19
ATOM     19  C   UNL     1       2.316   4.170  21.020  0.00  0.00    +0.000 C 
ATOM     20  F   UNL     1       2.583   4.577  22.292  0.00  0.00    +0.000 F 
ATOM     21  F   UNL     1       1.038   3.687  21.064  0.00  0.00    +0.000 F 
ATOM     22  F   UNL     1       3.113   3.072  20.841  0.00  0.00    +0.000 F 
ENDBRANCH  10  19
TORSDOF 1
ENDMDL
