MODEL 1
REMARK VINA RESULT:      -9.0      0.000      0.000
REMARK  Name = 
REMARK  4 active torsions:
REMARK  status: ('A' for Active; 'I' for Inactive)
REMARK    1  A    between atoms: C_4  and  C_5
REMARK    2  A    between atoms: C_5  and  N_6
REMARK    3  A    between atoms: C_10  and  C_11
REMARK    4  A    between atoms: N_19  and  C_20
REMARK                            x       y       z     vdW  Elec       q    Type
REMARK                         _______ _______ _______ _____ _____    ______ ____
ROOT
ATOM      1  N   UNL     1       8.467   5.474  19.984  0.00  0.00    +0.000 N 
ATOM      2  C   UNL     1       7.909   6.257  18.994  0.00  0.00    +0.000 A 
ATOM      3  N   UNL     1       6.866   5.785  18.343  0.00  0.00    +0.000 NA
ATOM      4  C   UNL     1       6.360   6.612  17.419  0.00  0.00    +0.000 A 
ATOM      5  N   UNL     1       6.824   7.833  17.154  0.00  0.00    +0.000 NA
ATOM      6  C   UNL     1       7.908   8.191  17.834  0.00  0.00    +0.000 A 
ATOM      7  N   UNL     1       8.459   9.436  17.549  0.00  0.00    +0.000 N 
ATOM      8  N   UNL     1       8.489   7.407  18.748  0.00  0.00    +0.000 NA
ATOM      9  H   UNL     1       8.303   4.494  19.799  0.00  0.00    +0.000 HD
ATOM     10  H   UNL     1       9.423   5.761  20.142  0.00  0.00    +0.000 HD
ATOM     11  H   UNL     1       7.940   9.914  16.827  0.00  0.00    +0.000 HD
ENDROOT
BRANCH   7  12
ATOM     12  C   UNL     1       9.214  10.219  18.434  0.00  0.00    +0.000 A 
ATOM     13  C   UNL     1       8.949  10.203  19.809  0.00  0.00    +0.000 A 
ATOM     14  C   UNL     1       9.570  11.119  20.665  0.00  0.00    +0.000 A 
ATOM     15  C   UNL     1      10.493  12.031  20.159  0.00  0.00    +0.000 A 
ATOM     16  C   UNL     1      10.809  12.016  18.802  0.00  0.00    +0.000 A 
ATOM     17  C   UNL     1      10.176  11.122  17.949  0.00  0.00    +0.000 A 
ENDBRANCH   7  12
BRANCH   4  18
ATOM     18  C   UNL     1       5.207   6.086  16.587  0.00  0.00    +0.000 C 
BRANCH  18  19
ATOM     19  N   UNL     1       4.062   5.645  17.390  0.00  0.00    +0.000 N 
ATOM     20  C   UNL     1       3.221   6.581  17.960  0.00  0.00    +0.000 A 
ATOM     21  C   UNL     1       2.072   6.213  18.531  0.00  0.00    +0.000 A 
ATOM     22  C   UNL     1       1.719   4.812  18.579  0.00  0.00    +0.000 A 
ATOM     23  C   UNL     1       2.525   3.869  18.090  0.00  0.00    +0.000 A 
ATOM     24  C   UNL     1       3.808   4.273  17.438  0.00  0.00    +0.000 A 
ATOM     25  O   UNL     1       4.579   3.452  16.961  0.00  0.00    +0.000 OA
BRANCH  23  26
ATOM     26  C   UNL     1       2.262   2.403  18.185  0.00  0.00    +0.000 C 
ATOM     27  F   UNL     1       3.080   1.748  19.040  0.00  0.00    +0.000 F 
ATOM     28  F   UNL     1       0.994   2.171  18.624  0.00  0.00    +0.000 F 
ATOM     29  F   UNL     1       2.365   1.756  16.994  0.00  0.00    +0.000 F 
ENDBRANCH  23  26
ENDBRANCH  18  19
ENDBRANCH   4  18
TORSDOF 4
ENDMDL
MODEL 2
REMARK VINA RESULT:      -9.0      0.163      1.194
REMARK  Name = 
REMARK  4 active torsions:
REMARK  status: ('A' for Active; 'I' for Inactive)
REMARK    1  A    between atoms: C_4  and  C_5
REMARK    2  A    between atoms: C_5  and  N_6
REMARK    3  A    between atoms: C_10  and  C_11
REMARK    4  A    between atoms: N_19  and  C_20
REMARK                            x       y       z     vdW  Elec       q    Type
REMARK                         _______ _______ _______ _____ _____    ______ ____
ROOT
ATOM      1  N   UNL     1       8.475   5.538  20.006  0.00  0.00    +0.000 N 
ATOM      2  C   UNL     1       7.914   6.282  18.988  0.00  0.00    +0.000 A 
ATOM      3  N   UNL     1       6.897   5.764  18.329  0.00  0.00    +0.000 NA
ATOM      4  C   UNL     1       6.386   6.555  17.377  0.00  0.00    +0.000 A 
ATOM      5  N   UNL     1       6.819   7.783  17.092  0.00  0.00    +0.000 NA
ATOM      6  C   UNL     1       7.878   8.188  17.784  0.00  0.00    +0.000 A 
ATOM      7  N   UNL     1       8.398   9.443  17.480  0.00  0.00    +0.000 N 
ATOM      8  N   UNL     1       8.465   7.442  18.726  0.00  0.00    +0.000 NA
ATOM      9  H   UNL     1       8.343   4.550  19.840  0.00  0.00    +0.000 HD
ATOM     10  H   UNL     1       9.420   5.857  20.175  0.00  0.00    +0.000 HD
ATOM     11  H   UNL     1       7.879   9.888  16.739  0.00  0.00    +0.000 HD
ENDROOT
BRANCH   7  12
ATOM     12  C   UNL     1       9.113  10.267  18.362  0.00  0.00    +0.000 A 
ATOM     13  C   UNL     1      10.175  11.055  17.903  0.00  0.00    +0.000 A 
ATOM     14  C   UNL     1      11.005  11.728  18.807  0.00  0.00    +0.000 A 
ATOM     15  C   UNL     1      10.752  11.653  20.175  0.00  0.00    +0.000 A 
ATOM     16  C   UNL     1       9.660  10.920  20.638  0.00  0.00    +0.000 A 
ATOM     17  C   UNL     1       8.851  10.234  19.742  0.00  0.00    +0.000 A 
ENDBRANCH   7  12
BRANCH   4  18
ATOM     18  C   UNL     1       5.264   5.977  16.536  0.00  0.00    +0.000 C 
BRANCH  18  19
ATOM     19  N   UNL     1       4.081   5.605  17.318  0.00  0.00    +0.000 N 
ATOM     20  C   UNL     1       3.261   6.591  17.833  0.00  0.00    +0.000 A 
ATOM     21  C   UNL     1       2.082   6.285  18.382  0.00  0.00    +0.000 A 
ATOM     22  C   UNL     1       1.674   4.900  18.463  0.00  0.00    +0.000 A 
ATOM     23  C   UNL     1       2.457   3.913  18.027  0.00  0.00    +0.000 A 
ATOM     24  C   UNL     1       3.773   4.246  17.402  0.00  0.00    +0.000 A 
ATOM     25  O   UNL     1       4.524   3.382  16.974  0.00  0.00    +0.000 OA
BRANCH  23  26
ATOM     26  C   UNL     1       2.135   2.461  18.161  0.00  0.00    +0.000 C 
ATOM     27  F   UNL     1       2.365   1.738  17.040  0.00  0.00    +0.000 F 
ATOM     28  F   UNL     1       2.892   1.891  19.139  0.00  0.00    +0.000 F 
ATOM     29  F   UNL     1       0.843   2.222  18.507  0.00  0.00    +0.000 F 
ENDBRANCH  23  26
ENDBRANCH  18  19
ENDBRANCH   4  18
TORSDOF 4
ENDMDL
MODEL 3
REMARK VINA RESULT:      -8.7      1.647      2.176
REMARK  Name = 
REMARK  4 active torsions:
REMARK  status: ('A' for Active; 'I' for Inactive)
REMARK    1  A    between atoms: C_4  and  C_5
REMARK    2  A    between atoms: C_5  and  N_6
REMARK    3  A    between atoms: C_10  and  C_11
REMARK    4  A    between atoms: N_19  and  C_20
REMARK                            x       y       z     vdW  Elec       q    Type
REMARK                         _______ _______ _______ _____ _____    ______ ____
ROOT
ATOM      1  N   UNL     1       8.361   5.382  19.753  0.00  0.00    +0.000 N 
ATOM      2  C   UNL     1       7.764   6.239  18.851  0.00  0.00    +0.000 A 
ATOM      3  N   UNL     1       6.656   5.842  18.258  0.00  0.00    +0.000 NA
ATOM      4  C   UNL     1       6.117   6.736  17.420  0.00  0.00    +0.000 A 
ATOM      5  N   UNL     1       6.609   7.952  17.184  0.00  0.00    +0.000 NA
ATOM      6  C   UNL     1       7.754   8.233  17.797  0.00  0.00    +0.000 A 
ATOM      7  N   UNL     1       8.332   9.471  17.537  0.00  0.00    +0.000 N 
ATOM      8  N   UNL     1       8.370   7.379  18.622  0.00  0.00    +0.000 NA
ATOM      9  H   UNL     1       8.144   4.421  19.530  0.00  0.00    +0.000 HD
ATOM     10  H   UNL     1       9.337   5.625  19.853  0.00  0.00    +0.000 HD
ATOM     11  H   UNL     1       7.781  10.006  16.884  0.00  0.00    +0.000 HD
ENDROOT
BRANCH   7  12
ATOM     12  C   UNL     1       9.182  10.176  18.403  0.00  0.00    +0.000 A 
ATOM     13  C   UNL     1       8.937  10.204  19.780  0.00  0.00    +0.000 A 
ATOM     14  C   UNL     1       9.668  11.055  20.617  0.00  0.00    +0.000 A 
ATOM     15  C   UNL     1      10.678  11.854  20.087  0.00  0.00    +0.000 A 
ATOM     16  C   UNL     1      10.970  11.789  18.726  0.00  0.00    +0.000 A 
ATOM     17  C   UNL     1      10.230  10.961  17.893  0.00  0.00    +0.000 A 
ENDBRANCH   7  12
BRANCH   4  18
ATOM     18  C   UNL     1       4.885   6.299  16.652  0.00  0.00    +0.000 C 
BRANCH  18  19
ATOM     19  N   UNL     1       4.107   5.263  17.338  0.00  0.00    +0.000 N 
ATOM     20  C   UNL     1       4.254   3.939  16.974  0.00  0.00    +0.000 A 
ATOM     21  C   UNL     1       3.707   2.962  17.702  0.00  0.00    +0.000 A 
ATOM     22  C   UNL     1       2.926   3.300  18.871  0.00  0.00    +0.000 A 
ATOM     23  C   UNL     1       2.714   4.566  19.229  0.00  0.00    +0.000 A 
ATOM     24  C   UNL     1       3.331   5.665  18.426  0.00  0.00    +0.000 A 
ATOM     25  O   UNL     1       3.180   6.843  18.717  0.00  0.00    +0.000 OA
BRANCH  23  26
ATOM     26  C   UNL     1       1.847   4.985  20.371  0.00  0.00    +0.000 C 
ATOM     27  F   UNL     1       1.558   6.306  20.390  0.00  0.00    +0.000 F 
ATOM     28  F   UNL     1       0.650   4.337  20.326  0.00  0.00    +0.000 F 
ATOM     29  F   UNL     1       2.378   4.696  21.588  0.00  0.00    +0.000 F 
ENDBRANCH  23  26
ENDBRANCH  18  19
ENDBRANCH   4  18
TORSDOF 4
ENDMDL
MODEL 4
REMARK VINA RESULT:      -8.4      1.427      1.545
REMARK  Name = 
REMARK  4 active torsions:
REMARK  status: ('A' for Active; 'I' for Inactive)
REMARK    1  A    between atoms: C_4  and  C_5
REMARK    2  A    between atoms: C_5  and  N_6
REMARK    3  A    between atoms: C_10  and  C_11
REMARK    4  A    between atoms: N_19  and  C_20
REMARK                            x       y       z     vdW  Elec       q    Type
REMARK                         _______ _______ _______ _____ _____    ______ ____
ROOT
ATOM      1  N   UNL     1       8.774   5.158  20.143  0.00  0.00    +0.000 N 
ATOM      2  C   UNL     1       7.941   5.875  19.307  0.00  0.00    +0.000 A 
ATOM      3  N   UNL     1       6.784   5.340  18.976  0.00  0.00    +0.000 NA
ATOM      4  C   UNL     1       6.017   6.105  18.189  0.00  0.00    +0.000 A 
ATOM      5  N   UNL     1       6.342   7.326  17.764  0.00  0.00    +0.000 NA
ATOM      6  C   UNL     1       7.550   7.750  18.116  0.00  0.00    +0.000 A 
ATOM      7  N   UNL     1       7.953   8.997  17.647  0.00  0.00    +0.000 N 
ATOM      8  N   UNL     1       8.386   7.029  18.872  0.00  0.00    +0.000 NA
ATOM      9  H   UNL     1       8.608   4.166  20.045  0.00  0.00    +0.000 HD
ATOM     10  H   UNL     1       9.725   5.483  20.030  0.00  0.00    +0.000 HD
ATOM     11  H   UNL     1       7.241   9.422  17.073  0.00  0.00    +0.000 HD
ENDROOT
BRANCH   7  12
ATOM     12  C   UNL     1       8.881   9.844  18.270  0.00  0.00    +0.000 A 
ATOM     13  C   UNL     1       8.960   9.918  19.665  0.00  0.00    +0.000 A 
ATOM     14  C   UNL     1       9.748  10.895  20.284  0.00  0.00    +0.000 A 
ATOM     15  C   UNL     1      10.496  11.780  19.510  0.00  0.00    +0.000 A 
ATOM     16  C   UNL     1      10.471  11.676  18.121  0.00  0.00    +0.000 A 
ATOM     17  C   UNL     1       9.671  10.721  17.507  0.00  0.00    +0.000 A 
ENDBRANCH   7  12
BRANCH   4  18
ATOM     18  C   UNL     1       4.709   5.504  17.715  0.00  0.00    +0.000 C 
BRANCH  18  19
ATOM     19  N   UNL     1       3.694   5.408  18.770  0.00  0.00    +0.000 N 
ATOM     20  C   UNL     1       2.957   6.524  19.117  0.00  0.00    +0.000 A 
ATOM     21  C   UNL     1       1.904   6.424  19.932  0.00  0.00    +0.000 A 
ATOM     22  C   UNL     1       1.551   5.134  20.481  0.00  0.00    +0.000 A 
ATOM     23  C   UNL     1       2.266   4.040  20.216  0.00  0.00    +0.000 A 
ATOM     24  C   UNL     1       3.439   4.141  19.296  0.00  0.00    +0.000 A 
ATOM     25  O   UNL     1       4.122   3.169  19.007  0.00  0.00    +0.000 OA
BRANCH  23  26
ATOM     26  C   UNL     1       2.008   2.699  20.817  0.00  0.00    +0.000 C 
ATOM     27  F   UNL     1       3.017   2.236  21.592  0.00  0.00    +0.000 F 
ATOM     28  F   UNL     1       0.906   2.736  21.617  0.00  0.00    +0.000 F 
ATOM     29  F   UNL     1       1.765   1.730  19.896  0.00  0.00    +0.000 F 
ENDBRANCH  23  26
ENDBRANCH  18  19
ENDBRANCH   4  18
TORSDOF 4
ENDMDL
MODEL 5
REMARK VINA RESULT:      -8.3      4.182      6.887
REMARK  Name = 
REMARK  4 active torsions:
REMARK  status: ('A' for Active; 'I' for Inactive)
REMARK    1  A    between atoms: C_4  and  C_5
REMARK    2  A    between atoms: C_5  and  N_6
REMARK    3  A    between atoms: C_10  and  C_11
REMARK    4  A    between atoms: N_19  and  C_20
REMARK                            x       y       z     vdW  Elec       q    Type
REMARK                         _______ _______ _______ _____ _____    ______ ____
ROOT
ATOM      1  N   UNL     1       0.351   3.416  20.411  0.00  0.00    +0.000 N 
ATOM      2  C   UNL     1       1.495   4.160  20.203  0.00  0.00    +0.000 A 
ATOM      3  N   UNL     1       2.572   3.535  19.774  0.00  0.00    +0.000 NA
ATOM      4  C   UNL     1       3.633   4.325  19.565  0.00  0.00    +0.000 A 
ATOM      5  N   UNL     1       3.645   5.645  19.741  0.00  0.00    +0.000 NA
ATOM      6  C   UNL     1       2.522   6.167  20.222  0.00  0.00    +0.000 A 
ATOM      7  N   UNL     1       2.509   7.536  20.473  0.00  0.00    +0.000 N 
ATOM      8  N   UNL     1       1.433   5.438  20.487  0.00  0.00    +0.000 NA
ATOM      9  H   UNL     1       0.584   2.458  20.633  0.00  0.00    +0.000 HD
ATOM     10  H   UNL     1      -0.257   3.906  21.054  0.00  0.00    +0.000 HD
ATOM     11  H   UNL     1       3.397   7.960  20.253  0.00  0.00    +0.000 HD
ENDROOT
BRANCH   7  12
ATOM     12  C   UNL     1       1.373   8.359  20.464  0.00  0.00    +0.000 A 
ATOM     13  C   UNL     1       1.037   9.102  19.327  0.00  0.00    +0.000 A 
ATOM     14  C   UNL     1       0.020  10.062  19.378  0.00  0.00    +0.000 A 
ATOM     15  C   UNL     1      -0.697  10.255  20.556  0.00  0.00    +0.000 A 
ATOM     16  C   UNL     1      -0.411   9.478  21.677  0.00  0.00    +0.000 A 
ATOM     17  C   UNL     1       0.614   8.541  21.632  0.00  0.00    +0.000 A 
ENDBRANCH   7  12
BRANCH   4  18
ATOM     18  C   UNL     1       4.921   3.644  19.145  0.00  0.00    +0.000 C 
BRANCH  18  19
ATOM     19  N   UNL     1       5.718   4.434  18.201  0.00  0.00    +0.000 N 
ATOM     20  C   UNL     1       6.669   5.316  18.676  0.00  0.00    +0.000 A 
ATOM     21  C   UNL     1       7.535   5.903  17.845  0.00  0.00    +0.000 A 
ATOM     22  C   UNL     1       7.454   5.633  16.428  0.00  0.00    +0.000 A 
ATOM     23  C   UNL     1       6.518   4.830  15.920  0.00  0.00    +0.000 A 
ATOM     24  C   UNL     1       5.552   4.161  16.843  0.00  0.00    +0.000 A 
ATOM     25  O   UNL     1       4.682   3.405  16.433  0.00  0.00    +0.000 OA
BRANCH  23  26
ATOM     26  C   UNL     1       6.325   4.579  14.461  0.00  0.00    +0.000 C 
ATOM     27  F   UNL     1       5.120   4.970  13.987  0.00  0.00    +0.000 F 
ATOM     28  F   UNL     1       7.255   5.255  13.731  0.00  0.00    +0.000 F 
ATOM     29  F   UNL     1       6.461   3.272  14.114  0.00  0.00    +0.000 F 
ENDBRANCH  23  26
ENDBRANCH  18  19
ENDBRANCH   4  18
TORSDOF 4
ENDMDL
MODEL 6
REMARK VINA RESULT:      -8.0      1.847      2.480
REMARK  Name = 
REMARK  4 active torsions:
REMARK  status: ('A' for Active; 'I' for Inactive)
REMARK    1  A    between atoms: C_4  and  C_5
REMARK    2  A    between atoms: C_5  and  N_6
REMARK    3  A    between atoms: C_10  and  C_11
REMARK    4  A    between atoms: N_19  and  C_20
REMARK                            x       y       z     vdW  Elec       q    Type
REMARK                         _______ _______ _______ _____ _____    ______ ____
ROOT
ATOM      1  N   UNL     1       8.224   5.242  19.993  0.00  0.00    +0.000 N 
ATOM      2  C   UNL     1       7.511   5.865  18.988  0.00  0.00    +0.000 A 
ATOM      3  N   UNL     1       6.488   5.222  18.464  0.00  0.00    +0.000 NA
ATOM      4  C   UNL     1       5.826   5.899  17.518  0.00  0.00    +0.000 A 
ATOM      5  N   UNL     1       6.123   7.134  17.116  0.00  0.00    +0.000 NA
ATOM      6  C   UNL     1       7.202   7.671  17.675  0.00  0.00    +0.000 A 
ATOM      7  N   UNL     1       7.582   8.939  17.244  0.00  0.00    +0.000 N 
ATOM      8  N   UNL     1       7.934   7.044  18.602  0.00  0.00    +0.000 NA
ATOM      9  H   UNL     1       8.164   4.238  19.904  0.00  0.00    +0.000 HD
ATOM     10  H   UNL     1       9.149   5.647  20.050  0.00  0.00    +0.000 HD
ATOM     11  H   UNL     1       6.961   9.287  16.529  0.00  0.00    +0.000 HD
ENDROOT
BRANCH   7  12
ATOM     12  C   UNL     1       8.299   9.879  17.999  0.00  0.00    +0.000 A 
ATOM     13  C   UNL     1       8.381  11.214  17.589  0.00  0.00    +0.000 A 
ATOM     14  C   UNL     1       9.246  12.106  18.233  0.00  0.00    +0.000 A 
ATOM     15  C   UNL     1      10.006  11.678  19.319  0.00  0.00    +0.000 A 
ATOM     16  C   UNL     1       9.887  10.366  19.773  0.00  0.00    +0.000 A 
ATOM     17  C   UNL     1       9.045   9.476  19.120  0.00  0.00    +0.000 A 
ENDBRANCH   7  12
BRANCH   4  18
ATOM     18  C   UNL     1       4.687   5.174  16.827  0.00  0.00    +0.000 C 
BRANCH  18  19
ATOM     19  N   UNL     1       4.011   4.197  17.687  0.00  0.00    +0.000 N 
ATOM     20  C   UNL     1       4.278   2.850  17.537  0.00  0.00    +0.000 A 
ATOM     21  C   UNL     1       3.827   1.959  18.424  0.00  0.00    +0.000 A 
ATOM     22  C   UNL     1       3.024   2.409  19.538  0.00  0.00    +0.000 A 
ATOM     23  C   UNL     1       2.697   3.693  19.692  0.00  0.00    +0.000 A 
ATOM     24  C   UNL     1       3.206   4.699  18.711  0.00  0.00    +0.000 A 
ATOM     25  O   UNL     1       2.949   5.889  18.811  0.00  0.00    +0.000 OA
BRANCH  23  26
ATOM     26  C   UNL     1       1.801   4.211  20.768  0.00  0.00    +0.000 C 
ATOM     27  F   UNL     1       1.379   3.266  21.639  0.00  0.00    +0.000 F 
ATOM     28  F   UNL     1       2.444   5.151  21.516  0.00  0.00    +0.000 F 
ATOM     29  F   UNL     1       0.681   4.817  20.295  0.00  0.00    +0.000 F 
ENDBRANCH  23  26
ENDBRANCH  18  19
ENDBRANCH   4  18
TORSDOF 4
ENDMDL
MODEL 7
REMARK VINA RESULT:      -7.9      4.374      6.941
REMARK  Name = 
REMARK  4 active torsions:
REMARK  status: ('A' for Active; 'I' for Inactive)
REMARK    1  A    between atoms: C_4  and  C_5
REMARK    2  A    between atoms: C_5  and  N_6
REMARK    3  A    between atoms: C_10  and  C_11
REMARK    4  A    between atoms: N_19  and  C_20
REMARK                            x       y       z     vdW  Elec       q    Type
REMARK                         _______ _______ _______ _____ _____    ______ ____
ROOT
ATOM      1  N   UNL     1       0.708   3.336  21.012  0.00  0.00    +0.000 N 
ATOM      2  C   UNL     1       1.497   4.072  20.150  0.00  0.00    +0.000 A 
ATOM      3  N   UNL     1       2.172   3.424  19.222  0.00  0.00    +0.000 NA
ATOM      4  C   UNL     1       2.890   4.205  18.405  0.00  0.00    +0.000 A 
ATOM      5  N   UNL     1       2.936   5.535  18.467  0.00  0.00    +0.000 NA
ATOM      6  C   UNL     1       2.256   6.082  19.469  0.00  0.00    +0.000 A 
ATOM      7  N   UNL     1       2.321   7.466  19.605  0.00  0.00    +0.000 N 
ATOM      8  N   UNL     1       1.544   5.367  20.345  0.00  0.00    +0.000 NA
ATOM      9  H   UNL     1       1.072   2.400  21.117  0.00  0.00    +0.000 HD
ATOM     10  H   UNL     1       0.547   3.868  21.857  0.00  0.00    +0.000 HD
ATOM     11  H   UNL     1       2.908   7.879  18.896  0.00  0.00    +0.000 HD
ENDROOT
BRANCH   7  12
ATOM     12  C   UNL     1       1.340   8.277  20.194  0.00  0.00    +0.000 A 
ATOM     13  C   UNL     1       0.668   9.247  19.442  0.00  0.00    +0.000 A 
ATOM     14  C   UNL     1      -0.170  10.179  20.066  0.00  0.00    +0.000 A 
ATOM     15  C   UNL     1      -0.373  10.120  21.444  0.00  0.00    +0.000 A 
ATOM     16  C   UNL     1       0.245   9.120  22.193  0.00  0.00    +0.000 A 
ATOM     17  C   UNL     1       1.093   8.210  21.576  0.00  0.00    +0.000 A 
ENDBRANCH   7  12
BRANCH   4  18
ATOM     18  C   UNL     1       3.748   3.505  17.369  0.00  0.00    +0.000 C 
BRANCH  18  19
ATOM     19  N   UNL     1       4.991   4.219  17.062  0.00  0.00    +0.000 N 
ATOM     20  C   UNL     1       5.212   4.694  15.783  0.00  0.00    +0.000 A 
ATOM     21  C   UNL     1       6.239   5.507  15.522  0.00  0.00    +0.000 A 
ATOM     22  C   UNL     1       7.147   5.870  16.587  0.00  0.00    +0.000 A 
ATOM     23  C   UNL     1       7.002   5.393  17.824  0.00  0.00    +0.000 A 
ATOM     24  C   UNL     1       5.850   4.491  18.128  0.00  0.00    +0.000 A 
ATOM     25  O   UNL     1       5.661   4.035  19.246  0.00  0.00    +0.000 OA
BRANCH  23  26
ATOM     26  C   UNL     1       7.951   5.657  18.945  0.00  0.00    +0.000 C 
ATOM     27  F   UNL     1       8.956   4.757  19.044  0.00  0.00    +0.000 F 
ATOM     28  F   UNL     1       8.547   6.872  18.792  0.00  0.00    +0.000 F 
ATOM     29  F   UNL     1       7.353   5.690  20.165  0.00  0.00    +0.000 F 
ENDBRANCH  23  26
ENDBRANCH  18  19
ENDBRANCH   4  18
TORSDOF 4
ENDMDL
MODEL 8
REMARK VINA RESULT:      -7.9      4.980      6.631
REMARK  Name = 
REMARK  4 active torsions:
REMARK  status: ('A' for Active; 'I' for Inactive)
REMARK    1  A    between atoms: C_4  and  C_5
REMARK    2  A    between atoms: C_5  and  N_6
REMARK    3  A    between atoms: C_10  and  C_11
REMARK    4  A    between atoms: N_19  and  C_20
REMARK                            x       y       z     vdW  Elec       q    Type
REMARK                         _______ _______ _______ _____ _____    ______ ____
ROOT
ATOM      1  N   UNL     1       7.784   4.908  18.794  0.00  0.00    +0.000 N 
ATOM      2  C   UNL     1       6.499   4.877  18.291  0.00  0.00    +0.000 A 
ATOM      3  N   UNL     1       5.512   5.235  19.087  0.00  0.00    +0.000 NA
ATOM      4  C   UNL     1       4.299   5.209  18.521  0.00  0.00    +0.000 A 
ATOM      5  N   UNL     1       4.056   4.876  17.254  0.00  0.00    +0.000 NA
ATOM      6  C   UNL     1       5.115   4.486  16.554  0.00  0.00    +0.000 A 
ATOM      7  N   UNL     1       4.899   4.076  15.242  0.00  0.00    +0.000 N 
ATOM      8  N   UNL     1       6.353   4.453  17.059  0.00  0.00    +0.000 NA
ATOM      9  H   UNL     1       7.778   4.774  19.796  0.00  0.00    +0.000 HD
ATOM     10  H   UNL     1       8.374   4.295  18.249  0.00  0.00    +0.000 HD
ATOM     11  H   UNL     1       3.923   4.128  14.995  0.00  0.00    +0.000 HD
ENDROOT
BRANCH   7  12
ATOM     12  C   UNL     1       5.839   4.134  14.202  0.00  0.00    +0.000 A 
ATOM     13  C   UNL     1       6.948   4.984  14.284  0.00  0.00    +0.000 A 
ATOM     14  C   UNL     1       7.778   5.182  13.175  0.00  0.00    +0.000 A 
ATOM     15  C   UNL     1       7.529   4.499  11.987  0.00  0.00    +0.000 A 
ATOM     16  C   UNL     1       6.463   3.605  11.913  0.00  0.00    +0.000 A 
ATOM     17  C   UNL     1       5.626   3.425  13.007  0.00  0.00    +0.000 A 
ENDBRANCH   7  12
BRANCH   4  18
ATOM     18  C   UNL     1       3.119   5.537  19.416  0.00  0.00    +0.000 C 
BRANCH  18  19
ATOM     19  N   UNL     1       2.627   6.909  19.252  0.00  0.00    +0.000 N 
ATOM     20  C   UNL     1       2.886   7.597  18.083  0.00  0.00    +0.000 A 
ATOM     21  C   UNL     1       2.294   8.767  17.830  0.00  0.00    +0.000 A 
ATOM     22  C   UNL     1       1.391   9.332  18.807  0.00  0.00    +0.000 A 
ATOM     23  C   UNL     1       1.152   8.729  19.971  0.00  0.00    +0.000 A 
ATOM     24  C   UNL     1       1.802   7.414  20.259  0.00  0.00    +0.000 A 
ATOM     25  O   UNL     1       1.609   6.810  21.304  0.00  0.00    +0.000 OA
BRANCH  23  26
ATOM     26  C   UNL     1       0.301   9.299  21.057  0.00  0.00    +0.000 C 
ATOM     27  F   UNL     1      -0.696   8.481  21.467  0.00  0.00    +0.000 F 
ATOM     28  F   UNL     1       1.051   9.563  22.164  0.00  0.00    +0.000 F 
ATOM     29  F   UNL     1      -0.289  10.476  20.721  0.00  0.00    +0.000 F 
ENDBRANCH  23  26
ENDBRANCH  18  19
ENDBRANCH   4  18
TORSDOF 4
ENDMDL
MODEL 9
REMARK VINA RESULT:      -7.8      4.215      7.096
REMARK  Name = 
REMARK  4 active torsions:
REMARK  status: ('A' for Active; 'I' for Inactive)
REMARK    1  A    between atoms: C_4  and  C_5
REMARK    2  A    between atoms: C_5  and  N_6
REMARK    3  A    between atoms: C_10  and  C_11
REMARK    4  A    between atoms: N_19  and  C_20
REMARK                            x       y       z     vdW  Elec       q    Type
REMARK                         _______ _______ _______ _____ _____    ______ ____
ROOT
ATOM      1  N   UNL     1       1.517   7.859  21.496  0.00  0.00    +0.000 N 
ATOM      2  C   UNL     1       1.679   8.151  20.157  0.00  0.00    +0.000 A 
ATOM      3  N   UNL     1       2.581   7.472  19.478  0.00  0.00    +0.000 NA
ATOM      4  C   UNL     1       2.661   7.788  18.179  0.00  0.00    +0.000 A 
ATOM      5  N   UNL     1       1.898   8.694  17.568  0.00  0.00    +0.000 NA
ATOM      6  C   UNL     1       1.055   9.353  18.354  0.00  0.00    +0.000 A 
ATOM      7  N   UNL     1       0.278  10.348  17.767  0.00  0.00    +0.000 N 
ATOM      8  N   UNL     1       0.942   9.118  19.665  0.00  0.00    +0.000 NA
ATOM      9  H   UNL     1       2.374   7.495  21.888  0.00  0.00    +0.000 HD
ATOM     10  H   UNL     1       1.092   8.648  21.964  0.00  0.00    +0.000 HD
ATOM     11  H   UNL     1       0.477  10.438  16.782  0.00  0.00    +0.000 HD
ENDROOT
BRANCH   7  12
ATOM     12  C   UNL     1      -0.976  10.781  18.221  0.00  0.00    +0.000 A 
ATOM     13  C   UNL     1      -2.155  10.248  17.685  0.00  0.00    +0.000 A 
ATOM     14  C   UNL     1      -3.397  10.810  17.998  0.00  0.00    +0.000 A 
ATOM     15  C   UNL     1      -3.474  11.883  18.884  0.00  0.00    +0.000 A 
ATOM     16  C   UNL     1      -2.312  12.382  19.469  0.00  0.00    +0.000 A 
ATOM     17  C   UNL     1      -1.077  11.839  19.140  0.00  0.00    +0.000 A 
ENDBRANCH   7  12
BRANCH   4  18
ATOM     18  C   UNL     1       3.737   7.091  17.370  0.00  0.00    +0.000 C 
BRANCH  18  19
ATOM     19  N   UNL     1       4.124   5.786  17.916  0.00  0.00    +0.000 N 
ATOM     20  C   UNL     1       5.348   5.637  18.538  0.00  0.00    +0.000 A 
ATOM     21  C   UNL     1       5.646   4.521  19.207  0.00  0.00    +0.000 A 
ATOM     22  C   UNL     1       4.684   3.443  19.256  0.00  0.00    +0.000 A 
ATOM     23  C   UNL     1       3.512   3.522  18.626  0.00  0.00    +0.000 A 
ATOM     24  C   UNL     1       3.165   4.772  17.883  0.00  0.00    +0.000 A 
ATOM     25  O   UNL     1       2.100   4.904  17.298  0.00  0.00    +0.000 OA
BRANCH  23  26
ATOM     26  C   UNL     1       2.513   2.415  18.563  0.00  0.00    +0.000 C 
ATOM     27  F   UNL     1       2.235   1.990  17.308  0.00  0.00    +0.000 F 
ATOM     28  F   UNL     1       2.966   1.322  19.238  0.00  0.00    +0.000 F 
ATOM     29  F   UNL     1       1.318   2.730  19.128  0.00  0.00    +0.000 F 
ENDBRANCH  23  26
ENDBRANCH  18  19
ENDBRANCH   4  18
TORSDOF 4
ENDMDL
