MODEL 1
REMARK VINA RESULT:      -7.1      0.000      0.000
REMARK  Name = 
REMARK  2 active torsions:
REMARK  status: ('A' for Active; 'I' for Inactive)
REMARK    1  A    between atoms: C_2  and  O_3
REMARK    2  A    between atoms: O_3  and  C_4
REMARK                            x       y       z     vdW  Elec       q    Type
REMARK                         _______ _______ _______ _____ _____    ______ ____
ROOT
ATOM      1  C   UNL     1       3.161   5.983  19.009  0.00  0.00    +0.000 A 
ATOM      2  C   UNL     1       2.338   5.006  19.591  0.00  0.00    +0.000 A 
ATOM      3 CL   UNL     1       1.051   5.387  20.686  0.00  0.00    +0.000 Cl
ATOM      4  C   UNL     1       2.462   3.682  19.207  0.00  0.00    +0.000 A 
ATOM      5  C   UNL     1       3.333   3.337  18.177  0.00  0.00    +0.000 A 
ATOM      6 CL   UNL     1       3.422   1.651  17.780  0.00  0.00    +0.000 Cl
ATOM      7  C   UNL     1       4.058   4.320  17.459  0.00  0.00    +0.000 A 
ATOM      8  C   UNL     1       4.815   4.021  16.303  0.00  0.00    +0.000 A 
ATOM      9  C   UNL     1       5.452   5.017  15.565  0.00  0.00    +0.000 A 
ATOM     10  C   UNL     1       5.395   6.334  15.997  0.00  0.00    +0.000 A 
ATOM     11  C   UNL     1       4.689   6.656  17.160  0.00  0.00    +0.000 A 
ATOM     12  C   UNL     1       3.984   5.673  17.895  0.00  0.00    +0.000 A 
ENDROOT
BRANCH   1  13
ATOM     13  O   UNL     1       3.058   7.330  19.412  0.00  0.00    +0.000 OA
BRANCH  13  15
ATOM     14  O   UNL     1       1.863   8.085  17.579  0.00  0.00    +0.000 OA
ATOM     15  C   UNL     1       2.058   8.085  18.788  0.00  0.00    +0.000 C 
ATOM     16  N   UNL     1       1.366   8.876  19.697  0.00  0.00    +0.000 N 
ATOM     17  C   UNL     1       1.692   8.914  21.116  0.00  0.00    +0.000 C 
ATOM     18  C   UNL     1       0.419   8.957  21.952  0.00  0.00    +0.000 C 
ATOM     19  C   UNL     1      -0.529  10.070  21.509  0.00  0.00    +0.000 C 
ATOM     20  C   UNL     1      -0.754  10.076  19.993  0.00  0.00    +0.000 C 
ATOM     21  C   UNL     1       0.556   9.989  19.218  0.00  0.00    +0.000 C 
ENDBRANCH  13  15
ENDBRANCH   1  13
TORSDOF 2
ENDMDL
MODEL 2
REMARK VINA RESULT:      -7.0      3.544      7.137
REMARK  Name = 
REMARK  2 active torsions:
REMARK  status: ('A' for Active; 'I' for Inactive)
REMARK    1  A    between atoms: C_2  and  O_3
REMARK    2  A    between atoms: O_3  and  C_4
REMARK                            x       y       z     vdW  Elec       q    Type
REMARK                         _______ _______ _______ _____ _____    ______ ____
ROOT
ATOM      1  C   UNL     1       3.825   4.714  17.465  0.00  0.00    +0.000 A 
ATOM      2  C   UNL     1       3.899   6.114  17.409  0.00  0.00    +0.000 A 
ATOM      3 CL   UNL     1       4.636   6.968  16.094  0.00  0.00    +0.000 Cl
ATOM      4  C   UNL     1       3.266   6.878  18.375  0.00  0.00    +0.000 A 
ATOM      5  C   UNL     1       2.479   6.260  19.342  0.00  0.00    +0.000 A 
ATOM      6 CL   UNL     1       1.738   7.304  20.512  0.00  0.00    +0.000 Cl
ATOM      7  C   UNL     1       2.252   4.861  19.330  0.00  0.00    +0.000 A 
ATOM      8  C   UNL     1       1.326   4.228  20.190  0.00  0.00    +0.000 A 
ATOM      9  C   UNL     1       1.059   2.862  20.104  0.00  0.00    +0.000 A 
ATOM     10  C   UNL     1       1.753   2.083  19.190  0.00  0.00    +0.000 A 
ATOM     11  C   UNL     1       2.706   2.673  18.354  0.00  0.00    +0.000 A 
ATOM     12  C   UNL     1       2.954   4.066  18.380  0.00  0.00    +0.000 A 
ENDROOT
BRANCH   1  13
ATOM     13  O   UNL     1       4.488   3.928  16.500  0.00  0.00    +0.000 OA
BRANCH  13  15
ATOM     14  O   UNL     1       6.649   4.494  17.104  0.00  0.00    +0.000 OA
ATOM     15  C   UNL     1       5.818   4.273  16.233  0.00  0.00    +0.000 C 
ATOM     16  N   UNL     1       6.055   4.396  14.869  0.00  0.00    +0.000 N 
ATOM     17  C   UNL     1       5.013   4.213  13.868  0.00  0.00    +0.000 C 
ATOM     18  C   UNL     1       5.558   3.451  12.667  0.00  0.00    +0.000 C 
ATOM     19  C   UNL     1       6.836   4.079  12.114  0.00  0.00    +0.000 C 
ATOM     20  C   UNL     1       7.865   4.370  13.212  0.00  0.00    +0.000 C 
ATOM     21  C   UNL     1       7.245   5.095  14.401  0.00  0.00    +0.000 C 
ENDBRANCH  13  15
ENDBRANCH   1  13
TORSDOF 2
ENDMDL
MODEL 3
REMARK VINA RESULT:      -7.0      1.560      3.079
REMARK  Name = 
REMARK  2 active torsions:
REMARK  status: ('A' for Active; 'I' for Inactive)
REMARK    1  A    between atoms: C_2  and  O_3
REMARK    2  A    between atoms: O_3  and  C_4
REMARK                            x       y       z     vdW  Elec       q    Type
REMARK                         _______ _______ _______ _____ _____    ______ ____
ROOT
ATOM      1  C   UNL     1       3.302   6.055  18.622  0.00  0.00    +0.000 A 
ATOM      2  C   UNL     1       4.319   5.797  17.689  0.00  0.00    +0.000 A 
ATOM      3 CL   UNL     1       5.509   6.974  17.243  0.00  0.00    +0.000 Cl
ATOM      4  C   UNL     1       4.472   4.523  17.170  0.00  0.00    +0.000 A 
ATOM      5  C   UNL     1       3.682   3.480  17.645  0.00  0.00    +0.000 A 
ATOM      6 CL   UNL     1       3.946   1.927  16.922  0.00  0.00    +0.000 Cl
ATOM      7  C   UNL     1       2.758   3.673  18.702  0.00  0.00    +0.000 A 
ATOM      8  C   UNL     1       2.068   2.605  19.320  0.00  0.00    +0.000 A 
ATOM      9  C   UNL     1       1.226   2.809  20.412  0.00  0.00    +0.000 A 
ATOM     10  C   UNL     1       1.009   4.097  20.881  0.00  0.00    +0.000 A 
ATOM     11  C   UNL     1       1.645   5.179  20.264  0.00  0.00    +0.000 A 
ATOM     12  C   UNL     1       2.550   4.994  19.191  0.00  0.00    +0.000 A 
ENDROOT
BRANCH   1  13
ATOM     13  O   UNL     1       3.123   7.355  19.137  0.00  0.00    +0.000 OA
BRANCH  13  15
ATOM     14  O   UNL     1       2.391   8.318  17.165  0.00  0.00    +0.000 OA
ATOM     15  C   UNL     1       2.313   8.210  18.381  0.00  0.00    +0.000 C 
ATOM     16  N   UNL     1       1.465   8.963  19.186  0.00  0.00    +0.000 N 
ATOM     17  C   UNL     1       1.469   8.869  20.639  0.00  0.00    +0.000 C 
ATOM     18  C   UNL     1       0.046   8.913  21.178  0.00  0.00    +0.000 C 
ATOM     19  C   UNL     1      -0.740  10.108  20.643  0.00  0.00    +0.000 C 
ATOM     20  C   UNL     1      -0.625  10.248  19.121  0.00  0.00    +0.000 C 
ATOM     21  C   UNL     1       0.820  10.152  18.645  0.00  0.00    +0.000 C 
ENDBRANCH  13  15
ENDBRANCH   1  13
TORSDOF 2
ENDMDL
MODEL 4
REMARK VINA RESULT:      -6.7      1.748      2.879
REMARK  Name = 
REMARK  2 active torsions:
REMARK  status: ('A' for Active; 'I' for Inactive)
REMARK    1  A    between atoms: C_2  and  O_3
REMARK    2  A    between atoms: O_3  and  C_4
REMARK                            x       y       z     vdW  Elec       q    Type
REMARK                         _______ _______ _______ _____ _____    ______ ____
ROOT
ATOM      1  C   UNL     1       3.697   6.230  18.087  0.00  0.00    +0.000 A 
ATOM      2  C   UNL     1       4.905   6.494  17.422  0.00  0.00    +0.000 A 
ATOM      3 CL   UNL     1       5.870   7.897  17.741  0.00  0.00    +0.000 Cl
ATOM      4  C   UNL     1       5.431   5.558  16.549  0.00  0.00    +0.000 A 
ATOM      5  C   UNL     1       4.814   4.318  16.406  0.00  0.00    +0.000 A 
ATOM      6 CL   UNL     1       5.546   3.221  15.281  0.00  0.00    +0.000 Cl
ATOM      7  C   UNL     1       3.686   3.959  17.185  0.00  0.00    +0.000 A 
ATOM      8  C   UNL     1       3.142   2.653  17.189  0.00  0.00    +0.000 A 
ATOM      9  C   UNL     1       2.084   2.301  18.024  0.00  0.00    +0.000 A 
ATOM     10  C   UNL     1       1.504   3.262  18.840  0.00  0.00    +0.000 A 
ATOM     11  C   UNL     1       1.992   4.572  18.828  0.00  0.00    +0.000 A 
ATOM     12  C   UNL     1       3.103   4.942  18.033  0.00  0.00    +0.000 A 
ENDROOT
BRANCH   1  13
ATOM     13  O   UNL     1       3.142   7.189  18.959  0.00  0.00    +0.000 OA
BRANCH  13  15
ATOM     14  O   UNL     1       2.410   8.465  17.173  0.00  0.00    +0.000 OA
ATOM     15  C   UNL     1       2.355   8.181  18.362  0.00  0.00    +0.000 C 
ATOM     16  N   UNL     1       1.561   8.839  19.294  0.00  0.00    +0.000 N 
ATOM     17  C   UNL     1       1.594   8.529  20.716  0.00  0.00    +0.000 C 
ATOM     18  C   UNL     1       0.186   8.551  21.297  0.00  0.00    +0.000 C 
ATOM     19  C   UNL     1      -0.557   9.845  20.968  0.00  0.00    +0.000 C 
ATOM     20  C   UNL     1      -0.469  10.205  19.481  0.00  0.00    +0.000 C 
ATOM     21  C   UNL     1       0.959  10.122  18.954  0.00  0.00    +0.000 C 
ENDBRANCH  13  15
ENDBRANCH   1  13
TORSDOF 2
ENDMDL
MODEL 5
REMARK VINA RESULT:      -6.7      4.255      8.061
REMARK  Name = 
REMARK  2 active torsions:
REMARK  status: ('A' for Active; 'I' for Inactive)
REMARK    1  A    between atoms: C_2  and  O_3
REMARK    2  A    between atoms: O_3  and  C_4
REMARK                            x       y       z     vdW  Elec       q    Type
REMARK                         _______ _______ _______ _____ _____    ______ ____
ROOT
ATOM      1  C   UNL     1      -1.466  11.456  19.574  0.00  0.00    +0.000 A 
ATOM      2  C   UNL     1      -1.954  12.339  20.551  0.00  0.00    +0.000 A 
ATOM      3 CL   UNL     1      -0.937  13.091  21.735  0.00  0.00    +0.000 Cl
ATOM      4  C   UNL     1      -3.280  12.735  20.523  0.00  0.00    +0.000 A 
ATOM      5  C   UNL     1      -4.102  12.334  19.473  0.00  0.00    +0.000 A 
ATOM      6 CL   UNL     1      -5.748  12.874  19.537  0.00  0.00    +0.000 Cl
ATOM      7  C   UNL     1      -3.599  11.576  18.387  0.00  0.00    +0.000 A 
ATOM      8  C   UNL     1      -4.360  11.300  17.228  0.00  0.00    +0.000 A 
ATOM      9  C   UNL     1      -3.818  10.624  16.136  0.00  0.00    +0.000 A 
ATOM     10  C   UNL     1      -2.513  10.157  16.198  0.00  0.00    +0.000 A 
ATOM     11  C   UNL     1      -1.748  10.378  17.347  0.00  0.00    +0.000 A 
ATOM     12  C   UNL     1      -2.254  11.112  18.445  0.00  0.00    +0.000 A 
ENDROOT
BRANCH   1  13
ATOM     13  O   UNL     1      -0.123  11.030  19.610  0.00  0.00    +0.000 OA
BRANCH  13  15
ATOM     14  O   UNL     1      -0.433   9.579  21.386  0.00  0.00    +0.000 OA
ATOM     15  C   UNL     1       0.133   9.862  20.338  0.00  0.00    +0.000 C 
ATOM     16  N   UNL     1       1.147   9.106  19.761  0.00  0.00    +0.000 N 
ATOM     17  C   UNL     1       1.857   9.526  18.561  0.00  0.00    +0.000 C 
ATOM     18  C   UNL     1       2.098   8.335  17.643  0.00  0.00    +0.000 C 
ATOM     19  C   UNL     1       2.759   7.166  18.370  0.00  0.00    +0.000 C 
ATOM     20  C   UNL     1       2.057   6.828  19.690  0.00  0.00    +0.000 C 
ATOM     21  C   UNL     1       1.809   8.068  20.541  0.00  0.00    +0.000 C 
ENDBRANCH  13  15
ENDBRANCH   1  13
TORSDOF 2
ENDMDL
MODEL 6
REMARK VINA RESULT:      -6.6      2.946      6.554
REMARK  Name = 
REMARK  2 active torsions:
REMARK  status: ('A' for Active; 'I' for Inactive)
REMARK    1  A    between atoms: C_2  and  O_3
REMARK    2  A    between atoms: O_3  and  C_4
REMARK                            x       y       z     vdW  Elec       q    Type
REMARK                         _______ _______ _______ _____ _____    ______ ____
ROOT
ATOM      1  C   UNL     1       3.201   3.613  17.962  0.00  0.00    +0.000 A 
ATOM      2  C   UNL     1       3.200   2.349  18.573  0.00  0.00    +0.000 A 
ATOM      3 CL   UNL     1       4.103   1.004  17.959  0.00  0.00    +0.000 Cl
ATOM      4  C   UNL     1       2.548   2.167  19.780  0.00  0.00    +0.000 A 
ATOM      5  C   UNL     1       1.980   3.257  20.433  0.00  0.00    +0.000 A 
ATOM      6 CL   UNL     1       1.179   2.921  21.934  0.00  0.00    +0.000 Cl
ATOM      7  C   UNL     1       2.105   4.573  19.924  0.00  0.00    +0.000 A 
ATOM      8  C   UNL     1       1.691   5.716  20.645  0.00  0.00    +0.000 A 
ATOM      9  C   UNL     1       1.899   7.006  20.160  0.00  0.00    +0.000 A 
ATOM     10  C   UNL     1       2.478   7.185  18.912  0.00  0.00    +0.000 A 
ATOM     11  C   UNL     1       2.861   6.073  18.156  0.00  0.00    +0.000 A 
ATOM     12  C   UNL     1       2.715   4.755  18.650  0.00  0.00    +0.000 A 
ENDROOT
BRANCH   1  13
ATOM     13  O   UNL     1       3.841   3.801  16.720  0.00  0.00    +0.000 OA
BRANCH  13  15
ATOM     14  O   UNL     1       5.803   4.358  17.814  0.00  0.00    +0.000 OA
ATOM     15  C   UNL     1       5.176   4.218  16.772  0.00  0.00    +0.000 C 
ATOM     16  N   UNL     1       5.673   4.516  15.508  0.00  0.00    +0.000 N 
ATOM     17  C   UNL     1       4.864   4.423  14.301  0.00  0.00    +0.000 C 
ATOM     18  C   UNL     1       5.680   3.833  13.159  0.00  0.00    +0.000 C 
ATOM     19  C   UNL     1       7.005   4.565  12.954  0.00  0.00    +0.000 C 
ATOM     20  C   UNL     1       7.776   4.751  14.266  0.00  0.00    +0.000 C 
ATOM     21  C   UNL     1       6.892   5.304  15.377  0.00  0.00    +0.000 C 
ENDBRANCH  13  15
ENDBRANCH   1  13
TORSDOF 2
ENDMDL
MODEL 7
REMARK VINA RESULT:      -6.5      3.368      6.837
REMARK  Name = 
REMARK  2 active torsions:
REMARK  status: ('A' for Active; 'I' for Inactive)
REMARK    1  A    between atoms: C_2  and  O_3
REMARK    2  A    between atoms: O_3  and  C_4
REMARK                            x       y       z     vdW  Elec       q    Type
REMARK                         _______ _______ _______ _____ _____    ______ ____
ROOT
ATOM      1  C   UNL     1       4.220   5.038  18.642  0.00  0.00    +0.000 A 
ATOM      2  C   UNL     1       3.866   6.333  18.231  0.00  0.00    +0.000 A 
ATOM      3 CL   UNL     1       4.444   7.047  16.763  0.00  0.00    +0.000 Cl
ATOM      4  C   UNL     1       2.929   7.053  18.951  0.00  0.00    +0.000 A 
ATOM      5  C   UNL     1       2.269   6.457  20.022  0.00  0.00    +0.000 A 
ATOM      6 CL   UNL     1       1.121   7.447  20.863  0.00  0.00    +0.000 Cl
ATOM      7  C   UNL     1       2.484   5.098  20.361  0.00  0.00    +0.000 A 
ATOM      8  C   UNL     1       1.709   4.418  21.328  0.00  0.00    +0.000 A 
ATOM      9  C   UNL     1       1.884   3.060  21.587  0.00  0.00    +0.000 A 
ATOM     10  C   UNL     1       2.879   2.357  20.923  0.00  0.00    +0.000 A 
ATOM     11  C   UNL     1       3.691   3.012  19.991  0.00  0.00    +0.000 A 
ATOM     12  C   UNL     1       3.495   4.376  19.667  0.00  0.00    +0.000 A 
ENDROOT
BRANCH   1  13
ATOM     13  O   UNL     1       5.192   4.307  17.929  0.00  0.00    +0.000 OA
BRANCH  13  15
ATOM     14  O   UNL     1       3.731   3.199  16.517  0.00  0.00    +0.000 OA
ATOM     15  C   UNL     1       4.789   3.790  16.692  0.00  0.00    +0.000 C 
ATOM     16  N   UNL     1       5.761   3.971  15.715  0.00  0.00    +0.000 N 
ATOM     17  C   UNL     1       7.046   4.599  15.989  0.00  0.00    +0.000 C 
ATOM     18  C   UNL     1       7.443   5.518  14.842  0.00  0.00    +0.000 C 
ATOM     19  C   UNL     1       7.380   4.815  13.487  0.00  0.00    +0.000 C 
ATOM     20  C   UNL     1       6.061   4.062  13.281  0.00  0.00    +0.000 C 
ATOM     21  C   UNL     1       5.702   3.195  14.483  0.00  0.00    +0.000 C 
ENDBRANCH  13  15
ENDBRANCH   1  13
TORSDOF 2
ENDMDL
MODEL 8
REMARK VINA RESULT:      -6.5      2.305      6.985
REMARK  Name = 
REMARK  2 active torsions:
REMARK  status: ('A' for Active; 'I' for Inactive)
REMARK    1  A    between atoms: C_2  and  O_3
REMARK    2  A    between atoms: O_3  and  C_4
REMARK                            x       y       z     vdW  Elec       q    Type
REMARK                         _______ _______ _______ _____ _____    ______ ____
ROOT
ATOM      1  C   UNL     1       1.694   8.581  19.970  0.00  0.00    +0.000 A 
ATOM      2  C   UNL     1       1.542   8.885  18.608  0.00  0.00    +0.000 A 
ATOM      3 CL   UNL     1       2.149   7.869  17.342  0.00  0.00    +0.000 Cl
ATOM      4  C   UNL     1       0.783   9.977  18.225  0.00  0.00    +0.000 A 
ATOM      5  C   UNL     1       0.093  10.713  19.184  0.00  0.00    +0.000 A 
ATOM      6 CL   UNL     1      -0.820  12.067  18.602  0.00  0.00    +0.000 Cl
ATOM      7  C   UNL     1       0.094  10.335  20.550  0.00  0.00    +0.000 A 
ATOM      8  C   UNL     1      -0.730  10.956  21.517  0.00  0.00    +0.000 A 
ATOM      9  C   UNL     1      -0.773  10.513  22.838  0.00  0.00    +0.000 A 
ATOM     10  C   UNL     1       0.049   9.471  23.240  0.00  0.00    +0.000 A 
ATOM     11  C   UNL     1       0.905   8.863  22.316  0.00  0.00    +0.000 A 
ATOM     12  C   UNL     1       0.926   9.254  20.956  0.00  0.00    +0.000 A 
ENDROOT
BRANCH   1  13
ATOM     13  O   UNL     1       2.486   7.485  20.369  0.00  0.00    +0.000 OA
BRANCH  13  15
ATOM     14  O   UNL     1       0.799   5.932  20.689  0.00  0.00    +0.000 OA
ATOM     15  C   UNL     1       1.899   6.221  20.236  0.00  0.00    +0.000 C 
ATOM     16  N   UNL     1       2.744   5.326  19.590  0.00  0.00    +0.000 N 
ATOM     17  C   UNL     1       4.084   5.687  19.147  0.00  0.00    +0.000 C 
ATOM     18  C   UNL     1       4.374   5.076  17.783  0.00  0.00    +0.000 C 
ATOM     19  C   UNL     1       4.101   3.574  17.749  0.00  0.00    +0.000 C 
ATOM     20  C   UNL     1       2.730   3.218  18.334  0.00  0.00    +0.000 C 
ATOM     21  C   UNL     1       2.486   3.894  19.678  0.00  0.00    +0.000 C 
ENDBRANCH  13  15
ENDBRANCH   1  13
TORSDOF 2
ENDMDL
MODEL 9
REMARK VINA RESULT:      -6.5      7.154      9.155
REMARK  Name = 
REMARK  2 active torsions:
REMARK  status: ('A' for Active; 'I' for Inactive)
REMARK    1  A    between atoms: C_2  and  O_3
REMARK    2  A    between atoms: O_3  and  C_4
REMARK                            x       y       z     vdW  Elec       q    Type
REMARK                         _______ _______ _______ _____ _____    ______ ____
ROOT
ATOM      1  C   UNL     1      -4.474  12.313  18.923  0.00  0.00    +0.000 A 
ATOM      2  C   UNL     1      -5.254  12.102  17.775  0.00  0.00    +0.000 A 
ATOM      3 CL   UNL     1      -6.723  12.965  17.462  0.00  0.00    +0.000 Cl
ATOM      4  C   UNL     1      -4.799  11.257  16.777  0.00  0.00    +0.000 A 
ATOM      5  C   UNL     1      -3.528  10.696  16.869  0.00  0.00    +0.000 A 
ATOM      6 CL   UNL     1      -3.058   9.645  15.573  0.00  0.00    +0.000 Cl
ATOM      7  C   UNL     1      -2.652  11.017  17.935  0.00  0.00    +0.000 A 
ATOM      8  C   UNL     1      -1.301  10.601  17.968  0.00  0.00    +0.000 A 
ATOM      9  C   UNL     1      -0.435  10.998  18.985  0.00  0.00    +0.000 A 
ATOM     10  C   UNL     1      -0.913  11.778  20.028  0.00  0.00    +0.000 A 
ATOM     11  C   UNL     1      -2.255  12.171  20.046  0.00  0.00    +0.000 A 
ATOM     12  C   UNL     1      -3.141  11.831  18.996  0.00  0.00    +0.000 A 
ENDROOT
BRANCH   1  13
ATOM     13  O   UNL     1      -4.941  13.153  19.955  0.00  0.00    +0.000 OA
BRANCH  13  15
ATOM     14  O   UNL     1      -6.260  11.602  21.054  0.00  0.00    +0.000 OA
ATOM     15  C   UNL     1      -5.440  12.509  21.093  0.00  0.00    +0.000 C 
ATOM     16  N   UNL     1      -4.941  13.071  22.263  0.00  0.00    +0.000 N 
ATOM     17  C   UNL     1      -4.035  14.211  22.266  0.00  0.00    +0.000 C 
ATOM     18  C   UNL     1      -2.955  14.028  23.324  0.00  0.00    +0.000 C 
ATOM     19  C   UNL     1      -3.539  13.704  24.698  0.00  0.00    +0.000 C 
ATOM     20  C   UNL     1      -4.578  12.580  24.640  0.00  0.00    +0.000 C 
ATOM     21  C   UNL     1      -5.603  12.803  23.533  0.00  0.00    +0.000 C 
ENDBRANCH  13  15
ENDBRANCH   1  13
TORSDOF 2
ENDMDL
