MODEL 1
REMARK VINA RESULT:      -7.9      0.000      0.000
REMARK  Name = 
REMARK  8 active torsions:
REMARK  status: ('A' for Active; 'I' for Inactive)
REMARK    1  A    between atoms: C_2  and  O_3
REMARK    2  A    between atoms: C_2  and  C_4
REMARK    3  A    between atoms: C_4  and  N_5
REMARK    4  A    between atoms: C_6  and  C_8
REMARK    5  A    between atoms: C_11  and  C_12
REMARK    6  A    between atoms: N_14  and  C_15
REMARK    7  A    between atoms: C_15  and  C_16
REMARK    8  A    between atoms: C_27  and  O_28
REMARK                            x       y       z     vdW  Elec       q    Type
REMARK                         _______ _______ _______ _____ _____    ______ ____
ROOT
ATOM      1  C   UNK A   1       9.371  12.239  18.839  0.00  0.00    +0.000 A 
ATOM      2  N   UNK A   1       8.593  12.045  17.729  0.00  0.00    +0.000 NA
ATOM      3  C   UNK A   0       8.197  10.768  17.480  0.00  0.00    +0.000 A 
ATOM      4  C   UNK A   1       8.540   9.668  18.265  0.00  0.00    +0.000 A 
ATOM      5  C   UNK A   1       9.341   9.901  19.387  0.00  0.00    +0.000 A 
ATOM      6  C   UNK A   1       9.760  11.198  19.687  0.00  0.00    +0.000 A 
ENDROOT
BRANCH   4   7
ATOM      7  C   UNK A   1       8.095   8.337  17.916  0.00  0.00    +0.000 A 
ATOM      8  C   UNK A   1       8.101   7.230  18.736  0.00  0.00    +0.000 A 
ATOM      9  N   UNK A   1       7.594   6.234  17.950  0.00  0.00    +0.000 N 
ATOM     10  N   UNK A   1       7.276   6.698  16.726  0.00  0.00    +0.000 NA
ATOM     11  N   UNK A   1       7.576   7.992  16.698  0.00  0.00    +0.000 NA
BRANCH   9  12
ATOM     12  C   UNK A   1       7.230   4.885  18.344  0.00  0.00    +0.000 C 
BRANCH  12  13
ATOM     13  C   UNK A   1       5.749   4.616  18.217  0.00  0.00    +0.000 A 
ATOM     14  C   UNK A   1       4.903   4.959  19.290  0.00  0.00    +0.000 A 
ATOM     15  C   UNK A   1       3.536   4.673  19.244  0.00  0.00    +0.000 A 
ATOM     16  C   UNK A   1       2.995   4.052  18.123  0.00  0.00    +0.000 A 
ATOM     17 CL   UNK A   1       1.317   3.675  18.079  0.00  0.00    +0.000 Cl
ATOM     18  C   UNK A   1       3.805   3.730  17.039  0.00  0.00    +0.000 A 
ATOM     19  C   UNK A   1       5.174   4.012  17.086  0.00  0.00    +0.000 A 
ATOM     20 CL   UNK A   1       6.116   3.568  15.708  0.00  0.00    +0.000 Cl
ENDBRANCH  12  13
ENDBRANCH   9  12
ENDBRANCH   4   7
BRANCH   1  22
ATOM     21  N   UNK A   1      10.553  14.248  18.090  0.00  0.00    +0.000 N 
ATOM     22  C   UNK A   1       9.766  13.674  19.089  0.00  0.00    +0.000 C 
ATOM     23  O   UNK A   1       9.446  14.299  20.091  0.00  0.00    +0.000 OA
ATOM     24  H   UNK A   1      11.039  13.558  17.520  0.00  0.00    +0.000 HD
BRANCH  21  25
ATOM     25  C   UNK A   1      11.145  15.555  18.364  0.00  0.00    +0.000 C 
BRANCH  25  27
ATOM     26  O   UNK A   1      11.425  17.684  17.232  0.00  0.00    +0.000 OA
ATOM     27  C   UNK A   1      11.196  16.487  17.164  0.00  0.00    +0.000 C 
BRANCH  27  28
ATOM     28  O   UNK A   1      10.852  15.879  15.999  0.00  0.00    +0.000 OA
ATOM     29  H   UNK A   1      10.336  15.063  16.178  0.00  0.00    +0.000 HD
ENDBRANCH  27  28
ENDBRANCH  25  27
ENDBRANCH  21  25
ENDBRANCH   1  22
BRANCH   6  30
ATOM     30  O   UNK A   1      10.541  11.400  20.786  0.00  0.00    +0.000 OA
ATOM     31  H   UNK A   1      10.175  12.103  21.347  0.00  0.00    +0.000 HD
ENDBRANCH   6  30
TORSDOF 8
ENDMDL
MODEL 2
REMARK VINA RESULT:      -7.7      7.838     10.360
REMARK  Name = 
REMARK  8 active torsions:
REMARK  status: ('A' for Active; 'I' for Inactive)
REMARK    1  A    between atoms: C_2  and  O_3
REMARK    2  A    between atoms: C_2  and  C_4
REMARK    3  A    between atoms: C_4  and  N_5
REMARK    4  A    between atoms: C_6  and  C_8
REMARK    5  A    between atoms: C_11  and  C_12
REMARK    6  A    between atoms: N_14  and  C_15
REMARK    7  A    between atoms: C_15  and  C_16
REMARK    8  A    between atoms: C_27  and  O_28
REMARK                            x       y       z     vdW  Elec       q    Type
REMARK                         _______ _______ _______ _____ _____    ______ ____
ROOT
ATOM      1  C   UNK A   1       3.521   6.414  18.317  0.00  0.00    +0.000 A 
ATOM      2  N   UNK A   1       3.324   7.479  17.479  0.00  0.00    +0.000 NA
ATOM      3  C   UNK A   0       2.480   8.450  17.919  0.00  0.00    +0.000 A 
ATOM      4  C   UNK A   1       1.812   8.421  19.141  0.00  0.00    +0.000 A 
ATOM      5  C   UNK A   1       2.032   7.316  19.970  0.00  0.00    +0.000 A 
ATOM      6  C   UNK A   1       2.898   6.301  19.563  0.00  0.00    +0.000 A 
ENDROOT
BRANCH   4   7
ATOM      7  C   UNK A   1       0.913   9.487  19.525  0.00  0.00    +0.000 A 
ATOM      8  C   UNK A   1       0.583  10.592  18.771  0.00  0.00    +0.000 A 
ATOM      9  N   UNK A   1      -0.283  11.287  19.566  0.00  0.00    +0.000 N 
ATOM     10  N   UNK A   1      -0.493  10.645  20.731  0.00  0.00    +0.000 NA
ATOM     11  N   UNK A   1       0.235   9.534  20.713  0.00  0.00    +0.000 NA
BRANCH   9  12
ATOM     12  C   UNK A   1      -1.068  12.458  19.218  0.00  0.00    +0.000 C 
BRANCH  12  13
ATOM     13  C   UNK A   1      -2.531  12.144  19.013  0.00  0.00    +0.000 A 
ATOM     14  C   UNK A   1      -2.919  11.439  17.856  0.00  0.00    +0.000 A 
ATOM     15  C   UNK A   1      -4.265  11.180  17.592  0.00  0.00    +0.000 A 
ATOM     16  C   UNK A   1      -5.242  11.609  18.485  0.00  0.00    +0.000 A 
ATOM     17 CL   UNK A   1      -6.903  11.314  18.146  0.00  0.00    +0.000 Cl
ATOM     18  C   UNK A   1      -4.883  12.281  19.649  0.00  0.00    +0.000 A 
ATOM     19  C   UNK A   1      -3.535  12.546  19.912  0.00  0.00    +0.000 A 
ATOM     20 CL   UNK A   1      -3.169  13.399  21.369  0.00  0.00    +0.000 Cl
ENDBRANCH  12  13
ENDBRANCH   9  12
ENDBRANCH   4   7
BRANCH   1  22
ATOM     21  N   UNK A   1       4.903   5.568  16.482  0.00  0.00    +0.000 N 
ATOM     22  C   UNK A   1       4.482   5.373  17.797  0.00  0.00    +0.000 C 
ATOM     23  O   UNK A   1       4.862   4.413  18.456  0.00  0.00    +0.000 OA
ATOM     24  H   UNK A   1       4.269   6.155  15.943  0.00  0.00    +0.000 HD
BRANCH  21  25
ATOM     25  C   UNK A   1       5.662   4.493  15.848  0.00  0.00    +0.000 C 
BRANCH  25  27
ATOM     26  O   UNK A   1       7.898   4.419  16.788  0.00  0.00    +0.000 OA
ATOM     27  C   UNK A   1       7.168   4.696  15.850  0.00  0.00    +0.000 C 
BRANCH  27  28
ATOM     28  O   UNK A   1       7.625   5.325  14.736  0.00  0.00    +0.000 OA
ATOM     29  H   UNK A   1       7.116   6.149  14.575  0.00  0.00    +0.000 HD
ENDBRANCH  27  28
ENDBRANCH  25  27
ENDBRANCH  21  25
ENDBRANCH   1  22
BRANCH   6  30
ATOM     30  O   UNK A   1       3.096   5.234  20.388  0.00  0.00    +0.000 OA
ATOM     31  H   UNK A   1       3.133   4.406  19.882  0.00  0.00    +0.000 HD
ENDBRANCH   6  30
TORSDOF 8
ENDMDL
MODEL 3
REMARK VINA RESULT:      -7.7      7.156      8.002
REMARK  Name = 
REMARK  8 active torsions:
REMARK  status: ('A' for Active; 'I' for Inactive)
REMARK    1  A    between atoms: C_2  and  O_3
REMARK    2  A    between atoms: C_2  and  C_4
REMARK    3  A    between atoms: C_4  and  N_5
REMARK    4  A    between atoms: C_6  and  C_8
REMARK    5  A    between atoms: C_11  and  C_12
REMARK    6  A    between atoms: N_14  and  C_15
REMARK    7  A    between atoms: C_15  and  C_16
REMARK    8  A    between atoms: C_27  and  O_28
REMARK                            x       y       z     vdW  Elec       q    Type
REMARK                         _______ _______ _______ _____ _____    ______ ____
ROOT
ATOM      1  C   UNK A   1       1.144   9.292  19.722  0.00  0.00    +0.000 A 
ATOM      2  N   UNK A   1       1.282   8.369  20.723  0.00  0.00    +0.000 NA
ATOM      3  C   UNK A   0       1.977   7.241  20.418  0.00  0.00    +0.000 A 
ATOM      4  C   UNK A   1       2.537   6.972  19.170  0.00  0.00    +0.000 A 
ATOM      5  C   UNK A   1       2.372   7.935  18.168  0.00  0.00    +0.000 A 
ATOM      6  C   UNK A   1       1.675   9.112  18.441  0.00  0.00    +0.000 A 
ENDROOT
BRANCH   4   7
ATOM      7  C   UNK A   1       3.244   5.736  18.922  0.00  0.00    +0.000 A 
ATOM      8  C   UNK A   1       3.452   5.142  17.696  0.00  0.00    +0.000 A 
ATOM      9  N   UNK A   1       4.157   4.010  17.992  0.00  0.00    +0.000 N 
ATOM     10  N   UNK A   1       4.388   3.917  19.316  0.00  0.00    +0.000 NA
ATOM     11  N   UNK A   1       3.834   4.976  19.895  0.00  0.00    +0.000 NA
BRANCH   9  12
ATOM     12  C   UNK A   1       4.781   3.080  17.068  0.00  0.00    +0.000 C 
BRANCH  12  13
ATOM     13  C   UNK A   1       5.610   3.771  16.011  0.00  0.00    +0.000 A 
ATOM     14  C   UNK A   1       5.178   3.721  14.670  0.00  0.00    +0.000 A 
ATOM     15  C   UNK A   1       5.943   4.292  13.650  0.00  0.00    +0.000 A 
ATOM     16  C   UNK A   1       7.141   4.929  13.955  0.00  0.00    +0.000 A 
ATOM     17 CL   UNK A   1       8.096   5.607  12.695  0.00  0.00    +0.000 Cl
ATOM     18  C   UNK A   1       7.574   5.016  15.274  0.00  0.00    +0.000 A 
ATOM     19  C   UNK A   1       6.812   4.442  16.296  0.00  0.00    +0.000 A 
ATOM     20 CL   UNK A   1       7.423   4.578  17.906  0.00  0.00    +0.000 Cl
ENDBRANCH  12  13
ENDBRANCH   9  12
ENDBRANCH   4   7
BRANCH   1  22
ATOM     21  N   UNK A   1      -0.732  10.815  19.326  0.00  0.00    +0.000 N 
ATOM     22  C   UNK A   1       0.386  10.537  20.113  0.00  0.00    +0.000 C 
ATOM     23  O   UNK A   1       0.719  11.272  21.034  0.00  0.00    +0.000 OA
ATOM     24  H   UNK A   1      -0.696  10.369  18.411  0.00  0.00    +0.000 HD
BRANCH  21  25
ATOM     25  C   UNK A   1      -1.385  12.108  19.511  0.00  0.00    +0.000 C 
BRANCH  25  27
ATOM     26  O   UNK A   1      -0.481  14.283  18.927  0.00  0.00    +0.000 OA
ATOM     27  C   UNK A   1      -0.906  13.198  18.566  0.00  0.00    +0.000 C 
BRANCH  27  28
ATOM     28  O   UNK A   1      -1.095  12.892  17.256  0.00  0.00    +0.000 OA
ATOM     29  H   UNK A   1      -1.648  12.085  17.170  0.00  0.00    +0.000 HD
ENDBRANCH  27  28
ENDBRANCH  25  27
ENDBRANCH  21  25
ENDBRANCH   1  22
BRANCH   6  30
ATOM     30  O   UNK A   1       1.527  10.035  17.449  0.00  0.00    +0.000 OA
ATOM     31  H   UNK A   1       2.241  10.692  17.478  0.00  0.00    +0.000 HD
ENDBRANCH   6  30
TORSDOF 8
ENDMDL
MODEL 4
REMARK VINA RESULT:      -7.6      7.728     10.210
REMARK  Name = 
REMARK  8 active torsions:
REMARK  status: ('A' for Active; 'I' for Inactive)
REMARK    1  A    between atoms: C_2  and  O_3
REMARK    2  A    between atoms: C_2  and  C_4
REMARK    3  A    between atoms: C_4  and  N_5
REMARK    4  A    between atoms: C_6  and  C_8
REMARK    5  A    between atoms: C_11  and  C_12
REMARK    6  A    between atoms: N_14  and  C_15
REMARK    7  A    between atoms: C_15  and  C_16
REMARK    8  A    between atoms: C_27  and  O_28
REMARK                            x       y       z     vdW  Elec       q    Type
REMARK                         _______ _______ _______ _____ _____    ______ ____
ROOT
ATOM      1  C   UNK A   1       3.750   6.158  18.372  0.00  0.00    +0.000 A 
ATOM      2  N   UNK A   1       3.616   7.204  17.499  0.00  0.00    +0.000 NA
ATOM      3  C   UNK A   0       2.755   8.192  17.861  0.00  0.00    +0.000 A 
ATOM      4  C   UNK A   1       2.009   8.196  19.038  0.00  0.00    +0.000 A 
ATOM      5  C   UNK A   1       2.166   7.109  19.905  0.00  0.00    +0.000 A 
ATOM      6  C   UNK A   1       3.047   6.079  19.578  0.00  0.00    +0.000 A 
ENDROOT
BRANCH   4   7
ATOM      7  C   UNK A   1       1.097   9.277  19.338  0.00  0.00    +0.000 A 
ATOM      8  C   UNK A   1       0.885  10.406  18.578  0.00  0.00    +0.000 A 
ATOM      9  N   UNK A   1      -0.053  11.107  19.281  0.00  0.00    +0.000 N 
ATOM     10  N   UNK A   1      -0.414  10.447  20.398  0.00  0.00    +0.000 NA
ATOM     11  N   UNK A   1       0.285   9.318  20.440  0.00  0.00    +0.000 NA
BRANCH   9  12
ATOM     12  C   UNK A   1      -0.763  12.305  18.871  0.00  0.00    +0.000 C 
BRANCH  12  13
ATOM     13  C   UNK A   1      -2.264  12.146  18.929  0.00  0.00    +0.000 A 
ATOM     14  C   UNK A   1      -2.970  12.748  19.991  0.00  0.00    +0.000 A 
ATOM     15  C   UNK A   1      -4.350  12.577  20.121  0.00  0.00    +0.000 A 
ATOM     16  C   UNK A   1      -5.046  11.815  19.188  0.00  0.00    +0.000 A 
ATOM     17 CL   UNK A   1      -6.741  11.582  19.365  0.00  0.00    +0.000 Cl
ATOM     18  C   UNK A   1      -4.376  11.235  18.116  0.00  0.00    +0.000 A 
ATOM     19  C   UNK A   1      -2.994  11.402  17.986  0.00  0.00    +0.000 A 
ATOM     20 CL   UNK A   1      -2.231  10.639  16.637  0.00  0.00    +0.000 Cl
ENDBRANCH  12  13
ENDBRANCH   9  12
ENDBRANCH   4   7
BRANCH   1  22
ATOM     21  N   UNK A   1       5.069   5.127  16.586  0.00  0.00    +0.000 N 
ATOM     22  C   UNK A   1       4.733   5.098  17.939  0.00  0.00    +0.000 C 
ATOM     23  O   UNK A   1       5.199   4.257  18.697  0.00  0.00    +0.000 OA
ATOM     24  H   UNK A   1       4.376   5.605  16.013  0.00  0.00    +0.000 HD
BRANCH  21  25
ATOM     25  C   UNK A   1       5.846   4.008  16.057  0.00  0.00    +0.000 C 
BRANCH  25  27
ATOM     26  O   UNK A   1       7.443   5.292  14.756  0.00  0.00    +0.000 OA
ATOM     27  C   UNK A   1       6.680   4.343  14.831  0.00  0.00    +0.000 C 
BRANCH  27  28
ATOM     28  O   UNK A   1       6.416   3.538  13.769  0.00  0.00    +0.000 OA
ATOM     29  H   UNK A   1       6.937   2.708  13.830  0.00  0.00    +0.000 HD
ENDBRANCH  27  28
ENDBRANCH  25  27
ENDBRANCH  21  25
ENDBRANCH   1  22
BRANCH   6  30
ATOM     30  O   UNK A   1       3.183   5.030  20.438  0.00  0.00    +0.000 OA
ATOM     31  H   UNK A   1       4.049   4.605  20.333  0.00  0.00    +0.000 HD
ENDBRANCH   6  30
TORSDOF 8
ENDMDL
MODEL 5
REMARK VINA RESULT:      -7.5      1.453      1.734
REMARK  Name = 
REMARK  8 active torsions:
REMARK  status: ('A' for Active; 'I' for Inactive)
REMARK    1  A    between atoms: C_2  and  O_3
REMARK    2  A    between atoms: C_2  and  C_4
REMARK    3  A    between atoms: C_4  and  N_5
REMARK    4  A    between atoms: C_6  and  C_8
REMARK    5  A    between atoms: C_11  and  C_12
REMARK    6  A    between atoms: N_14  and  C_15
REMARK    7  A    between atoms: C_15  and  C_16
REMARK    8  A    between atoms: C_27  and  O_28
REMARK                            x       y       z     vdW  Elec       q    Type
REMARK                         _______ _______ _______ _____ _____    ______ ____
ROOT
ATOM      1  C   UNK A   1       9.834  12.330  19.016  0.00  0.00    +0.000 A 
ATOM      2  N   UNK A   1       9.133  12.199  17.847  0.00  0.00    +0.000 NA
ATOM      3  C   UNK A   0       8.555  10.990  17.618  0.00  0.00    +0.000 A 
ATOM      4  C   UNK A   1       8.641   9.898  18.479  0.00  0.00    +0.000 A 
ATOM      5  C   UNK A   1       9.369  10.065  19.662  0.00  0.00    +0.000 A 
ATOM      6  C   UNK A   1       9.970  11.292  19.943  0.00  0.00    +0.000 A 
ENDROOT
BRANCH   4   7
ATOM      7  C   UNK A   1       8.013   8.637  18.149  0.00  0.00    +0.000 A 
ATOM      8  C   UNK A   1       6.969   8.446  17.271  0.00  0.00    +0.000 A 
ATOM      9  N   UNK A   1       6.744   7.100  17.312  0.00  0.00    +0.000 N 
ATOM     10  N   UNK A   1       7.607   6.491  18.148  0.00  0.00    +0.000 NA
ATOM     11  N   UNK A   1       8.394   7.428  18.664  0.00  0.00    +0.000 NA
BRANCH   9  12
ATOM     12  C   UNK A   1       5.858   6.317  16.469  0.00  0.00    +0.000 C 
BRANCH  12  13
ATOM     13  C   UNK A   1       4.801   5.578  17.254  0.00  0.00    +0.000 A 
ATOM     14  C   UNK A   1       4.949   4.191  17.452  0.00  0.00    +0.000 A 
ATOM     15  C   UNK A   1       3.967   3.454  18.118  0.00  0.00    +0.000 A 
ATOM     16  C   UNK A   1       2.832   4.092  18.606  0.00  0.00    +0.000 A 
ATOM     17 CL   UNK A   1       1.610   3.179  19.402  0.00  0.00    +0.000 Cl
ATOM     18  C   UNK A   1       2.677   5.466  18.449  0.00  0.00    +0.000 A 
ATOM     19  C   UNK A   1       3.656   6.204  17.778  0.00  0.00    +0.000 A 
ATOM     20 CL   UNK A   1       3.385   7.902  17.609  0.00  0.00    +0.000 Cl
ENDBRANCH  12  13
ENDBRANCH   9  12
ENDBRANCH   4   7
BRANCH   1  22
ATOM     21  N   UNK A   1      10.072  14.658  18.299  0.00  0.00    +0.000 N 
ATOM     22  C   UNK A   1      10.438  13.695  19.239  0.00  0.00    +0.000 C 
ATOM     23  O   UNK A   1      11.206  13.954  20.156  0.00  0.00    +0.000 OA
ATOM     24  H   UNK A   1       9.747  14.256  17.421  0.00  0.00    +0.000 HD
BRANCH  21  25
ATOM     25  C   UNK A   1      10.780  15.936  18.329  0.00  0.00    +0.000 C 
BRANCH  25  27
ATOM     26  O   UNK A   1      10.468  17.940  16.996  0.00  0.00    +0.000 OA
ATOM     27  C   UNK A   1      10.685  16.740  17.042  0.00  0.00    +0.000 C 
BRANCH  27  28
ATOM     28  O   UNK A   1      10.758  15.972  15.925  0.00  0.00    +0.000 OA
ATOM     29  H   UNK A   1      11.692  15.739  15.730  0.00  0.00    +0.000 HD
ENDBRANCH  27  28
ENDBRANCH  25  27
ENDBRANCH  21  25
ENDBRANCH   1  22
BRANCH   6  30
ATOM     30  O   UNK A   1      10.675  11.430  21.101  0.00  0.00    +0.000 OA
ATOM     31  H   UNK A   1      11.225  12.229  21.079  0.00  0.00    +0.000 HD
ENDBRANCH   6  30
TORSDOF 8
ENDMDL
MODEL 6
REMARK VINA RESULT:      -7.5      7.022      8.709
REMARK  Name = 
REMARK  8 active torsions:
REMARK  status: ('A' for Active; 'I' for Inactive)
REMARK    1  A    between atoms: C_2  and  O_3
REMARK    2  A    between atoms: C_2  and  C_4
REMARK    3  A    between atoms: C_4  and  N_5
REMARK    4  A    between atoms: C_6  and  C_8
REMARK    5  A    between atoms: C_11  and  C_12
REMARK    6  A    between atoms: N_14  and  C_15
REMARK    7  A    between atoms: C_15  and  C_16
REMARK    8  A    between atoms: C_27  and  O_28
REMARK                            x       y       z     vdW  Elec       q    Type
REMARK                         _______ _______ _______ _____ _____    ______ ____
ROOT
ATOM      1  C   UNK A   1       0.621  10.286  20.066  0.00  0.00    +0.000 A 
ATOM      2  N   UNK A   1       0.620   9.511  21.194  0.00  0.00    +0.000 NA
ATOM      3  C   UNK A   0       1.227   8.298  21.099  0.00  0.00    +0.000 A 
ATOM      4  C   UNK A   1       1.827   7.805  19.942  0.00  0.00    +0.000 A 
ATOM      5  C   UNK A   1       1.806   8.620  18.806  0.00  0.00    +0.000 A 
ATOM      6  C   UNK A   1       1.203   9.877  18.862  0.00  0.00    +0.000 A 
ENDROOT
BRANCH   4   7
ATOM      7  C   UNK A   1       2.433   6.491  19.919  0.00  0.00    +0.000 A 
ATOM      8  C   UNK A   1       3.562   6.121  19.222  0.00  0.00    +0.000 A 
ATOM      9  N   UNK A   1       3.717   4.798  19.522  0.00  0.00    +0.000 N 
ATOM     10  N   UNK A   1       2.756   4.378  20.367  0.00  0.00    +0.000 NA
ATOM     11  N   UNK A   1       1.964   5.414  20.620  0.00  0.00    +0.000 NA
BRANCH   9  12
ATOM     12  C   UNK A   1       4.833   3.931  19.186  0.00  0.00    +0.000 C 
BRANCH  12  13
ATOM     13  C   UNK A   1       5.456   4.268  17.852  0.00  0.00    +0.000 A 
ATOM     14  C   UNK A   1       4.817   3.832  16.675  0.00  0.00    +0.000 A 
ATOM     15  C   UNK A   1       5.388   4.065  15.421  0.00  0.00    +0.000 A 
ATOM     16  C   UNK A   1       6.596   4.748  15.326  0.00  0.00    +0.000 A 
ATOM     17 CL   UNK A   1       7.312   5.011  13.784  0.00  0.00    +0.000 Cl
ATOM     18  C   UNK A   1       7.231   5.215  16.472  0.00  0.00    +0.000 A 
ATOM     19  C   UNK A   1       6.664   4.977  17.727  0.00  0.00    +0.000 A 
ATOM     20 CL   UNK A   1       7.520   5.574  19.104  0.00  0.00    +0.000 Cl
ENDBRANCH  12  13
ENDBRANCH   9  12
ENDBRANCH   4   7
BRANCH   1  22
ATOM     21  N   UNK A   1      -1.354  11.587  20.696  0.00  0.00    +0.000 N 
ATOM     22  C   UNK A   1      -0.042  11.632  20.225  0.00  0.00    +0.000 C 
ATOM     23  O   UNK A   1       0.504  12.693  19.951  0.00  0.00    +0.000 OA
ATOM     24  H   UNK A   1      -1.803  10.686  20.541  0.00  0.00    +0.000 HD
BRANCH  21  25
ATOM     25  C   UNK A   1      -2.124  12.828  20.673  0.00  0.00    +0.000 C 
BRANCH  25  27
ATOM     26  O   UNK A   1      -4.548  12.763  20.784  0.00  0.00    +0.000 OA
ATOM     27  C   UNK A   1      -3.531  12.688  20.114  0.00  0.00    +0.000 C 
BRANCH  27  28
ATOM     28  O   UNK A   1      -3.553  12.360  18.796  0.00  0.00    +0.000 OA
ATOM     29  H   UNK A   1      -2.714  11.919  18.539  0.00  0.00    +0.000 HD
ENDBRANCH  27  28
ENDBRANCH  25  27
ENDBRANCH  21  25
ENDBRANCH   1  22
BRANCH   6  30
ATOM     30  O   UNK A   1       1.194  10.654  17.742  0.00  0.00    +0.000 OA
ATOM     31  H   UNK A   1       0.347  11.117  17.647  0.00  0.00    +0.000 HD
ENDBRANCH   6  30
TORSDOF 8
ENDMDL
MODEL 7
REMARK VINA RESULT:      -7.5      7.069      8.779
REMARK  Name = 
REMARK  8 active torsions:
REMARK  status: ('A' for Active; 'I' for Inactive)
REMARK    1  A    between atoms: C_2  and  O_3
REMARK    2  A    between atoms: C_2  and  C_4
REMARK    3  A    between atoms: C_4  and  N_5
REMARK    4  A    between atoms: C_6  and  C_8
REMARK    5  A    between atoms: C_11  and  C_12
REMARK    6  A    between atoms: N_14  and  C_15
REMARK    7  A    between atoms: C_15  and  C_16
REMARK    8  A    between atoms: C_27  and  O_28
REMARK                            x       y       z     vdW  Elec       q    Type
REMARK                         _______ _______ _______ _____ _____    ______ ____
ROOT
ATOM      1  C   UNK A   1       0.482  10.112  20.344  0.00  0.00    +0.000 A 
ATOM      2  N   UNK A   1       0.512   9.241  21.399  0.00  0.00    +0.000 NA
ATOM      3  C   UNK A   0       1.159   8.062  21.196  0.00  0.00    +0.000 A 
ATOM      4  C   UNK A   1       1.770   7.693  19.999  0.00  0.00    +0.000 A 
ATOM      5  C   UNK A   1       1.715   8.604  18.939  0.00  0.00    +0.000 A 
ATOM      6  C   UNK A   1       1.071   9.830  19.107  0.00  0.00    +0.000 A 
ENDROOT
BRANCH   4   7
ATOM      7  C   UNK A   1       2.418   6.408  19.859  0.00  0.00    +0.000 A 
ATOM      8  C   UNK A   1       3.655   6.171  19.301  0.00  0.00    +0.000 A 
ATOM      9  N   UNK A   1       3.809   4.817  19.402  0.00  0.00    +0.000 N 
ATOM     10  N   UNK A   1       2.744   4.253  20.002  0.00  0.00    +0.000 NA
ATOM     11  N   UNK A   1       1.885   5.224  20.291  0.00  0.00    +0.000 NA
BRANCH   9  12
ATOM     12  C   UNK A   1       4.995   4.030  19.112  0.00  0.00    +0.000 C 
BRANCH  12  13
ATOM     13  C   UNK A   1       5.583   4.334  17.755  0.00  0.00    +0.000 A 
ATOM     14  C   UNK A   1       4.898   3.896  16.604  0.00  0.00    +0.000 A 
ATOM     15  C   UNK A   1       5.434   4.099  15.331  0.00  0.00    +0.000 A 
ATOM     16  C   UNK A   1       6.654   4.752  15.187  0.00  0.00    +0.000 A 
ATOM     17 CL   UNK A   1       7.326   4.977  13.620  0.00  0.00    +0.000 Cl
ATOM     18  C   UNK A   1       7.335   5.219  16.306  0.00  0.00    +0.000 A 
ATOM     19  C   UNK A   1       6.802   5.013  17.582  0.00  0.00    +0.000 A 
ATOM     20 CL   UNK A   1       7.715   5.608  18.923  0.00  0.00    +0.000 Cl
ENDBRANCH  12  13
ENDBRANCH   9  12
ENDBRANCH   4   7
BRANCH   1  22
ATOM     21  N   UNK A   1      -0.393  11.714  21.975  0.00  0.00    +0.000 N 
ATOM     22  C   UNK A   1      -0.225  11.416  20.623  0.00  0.00    +0.000 C 
ATOM     23  O   UNK A   1      -0.643  12.161  19.745  0.00  0.00    +0.000 OA
ATOM     24  H   UNK A   1      -0.343  10.892  22.574  0.00  0.00    +0.000 HD
BRANCH  21  25
ATOM     25  C   UNK A   1      -1.250  12.847  22.316  0.00  0.00    +0.000 C 
BRANCH  25  27
ATOM     26  O   UNK A   1      -2.961  11.683  23.585  0.00  0.00    +0.000 OA
ATOM     27  C   UNK A   1      -2.672  12.469  22.698  0.00  0.00    +0.000 C 
BRANCH  27  28
ATOM     28  O   UNK A   1      -3.609  13.014  21.879  0.00  0.00    +0.000 OA
ATOM     29  H   UNK A   1      -4.471  13.084  22.342  0.00  0.00    +0.000 HD
ENDBRANCH  27  28
ENDBRANCH  25  27
ENDBRANCH  21  25
ENDBRANCH   1  22
BRANCH   6  30
ATOM     30  O   UNK A   1       1.030  10.702  18.060  0.00  0.00    +0.000 OA
ATOM     31  H   UNK A   1       1.918  10.848  17.696  0.00  0.00    +0.000 HD
ENDBRANCH   6  30
TORSDOF 8
ENDMDL
MODEL 8
REMARK VINA RESULT:      -7.5      6.946      7.737
REMARK  Name = 
REMARK  8 active torsions:
REMARK  status: ('A' for Active; 'I' for Inactive)
REMARK    1  A    between atoms: C_2  and  O_3
REMARK    2  A    between atoms: C_2  and  C_4
REMARK    3  A    between atoms: C_4  and  N_5
REMARK    4  A    between atoms: C_6  and  C_8
REMARK    5  A    between atoms: C_11  and  C_12
REMARK    6  A    between atoms: N_14  and  C_15
REMARK    7  A    between atoms: C_15  and  C_16
REMARK    8  A    between atoms: C_27  and  O_28
REMARK                            x       y       z     vdW  Elec       q    Type
REMARK                         _______ _______ _______ _____ _____    ______ ____
ROOT
ATOM      1  C   UNK A   1       1.195   9.728  19.561  0.00  0.00    +0.000 A 
ATOM      2  N   UNK A   1       1.154   8.813  20.578  0.00  0.00    +0.000 NA
ATOM      3  C   UNK A   0       1.758   7.618  20.344  0.00  0.00    +0.000 A 
ATOM      4  C   UNK A   1       2.393   7.274  19.153  0.00  0.00    +0.000 A 
ATOM      5  C   UNK A   1       2.412   8.231  18.133  0.00  0.00    +0.000 A 
ATOM      6  C   UNK A   1       1.813   9.475  18.333  0.00  0.00    +0.000 A 
ENDROOT
BRANCH   4   7
ATOM      7  C   UNK A   1       2.994   5.970  18.977  0.00  0.00    +0.000 A 
ATOM      8  C   UNK A   1       3.348   5.384  17.782  0.00  0.00    +0.000 A 
ATOM      9  N   UNK A   1       3.862   4.173  18.147  0.00  0.00    +0.000 N 
ATOM     10  N   UNK A   1       3.845   4.024  19.485  0.00  0.00    +0.000 NA
ATOM     11  N   UNK A   1       3.317   5.126  20.005  0.00  0.00    +0.000 NA
BRANCH   9  12
ATOM     12  C   UNK A   1       4.533   3.199  17.305  0.00  0.00    +0.000 C 
BRANCH  12  13
ATOM     13  C   UNK A   1       5.404   3.836  16.249  0.00  0.00    +0.000 A 
ATOM     14  C   UNK A   1       5.015   3.738  14.898  0.00  0.00    +0.000 A 
ATOM     15  C   UNK A   1       5.819   4.258  13.881  0.00  0.00    +0.000 A 
ATOM     16  C   UNK A   1       7.015   4.894  14.200  0.00  0.00    +0.000 A 
ATOM     17 CL   UNK A   1       8.019   5.509  12.945  0.00  0.00    +0.000 Cl
ATOM     18  C   UNK A   1       7.407   5.029  15.528  0.00  0.00    +0.000 A 
ATOM     19  C   UNK A   1       6.605   4.505  16.546  0.00  0.00    +0.000 A 
ATOM     20 CL   UNK A   1       7.165   4.698  18.168  0.00  0.00    +0.000 Cl
ENDBRANCH  12  13
ENDBRANCH   9  12
ENDBRANCH   4   7
BRANCH   1  22
ATOM     21  N   UNK A   1       0.604  11.437  21.212  0.00  0.00    +0.000 N 
ATOM     22  C   UNK A   1       0.532  11.048  19.874  0.00  0.00    +0.000 C 
ATOM     23  O   UNK A   1      -0.045  11.731  19.038  0.00  0.00    +0.000 OA
ATOM     24  H   UNK A   1       0.771  10.658  21.846  0.00  0.00    +0.000 HD
BRANCH  21  25
ATOM     25  C   UNK A   1      -0.193  12.590  21.625  0.00  0.00    +0.000 C 
BRANCH  25  27
ATOM     26  O   UNK A   1       1.101  14.479  22.430  0.00  0.00    +0.000 OA
ATOM     27  C   UNK A   1       0.524  13.926  21.509  0.00  0.00    +0.000 C 
BRANCH  27  28
ATOM     28  O   UNK A   1       0.372  14.511  20.292  0.00  0.00    +0.000 OA
ATOM     29  H   UNK A   1      -0.348  14.071  19.788  0.00  0.00    +0.000 HD
ENDBRANCH  27  28
ENDBRANCH  25  27
ENDBRANCH  21  25
ENDBRANCH   1  22
BRANCH   6  30
ATOM     30  O   UNK A   1       1.843  10.391  17.324  0.00  0.00    +0.000 OA
ATOM     31  H   UNK A   1       1.027  10.916  17.307  0.00  0.00    +0.000 HD
ENDBRANCH   6  30
TORSDOF 8
ENDMDL
MODEL 9
REMARK VINA RESULT:      -7.4      8.219     11.155
REMARK  Name = 
REMARK  8 active torsions:
REMARK  status: ('A' for Active; 'I' for Inactive)
REMARK    1  A    between atoms: C_2  and  O_3
REMARK    2  A    between atoms: C_2  and  C_4
REMARK    3  A    between atoms: C_4  and  N_5
REMARK    4  A    between atoms: C_6  and  C_8
REMARK    5  A    between atoms: C_11  and  C_12
REMARK    6  A    between atoms: N_14  and  C_15
REMARK    7  A    between atoms: C_15  and  C_16
REMARK    8  A    between atoms: C_27  and  O_28
REMARK                            x       y       z     vdW  Elec       q    Type
REMARK                         _______ _______ _______ _____ _____    ______ ____
ROOT
ATOM      1  C   UNK A   1       3.584   3.588  19.661  0.00  0.00    +0.000 A 
ATOM      2  N   UNK A   1       2.743   3.930  20.686  0.00  0.00    +0.000 NA
ATOM      3  C   UNK A   0       2.243   5.194  20.665  0.00  0.00    +0.000 A 
ATOM      4  C   UNK A   1       2.539   6.144  19.690  0.00  0.00    +0.000 A 
ATOM      5  C   UNK A   1       3.406   5.764  18.661  0.00  0.00    +0.000 A 
ATOM      6  C   UNK A   1       3.934   4.472  18.636  0.00  0.00    +0.000 A 
ENDROOT
BRANCH   4   7
ATOM      7  C   UNK A   1       1.982   7.477  19.755  0.00  0.00    +0.000 A 
ATOM      8  C   UNK A   1       1.977   8.414  18.745  0.00  0.00    +0.000 A 
ATOM      9  N   UNK A   1       1.347   9.493  19.298  0.00  0.00    +0.000 N 
ATOM     10  N   UNK A   1       0.967   9.234  20.564  0.00  0.00    +0.000 NA
ATOM     11  N   UNK A   1       1.350   7.996  20.853  0.00  0.00    +0.000 NA
BRANCH   9  12
ATOM     12  C   UNK A   1       0.925  10.715  18.637  0.00  0.00    +0.000 C 
BRANCH  12  13
ATOM     13  C   UNK A   1      -0.574  10.807  18.474  0.00  0.00    +0.000 A 
ATOM     14  C   UNK A   1      -1.213   9.937  17.568  0.00  0.00    +0.000 A 
ATOM     15  C   UNK A   1      -2.588  10.027  17.338  0.00  0.00    +0.000 A 
ATOM     16  C   UNK A   1      -3.344  10.976  18.017  0.00  0.00    +0.000 A 
ATOM     17 CL   UNK A   1      -5.032  11.104  17.712  0.00  0.00    +0.000 Cl
ATOM     18  C   UNK A   1      -2.741  11.827  18.938  0.00  0.00    +0.000 A 
ATOM     19  C   UNK A   1      -1.364  11.741  19.166  0.00  0.00    +0.000 A 
ATOM     20 CL   UNK A   1      -0.686  12.841  20.312  0.00  0.00    +0.000 Cl
ENDBRANCH  12  13
ENDBRANCH   9  12
ENDBRANCH   4   7
BRANCH   1  22
ATOM     21  N   UNK A   1       4.806   1.842  20.866  0.00  0.00    +0.000 N 
ATOM     22  C   UNK A   1       4.095   2.169  19.711  0.00  0.00    +0.000 C 
ATOM     23  O   UNK A   1       3.925   1.355  18.812  0.00  0.00    +0.000 OA
ATOM     24  H   UNK A   1       5.183   2.657  21.346  0.00  0.00    +0.000 HD
BRANCH  21  25
ATOM     25  C   UNK A   1       5.507   0.561  20.889  0.00  0.00    +0.000 C 
BRANCH  25  27
ATOM     26  O   UNK A   1       6.962   1.018  22.777  0.00  0.00    +0.000 OA
ATOM     27  C   UNK A   1       6.210   0.250  22.201  0.00  0.00    +0.000 C 
BRANCH  27  28
ATOM     28  O   UNK A   1       6.005  -1.023  22.629  0.00  0.00    +0.000 OA
ATOM     29  H   UNK A   1       6.311  -1.126  23.556  0.00  0.00    +0.000 HD
ENDBRANCH  27  28
ENDBRANCH  25  27
ENDBRANCH  21  25
ENDBRANCH   1  22
BRANCH   6  30
ATOM     30  O   UNK A   1       4.777   4.125  17.623  0.00  0.00    +0.000 OA
ATOM     31  H   UNK A   1       4.865   4.848  16.981  0.00  0.00    +0.000 HD
ENDBRANCH   6  30
TORSDOF 8
ENDMDL
