MODEL 1
REMARK VINA RESULT:      -7.2      0.000      0.000
REMARK  Name = 
REMARK  11 active torsions:
REMARK  status: ('A' for Active; 'I' for Inactive)
REMARK    1  A    between atoms: C_1  and  C_2
REMARK    2  A    between atoms: C_2  and  C_3
REMARK    3  A    between atoms: C_2  and  O_4
REMARK    4  A    between atoms: O_4  and  C_5
REMARK    5  A    between atoms: C_5  and  C_6
REMARK    6  A    between atoms: C_6  and  C_7
REMARK    7  A    between atoms: C_7  and  N_8
REMARK    8  A    between atoms: C_9  and  C_11
REMARK    9  A    between atoms: C_11  and  S_12
REMARK   10  A    between atoms: S_12  and  C_15
REMARK   11  A    between atoms: C_15  and  C_16
REMARK                            x       y       z     vdW  Elec       q    Type
REMARK                         _______ _______ _______ _____ _____    ______ ____
ROOT
ATOM      1  C   UNL     1       4.991   5.933  17.870  0.00  0.00    +0.000 C 
ENDROOT
BRANCH   1   3
ATOM      2  N   UNL     1       4.647   3.494  18.086  0.00  0.00    +0.000 N 
ATOM      3  C   UNL     1       5.401   4.592  18.415  0.00  0.00    +0.000 C 
ATOM      4  O   UNL     1       6.335   4.453  19.202  0.00  0.00    +0.000 OA
ATOM      5  H   UNL     1       5.003   2.615  18.450  0.00  0.00    +0.000 HD
BRANCH   2   6
ATOM      6  C   UNL     1       3.537   3.504  17.161  0.00  0.00    +0.000 C 
BRANCH   6   7
ATOM      7  C   UNL     1       2.357   2.641  17.570  0.00  0.00    +0.000 C 
BRANCH   7   8
ATOM      8  C   UNL     1       2.442   2.367  19.070  0.00  0.00    +0.000 C 
BRANCH   8   9
ATOM      9  O   UNL     1       1.154   2.580  19.652  0.00  0.00    +0.000 OA
BRANCH   9  11
ATOM     10  C   UNL     1       1.703   2.689  21.970  0.00  0.00    +0.000 C 
ATOM     11  C   UNL     1       1.150   3.464  20.776  0.00  0.00    +0.000 C 
ATOM     12  C   UNL     1       2.007   4.697  20.516  0.00  0.00    +0.000 C 
ENDBRANCH   9  11
ENDBRANCH   8   9
ENDBRANCH   7   8
ENDBRANCH   6   7
ENDBRANCH   2   6
ENDBRANCH   1   3
BRANCH   1  13
ATOM     13  S   UNL     1       5.982   6.359  16.463  0.00  0.00    +0.000 S 
ATOM     14  O   UNL     1       5.103   6.728  15.375  0.00  0.00    +0.000 OA
ATOM     15  O   UNL     1       7.044   7.233  16.919  0.00  0.00    +0.000 OA
BRANCH  13  16
ATOM     16  C   UNL     1       6.707   4.771  16.068  0.00  0.00    +0.000 C 
BRANCH  16  17
ATOM     17  C   UNL     1       6.861   4.635  14.575  0.00  0.00    +0.000 A 
ATOM     18  C   UNL     1       7.737   5.477  13.872  0.00  0.00    +0.000 A 
ATOM     19  C   UNL     1       7.888   5.351  12.490  0.00  0.00    +0.000 A 
ATOM     20  C   UNL     1       7.166   4.385  11.793  0.00  0.00    +0.000 A 
ATOM     21  C   UNL     1       6.299   3.541  12.483  0.00  0.00    +0.000 A 
ATOM     22 CL   UNL     1       5.406   2.347  11.625  0.00  0.00    +0.000 Cl
ATOM     23  C   UNL     1       6.145   3.659  13.866  0.00  0.00    +0.000 A 
ENDBRANCH  16  17
ENDBRANCH  13  16
ENDBRANCH   1  13
TORSDOF 9
ENDMDL
MODEL 2
REMARK VINA RESULT:      -7.0      1.270      2.093
REMARK  Name = 
REMARK  11 active torsions:
REMARK  status: ('A' for Active; 'I' for Inactive)
REMARK    1  A    between atoms: C_1  and  C_2
REMARK    2  A    between atoms: C_2  and  C_3
REMARK    3  A    between atoms: C_2  and  O_4
REMARK    4  A    between atoms: O_4  and  C_5
REMARK    5  A    between atoms: C_5  and  C_6
REMARK    6  A    between atoms: C_6  and  C_7
REMARK    7  A    between atoms: C_7  and  N_8
REMARK    8  A    between atoms: C_9  and  C_11
REMARK    9  A    between atoms: C_11  and  S_12
REMARK   10  A    between atoms: S_12  and  C_15
REMARK   11  A    between atoms: C_15  and  C_16
REMARK                            x       y       z     vdW  Elec       q    Type
REMARK                         _______ _______ _______ _____ _____    ______ ____
ROOT
ATOM      1  C   UNL     1       5.742   6.382  17.963  0.00  0.00    +0.000 C 
ENDROOT
BRANCH   1   3
ATOM      2  N   UNL     1       4.370   5.366  19.751  0.00  0.00    +0.000 N 
ATOM      3  C   UNL     1       5.554   5.368  19.057  0.00  0.00    +0.000 C 
ATOM      4  O   UNL     1       6.443   4.592  19.404  0.00  0.00    +0.000 OA
ATOM      5  H   UNL     1       4.290   4.629  20.444  0.00  0.00    +0.000 HD
BRANCH   2   6
ATOM      6  C   UNL     1       3.233   6.204  19.443  0.00  0.00    +0.000 C 
BRANCH   6   7
ATOM      7  C   UNL     1       1.963   5.860  20.200  0.00  0.00    +0.000 C 
BRANCH   7   8
ATOM      8  C   UNL     1       1.578   4.415  19.890  0.00  0.00    +0.000 C 
BRANCH   8   9
ATOM      9  O   UNL     1       2.145   4.046  18.631  0.00  0.00    +0.000 OA
BRANCH   9  11
ATOM     10  C   UNL     1       2.984   1.860  18.182  0.00  0.00    +0.000 C 
ATOM     11  C   UNL     1       1.748   2.757  18.157  0.00  0.00    +0.000 C 
ATOM     12  C   UNL     1       0.654   2.156  19.032  0.00  0.00    +0.000 C 
ENDBRANCH   9  11
ENDBRANCH   8   9
ENDBRANCH   7   8
ENDBRANCH   6   7
ENDBRANCH   2   6
ENDBRANCH   1   3
BRANCH   1  13
ATOM     13  S   UNL     1       5.331   5.680  16.389  0.00  0.00    +0.000 S 
ATOM     14  O   UNL     1       4.336   4.650  16.588  0.00  0.00    +0.000 OA
ATOM     15  O   UNL     1       5.127   6.772  15.457  0.00  0.00    +0.000 OA
BRANCH  13  16
ATOM     16  C   UNL     1       6.874   4.877  15.964  0.00  0.00    +0.000 C 
BRANCH  16  17
ATOM     17  C   UNL     1       6.961   4.691  14.471  0.00  0.00    +0.000 A 
ATOM     18  C   UNL     1       7.823   5.490  13.705  0.00  0.00    +0.000 A 
ATOM     19  C   UNL     1       7.912   5.317  12.322  0.00  0.00    +0.000 A 
ATOM     20  C   UNL     1       7.140   4.346  11.689  0.00  0.00    +0.000 A 
ATOM     21  C   UNL     1       6.286   3.544  12.442  0.00  0.00    +0.000 A 
ATOM     22 CL   UNL     1       5.332   2.344  11.662  0.00  0.00    +0.000 Cl
ATOM     23  C   UNL     1       6.194   3.709  13.825  0.00  0.00    +0.000 A 
ENDBRANCH  16  17
ENDBRANCH  13  16
ENDBRANCH   1  13
TORSDOF 9
ENDMDL
MODEL 3
REMARK VINA RESULT:      -6.9      3.074      7.131
REMARK  Name = 
REMARK  11 active torsions:
REMARK  status: ('A' for Active; 'I' for Inactive)
REMARK    1  A    between atoms: C_1  and  C_2
REMARK    2  A    between atoms: C_2  and  C_3
REMARK    3  A    between atoms: C_2  and  O_4
REMARK    4  A    between atoms: O_4  and  C_5
REMARK    5  A    between atoms: C_5  and  C_6
REMARK    6  A    between atoms: C_6  and  C_7
REMARK    7  A    between atoms: C_7  and  N_8
REMARK    8  A    between atoms: C_9  and  C_11
REMARK    9  A    between atoms: C_11  and  S_12
REMARK   10  A    between atoms: S_12  and  C_15
REMARK   11  A    between atoms: C_15  and  C_16
REMARK                            x       y       z     vdW  Elec       q    Type
REMARK                         _______ _______ _______ _____ _____    ______ ____
ROOT
ATOM      1  C   UNL     1       5.585   5.828  17.144  0.00  0.00    +0.000 C 
ENDROOT
BRANCH   1   3
ATOM      2  N   UNL     1       7.463   5.060  15.730  0.00  0.00    +0.000 N 
ATOM      3  C   UNL     1       6.938   6.047  16.526  0.00  0.00    +0.000 C 
ATOM      4  O   UNL     1       7.624   7.040  16.763  0.00  0.00    +0.000 OA
ATOM      5  H   UNL     1       8.357   5.289  15.309  0.00  0.00    +0.000 HD
BRANCH   2   6
ATOM      6  C   UNL     1       6.765   3.852  15.349  0.00  0.00    +0.000 C 
BRANCH   6   7
ATOM      7  C   UNL     1       5.776   4.019  14.209  0.00  0.00    +0.000 C 
BRANCH   7   8
ATOM      8  C   UNL     1       6.531   4.479  12.964  0.00  0.00    +0.000 C 
BRANCH   8   9
ATOM      9  O   UNL     1       6.706   3.361  12.091  0.00  0.00    +0.000 OA
BRANCH   9  11
ATOM     10  C   UNL     1       4.461   3.308  11.287  0.00  0.00    +0.000 C 
ATOM     11  C   UNL     1       5.562   2.509  11.981  0.00  0.00    +0.000 C 
ATOM     12  C   UNL     1       5.880   1.256  11.174  0.00  0.00    +0.000 C 
ENDBRANCH   9  11
ENDBRANCH   8   9
ENDBRANCH   7   8
ENDBRANCH   6   7
ENDBRANCH   2   6
ENDBRANCH   1   3
BRANCH   1  13
ATOM     13  S   UNL     1       5.742   5.004  18.705  0.00  0.00    +0.000 S 
ATOM     14  O   UNL     1       7.148   4.792  18.976  0.00  0.00    +0.000 OA
ATOM     15  O   UNL     1       4.873   5.676  19.650  0.00  0.00    +0.000 OA
BRANCH  13  16
ATOM     16  C   UNL     1       5.013   3.414  18.322  0.00  0.00    +0.000 C 
BRANCH  16  17
ATOM     17  C   UNL     1       3.564   3.402  18.738  0.00  0.00    +0.000 A 
ATOM     18  C   UNL     1       2.566   3.823  17.847  0.00  0.00    +0.000 A 
ATOM     19  C   UNL     1       1.222   3.807  18.225  0.00  0.00    +0.000 A 
ATOM     20  C   UNL     1       0.860   3.373  19.498  0.00  0.00    +0.000 A 
ATOM     21  C   UNL     1       1.844   2.948  20.388  0.00  0.00    +0.000 A 
ATOM     22 CL   UNL     1       1.398   2.412  21.961  0.00  0.00    +0.000 Cl
ATOM     23  C   UNL     1       3.189   2.958  20.015  0.00  0.00    +0.000 A 
ENDBRANCH  16  17
ENDBRANCH  13  16
ENDBRANCH   1  13
TORSDOF 9
ENDMDL
MODEL 4
REMARK VINA RESULT:      -6.9      2.749      7.049
REMARK  Name = 
REMARK  11 active torsions:
REMARK  status: ('A' for Active; 'I' for Inactive)
REMARK    1  A    between atoms: C_1  and  C_2
REMARK    2  A    between atoms: C_2  and  C_3
REMARK    3  A    between atoms: C_2  and  O_4
REMARK    4  A    between atoms: O_4  and  C_5
REMARK    5  A    between atoms: C_5  and  C_6
REMARK    6  A    between atoms: C_6  and  C_7
REMARK    7  A    between atoms: C_7  and  N_8
REMARK    8  A    between atoms: C_9  and  C_11
REMARK    9  A    between atoms: C_11  and  S_12
REMARK   10  A    between atoms: S_12  and  C_15
REMARK   11  A    between atoms: C_15  and  C_16
REMARK                            x       y       z     vdW  Elec       q    Type
REMARK                         _______ _______ _______ _____ _____    ______ ____
ROOT
ATOM      1  C   UNL     1       5.992   4.462  17.356  0.00  0.00    +0.000 C 
ENDROOT
BRANCH   1   3
ATOM      2  N   UNL     1       7.755   4.653  15.633  0.00  0.00    +0.000 N 
ATOM      3  C   UNL     1       7.440   4.427  16.949  0.00  0.00    +0.000 C 
ATOM      4  O   UNL     1       8.343   4.132  17.730  0.00  0.00    +0.000 OA
ATOM      5  H   UNL     1       8.750   4.661  15.434  0.00  0.00    +0.000 HD
BRANCH   2   6
ATOM      6  C   UNL     1       6.804   5.030  14.611  0.00  0.00    +0.000 C 
BRANCH   6   7
ATOM      7  C   UNL     1       6.122   3.866  13.915  0.00  0.00    +0.000 C 
BRANCH   7   8
ATOM      8  C   UNL     1       6.601   3.807  12.466  0.00  0.00    +0.000 C 
BRANCH   8   9
ATOM      9  O   UNL     1       5.482   4.013  11.601  0.00  0.00    +0.000 OA
BRANCH   9  11
ATOM     10  C   UNL     1       3.563   3.225  10.426  0.00  0.00    +0.000 C 
ATOM     11  C   UNL     1       4.590   2.900  11.509  0.00  0.00    +0.000 C 
ATOM     12  C   UNL     1       5.335   1.620  11.149  0.00  0.00    +0.000 C 
ENDBRANCH   9  11
ENDBRANCH   8   9
ENDBRANCH   7   8
ENDBRANCH   6   7
ENDBRANCH   2   6
ENDBRANCH   1   3
BRANCH   1  13
ATOM     13  S   UNL     1       5.633   5.952  18.245  0.00  0.00    +0.000 S 
ATOM     14  O   UNL     1       5.579   5.645  19.658  0.00  0.00    +0.000 OA
ATOM     15  O   UNL     1       6.489   6.997  17.721  0.00  0.00    +0.000 OA
BRANCH  13  16
ATOM     16  C   UNL     1       3.963   6.281  17.692  0.00  0.00    +0.000 C 
BRANCH  16  17
ATOM     17  C   UNL     1       2.976   5.613  18.616  0.00  0.00    +0.000 A 
ATOM     18  C   UNL     1       2.590   6.237  19.812  0.00  0.00    +0.000 A 
ATOM     19  C   UNL     1       1.671   5.626  20.668  0.00  0.00    +0.000 A 
ATOM     20  C   UNL     1       1.130   4.385  20.341  0.00  0.00    +0.000 A 
ATOM     21  C   UNL     1       1.503   3.761  19.153  0.00  0.00    +0.000 A 
ATOM     22 CL   UNL     1       0.836   2.228  18.746  0.00  0.00    +0.000 Cl
ATOM     23  C   UNL     1       2.418   4.368  18.290  0.00  0.00    +0.000 A 
ENDBRANCH  16  17
ENDBRANCH  13  16
ENDBRANCH   1  13
TORSDOF 9
ENDMDL
MODEL 5
REMARK VINA RESULT:      -6.9      1.222      1.329
REMARK  Name = 
REMARK  11 active torsions:
REMARK  status: ('A' for Active; 'I' for Inactive)
REMARK    1  A    between atoms: C_1  and  C_2
REMARK    2  A    between atoms: C_2  and  C_3
REMARK    3  A    between atoms: C_2  and  O_4
REMARK    4  A    between atoms: O_4  and  C_5
REMARK    5  A    between atoms: C_5  and  C_6
REMARK    6  A    between atoms: C_6  and  C_7
REMARK    7  A    between atoms: C_7  and  N_8
REMARK    8  A    between atoms: C_9  and  C_11
REMARK    9  A    between atoms: C_11  and  S_12
REMARK   10  A    between atoms: S_12  and  C_15
REMARK   11  A    between atoms: C_15  and  C_16
REMARK                            x       y       z     vdW  Elec       q    Type
REMARK                         _______ _______ _______ _____ _____    ______ ____
ROOT
ATOM      1  C   UNL     1       5.675   6.113  18.135  0.00  0.00    +0.000 C 
ENDROOT
BRANCH   1   3
ATOM      2  N   UNL     1       3.590   4.784  18.133  0.00  0.00    +0.000 N 
ATOM      3  C   UNL     1       4.174   6.025  18.084  0.00  0.00    +0.000 C 
ATOM      4  O   UNL     1       3.455   7.009  17.926  0.00  0.00    +0.000 OA
ATOM      5  H   UNL     1       2.575   4.797  18.140  0.00  0.00    +0.000 HD
BRANCH   2   6
ATOM      6  C   UNL     1       4.305   3.544  18.336  0.00  0.00    +0.000 C 
BRANCH   6   7
ATOM      7  C   UNL     1       3.667   2.326  17.692  0.00  0.00    +0.000 C 
BRANCH   7   8
ATOM      8  C   UNL     1       2.491   1.871  18.552  0.00  0.00    +0.000 C 
BRANCH   8   9
ATOM      9  O   UNL     1       2.795   2.127  19.925  0.00  0.00    +0.000 OA
BRANCH   9  11
ATOM     10  C   UNL     1       2.216   3.659  21.658  0.00  0.00    +0.000 C 
ATOM     11  C   UNL     1       1.688   2.591  20.702  0.00  0.00    +0.000 C 
ATOM     12  C   UNL     1       0.597   3.182  19.816  0.00  0.00    +0.000 C 
ENDBRANCH   9  11
ENDBRANCH   8   9
ENDBRANCH   7   8
ENDBRANCH   6   7
ENDBRANCH   2   6
ENDBRANCH   1   3
BRANCH   1  13
ATOM     13  S   UNL     1       6.339   6.318  16.505  0.00  0.00    +0.000 S 
ATOM     14  O   UNL     1       5.296   6.826  15.641  0.00  0.00    +0.000 OA
ATOM     15  O   UNL     1       7.621   6.983  16.630  0.00  0.00    +0.000 OA
BRANCH  13  16
ATOM     16  C   UNL     1       6.646   4.614  16.049  0.00  0.00    +0.000 C 
BRANCH  16  17
ATOM     17  C   UNL     1       6.787   4.502  14.552  0.00  0.00    +0.000 A 
ATOM     18  C   UNL     1       7.718   5.296  13.865  0.00  0.00    +0.000 A 
ATOM     19  C   UNL     1       7.857   5.191  12.480  0.00  0.00    +0.000 A 
ATOM     20  C   UNL     1       7.067   4.293  11.765  0.00  0.00    +0.000 A 
ATOM     21  C   UNL     1       6.144   3.498  12.439  0.00  0.00    +0.000 A 
ATOM     22 CL   UNL     1       5.167   2.389  11.558  0.00  0.00    +0.000 Cl
ATOM     23  C   UNL     1       6.002   3.595  13.825  0.00  0.00    +0.000 A 
ENDBRANCH  16  17
ENDBRANCH  13  16
ENDBRANCH   1  13
TORSDOF 9
ENDMDL
MODEL 6
REMARK VINA RESULT:      -6.8      4.037      7.570
REMARK  Name = 
REMARK  11 active torsions:
REMARK  status: ('A' for Active; 'I' for Inactive)
REMARK    1  A    between atoms: C_1  and  C_2
REMARK    2  A    between atoms: C_2  and  C_3
REMARK    3  A    between atoms: C_2  and  O_4
REMARK    4  A    between atoms: O_4  and  C_5
REMARK    5  A    between atoms: C_5  and  C_6
REMARK    6  A    between atoms: C_6  and  C_7
REMARK    7  A    between atoms: C_7  and  N_8
REMARK    8  A    between atoms: C_9  and  C_11
REMARK    9  A    between atoms: C_11  and  S_12
REMARK   10  A    between atoms: S_12  and  C_15
REMARK   11  A    between atoms: C_15  and  C_16
REMARK                            x       y       z     vdW  Elec       q    Type
REMARK                         _______ _______ _______ _____ _____    ______ ____
ROOT
ATOM      1  C   UNL     1       3.710   3.628  19.221  0.00  0.00    +0.000 C 
ENDROOT
BRANCH   1   3
ATOM      2  N   UNL     1       4.594   3.155  16.960  0.00  0.00    +0.000 N 
ATOM      3  C   UNL     1       3.793   2.753  18.000  0.00  0.00    +0.000 C 
ATOM      4  O   UNL     1       3.119   1.734  17.865  0.00  0.00    +0.000 OA
ATOM      5  H   UNL     1       4.641   2.499  16.188  0.00  0.00    +0.000 HD
BRANCH   2   6
ATOM      6  C   UNL     1       5.455   4.316  16.986  0.00  0.00    +0.000 C 
BRANCH   6   7
ATOM      7  C   UNL     1       6.670   4.228  16.079  0.00  0.00    +0.000 C 
BRANCH   7   8
ATOM      8  C   UNL     1       6.394   5.023  14.805  0.00  0.00    +0.000 C 
BRANCH   8   9
ATOM      9  O   UNL     1       5.480   4.287  13.990  0.00  0.00    +0.000 OA
BRANCH   9  11
ATOM     10  C   UNL     1       4.998   3.193  11.927  0.00  0.00    +0.000 C 
ATOM     11  C   UNL     1       6.093   3.546  12.931  0.00  0.00    +0.000 C 
ATOM     12  C   UNL     1       7.184   4.359  12.244  0.00  0.00    +0.000 C 
ENDBRANCH   9  11
ENDBRANCH   8   9
ENDBRANCH   7   8
ENDBRANCH   6   7
ENDBRANCH   2   6
ENDBRANCH   1   3
BRANCH   1  13
ATOM     13  S   UNL     1       2.424   4.833  19.033  0.00  0.00    +0.000 S 
ATOM     14  O   UNL     1       1.957   4.801  17.664  0.00  0.00    +0.000 OA
ATOM     15  O   UNL     1       1.517   4.690  20.154  0.00  0.00    +0.000 OA
BRANCH  13  16
ATOM     16  C   UNL     1       3.347   6.349  19.262  0.00  0.00    +0.000 C 
BRANCH  16  17
ATOM     17  C   UNL     1       2.415   7.532  19.187  0.00  0.00    +0.000 A 
ATOM     18  C   UNL     1       2.197   8.187  17.965  0.00  0.00    +0.000 A 
ATOM     19  C   UNL     1       1.330   9.279  17.888  0.00  0.00    +0.000 A 
ATOM     20  C   UNL     1       0.672   9.730  19.031  0.00  0.00    +0.000 A 
ATOM     21  C   UNL     1       0.878   9.082  20.246  0.00  0.00    +0.000 A 
ATOM     22 CL   UNL     1       0.067   9.638  21.658  0.00  0.00    +0.000 Cl
ATOM     23  C   UNL     1       1.741   7.988  20.330  0.00  0.00    +0.000 A 
ENDBRANCH  16  17
ENDBRANCH  13  16
ENDBRANCH   1  13
TORSDOF 9
ENDMDL
MODEL 7
REMARK VINA RESULT:      -6.8      1.361      1.857
REMARK  Name = 
REMARK  11 active torsions:
REMARK  status: ('A' for Active; 'I' for Inactive)
REMARK    1  A    between atoms: C_1  and  C_2
REMARK    2  A    between atoms: C_2  and  C_3
REMARK    3  A    between atoms: C_2  and  O_4
REMARK    4  A    between atoms: O_4  and  C_5
REMARK    5  A    between atoms: C_5  and  C_6
REMARK    6  A    between atoms: C_6  and  C_7
REMARK    7  A    between atoms: C_7  and  N_8
REMARK    8  A    between atoms: C_9  and  C_11
REMARK    9  A    between atoms: C_11  and  S_12
REMARK   10  A    between atoms: S_12  and  C_15
REMARK   11  A    between atoms: C_15  and  C_16
REMARK                            x       y       z     vdW  Elec       q    Type
REMARK                         _______ _______ _______ _____ _____    ______ ____
ROOT
ATOM      1  C   UNL     1       5.944   6.310  17.872  0.00  0.00    +0.000 C 
ENDROOT
BRANCH   1   3
ATOM      2  N   UNL     1       4.453   5.524  19.682  0.00  0.00    +0.000 N 
ATOM      3  C   UNL     1       5.642   5.377  19.013  0.00  0.00    +0.000 C 
ATOM      4  O   UNL     1       6.446   4.539  19.417  0.00  0.00    +0.000 OA
ATOM      5  H   UNL     1       4.291   4.836  20.410  0.00  0.00    +0.000 HD
BRANCH   2   6
ATOM      6  C   UNL     1       3.406   6.449  19.307  0.00  0.00    +0.000 C 
BRANCH   6   7
ATOM      7  C   UNL     1       2.031   5.826  19.151  0.00  0.00    +0.000 C 
BRANCH   7   8
ATOM      8  C   UNL     1       1.442   5.572  20.537  0.00  0.00    +0.000 C 
BRANCH   8   9
ATOM      9  O   UNL     1       0.740   4.328  20.520  0.00  0.00    +0.000 OA
BRANCH   9  11
ATOM     10  C   UNL     1       1.750   2.400  21.494  0.00  0.00    +0.000 C 
ATOM     11  C   UNL     1       1.551   3.193  20.204  0.00  0.00    +0.000 C 
ATOM     12  C   UNL     1       0.887   2.313  19.151  0.00  0.00    +0.000 C 
ENDBRANCH   9  11
ENDBRANCH   8   9
ENDBRANCH   7   8
ENDBRANCH   6   7
ENDBRANCH   2   6
ENDBRANCH   1   3
BRANCH   1  13
ATOM     13  S   UNL     1       5.428   5.596  16.334  0.00  0.00    +0.000 S 
ATOM     14  O   UNL     1       4.401   4.613  16.602  0.00  0.00    +0.000 OA
ATOM     15  O   UNL     1       5.224   6.678  15.391  0.00  0.00    +0.000 OA
BRANCH  13  16
ATOM     16  C   UNL     1       6.914   4.721  15.854  0.00  0.00    +0.000 C 
BRANCH  16  17
ATOM     17  C   UNL     1       6.960   4.576  14.354  0.00  0.00    +0.000 A 
ATOM     18  C   UNL     1       7.812   5.386  13.588  0.00  0.00    +0.000 A 
ATOM     19  C   UNL     1       7.864   5.251  12.200  0.00  0.00    +0.000 A 
ATOM     20  C   UNL     1       7.064   4.307  11.560  0.00  0.00    +0.000 A 
ATOM     21  C   UNL     1       6.219   3.494  12.312  0.00  0.00    +0.000 A 
ATOM     22 CL   UNL     1       5.231   2.328  11.523  0.00  0.00    +0.000 Cl
ATOM     23  C   UNL     1       6.165   3.621  13.701  0.00  0.00    +0.000 A 
ENDBRANCH  16  17
ENDBRANCH  13  16
ENDBRANCH   1  13
TORSDOF 9
ENDMDL
MODEL 8
REMARK VINA RESULT:      -6.7      1.045      1.769
REMARK  Name = 
REMARK  11 active torsions:
REMARK  status: ('A' for Active; 'I' for Inactive)
REMARK    1  A    between atoms: C_1  and  C_2
REMARK    2  A    between atoms: C_2  and  C_3
REMARK    3  A    between atoms: C_2  and  O_4
REMARK    4  A    between atoms: O_4  and  C_5
REMARK    5  A    between atoms: C_5  and  C_6
REMARK    6  A    between atoms: C_6  and  C_7
REMARK    7  A    between atoms: C_7  and  N_8
REMARK    8  A    between atoms: C_9  and  C_11
REMARK    9  A    between atoms: C_11  and  S_12
REMARK   10  A    between atoms: S_12  and  C_15
REMARK   11  A    between atoms: C_15  and  C_16
REMARK                            x       y       z     vdW  Elec       q    Type
REMARK                         _______ _______ _______ _____ _____    ______ ____
ROOT
ATOM      1  C   UNL     1       4.599   4.839  17.332  0.00  0.00    +0.000 C 
ENDROOT
BRANCH   1   3
ATOM      2  N   UNL     1       4.338   5.543  19.688  0.00  0.00    +0.000 N 
ATOM      3  C   UNL     1       4.929   4.688  18.791  0.00  0.00    +0.000 C 
ATOM      4  O   UNL     1       5.760   3.882  19.205  0.00  0.00    +0.000 OA
ATOM      5  H   UNL     1       4.568   5.359  20.659  0.00  0.00    +0.000 HD
BRANCH   2   6
ATOM      6  C   UNL     1       3.330   6.523  19.349  0.00  0.00    +0.000 C 
BRANCH   6   7
ATOM      7  C   UNL     1       1.898   6.034  19.472  0.00  0.00    +0.000 C 
BRANCH   7   8
ATOM      8  C   UNL     1       1.810   5.051  20.637  0.00  0.00    +0.000 C 
BRANCH   8   9
ATOM      9  O   UNL     1       0.768   4.111  20.369  0.00  0.00    +0.000 OA
BRANCH   9  11
ATOM     10  C   UNL     1       2.044   2.467  19.205  0.00  0.00    +0.000 C 
ATOM     11  C   UNL     1       1.174   2.741  20.430  0.00  0.00    +0.000 C 
ATOM     12  C   UNL     1       1.964   2.453  21.702  0.00  0.00    +0.000 C 
ENDBRANCH   9  11
ENDBRANCH   8   9
ENDBRANCH   7   8
ENDBRANCH   6   7
ENDBRANCH   2   6
ENDBRANCH   1   3
BRANCH   1  13
ATOM     13  S   UNL     1       5.774   5.901  16.537  0.00  0.00    +0.000 S 
ATOM     14  O   UNL     1       5.161   6.465  15.355  0.00  0.00    +0.000 OA
ATOM     15  O   UNL     1       6.378   6.734  17.558  0.00  0.00    +0.000 OA
BRANCH  13  16
ATOM     16  C   UNL     1       7.000   4.710  16.004  0.00  0.00    +0.000 C 
BRANCH  16  17
ATOM     17  C   UNL     1       6.982   4.595  14.501  0.00  0.00    +0.000 A 
ATOM     18  C   UNL     1       7.895   5.324  13.723  0.00  0.00    +0.000 A 
ATOM     19  C   UNL     1       7.888   5.216  12.331  0.00  0.00    +0.000 A 
ATOM     20  C   UNL     1       6.968   4.381  11.700  0.00  0.00    +0.000 A 
ATOM     21  C   UNL     1       6.063   3.649  12.465  0.00  0.00    +0.000 A 
ATOM     22 CL   UNL     1       4.928   2.616  11.687  0.00  0.00    +0.000 Cl
ATOM     23  C   UNL     1       6.067   3.749  13.857  0.00  0.00    +0.000 A 
ENDBRANCH  16  17
ENDBRANCH  13  16
ENDBRANCH   1  13
TORSDOF 9
ENDMDL
MODEL 9
REMARK VINA RESULT:      -6.7      3.973      7.538
REMARK  Name = 
REMARK  11 active torsions:
REMARK  status: ('A' for Active; 'I' for Inactive)
REMARK    1  A    between atoms: C_1  and  C_2
REMARK    2  A    between atoms: C_2  and  C_3
REMARK    3  A    between atoms: C_2  and  O_4
REMARK    4  A    between atoms: O_4  and  C_5
REMARK    5  A    between atoms: C_5  and  C_6
REMARK    6  A    between atoms: C_6  and  C_7
REMARK    7  A    between atoms: C_7  and  N_8
REMARK    8  A    between atoms: C_9  and  C_11
REMARK    9  A    between atoms: C_11  and  S_12
REMARK   10  A    between atoms: S_12  and  C_15
REMARK   11  A    between atoms: C_15  and  C_16
REMARK                            x       y       z     vdW  Elec       q    Type
REMARK                         _______ _______ _______ _____ _____    ______ ____
ROOT
ATOM      1  C   UNL     1       3.291   3.294  19.523  0.00  0.00    +0.000 C 
ENDROOT
BRANCH   1   3
ATOM      2  N   UNL     1       4.571   3.224  17.409  0.00  0.00    +0.000 N 
ATOM      3  C   UNL     1       3.618   2.643  18.207  0.00  0.00    +0.000 C 
ATOM      4  O   UNL     1       3.016   1.658  17.785  0.00  0.00    +0.000 OA
ATOM      5  H   UNL     1       4.777   2.712  16.557  0.00  0.00    +0.000 HD
BRANCH   2   6
ATOM      6  C   UNL     1       5.371   4.369  17.782  0.00  0.00    +0.000 C 
BRANCH   6   7
ATOM      7  C   UNL     1       5.548   5.408  16.689  0.00  0.00    +0.000 C 
BRANCH   7   8
ATOM      8  C   UNL     1       7.040   5.589  16.416  0.00  0.00    +0.000 C 
BRANCH   8   9
ATOM      9  O   UNL     1       7.434   4.684  15.383  0.00  0.00    +0.000 OA
BRANCH   9  11
ATOM     10  C   UNL     1       7.936   5.383  13.159  0.00  0.00    +0.000 C 
ATOM     11  C   UNL     1       6.829   4.935  14.111  0.00  0.00    +0.000 C 
ATOM     12  C   UNL     1       6.148   3.686  13.565  0.00  0.00    +0.000 C 
ENDBRANCH   9  11
ENDBRANCH   8   9
ENDBRANCH   7   8
ENDBRANCH   6   7
ENDBRANCH   2   6
ENDBRANCH   1   3
BRANCH   1  13
ATOM     13  S   UNL     1       2.123   4.606  19.292  0.00  0.00    +0.000 S 
ATOM     14  O   UNL     1       1.814   4.707  17.882  0.00  0.00    +0.000 OA
ATOM     15  O   UNL     1       1.086   4.457  20.294  0.00  0.00    +0.000 OA
BRANCH  13  16
ATOM     16  C   UNL     1       3.118   6.026  19.738  0.00  0.00    +0.000 C 
BRANCH  16  17
ATOM     17  C   UNL     1       2.355   7.295  19.457  0.00  0.00    +0.000 A 
ATOM     18  C   UNL     1       2.383   7.871  18.177  0.00  0.00    +0.000 A 
ATOM     19  C   UNL     1       1.673   9.043  17.909  0.00  0.00    +0.000 A 
ATOM     20  C   UNL     1       0.928   9.654  18.916  0.00  0.00    +0.000 A 
ATOM     21  C   UNL     1       0.890   9.086  20.187  0.00  0.00    +0.000 A 
ATOM     22 CL   UNL     1      -0.029   9.838  21.432  0.00  0.00    +0.000 Cl
ATOM     23  C   UNL     1       1.595   7.912  20.461  0.00  0.00    +0.000 A 
ENDBRANCH  16  17
ENDBRANCH  13  16
ENDBRANCH   1  13
TORSDOF 9
ENDMDL
