MODEL 1
REMARK VINA RESULT:      -7.7      0.000      0.000
REMARK  Name = 
REMARK  7 active torsions:
REMARK  status: ('A' for Active; 'I' for Inactive)
REMARK    1  A    between atoms: C_1  and  O_2
REMARK    2  A    between atoms: O_2  and  C_3
REMARK    3  A    between atoms: C_8  and  C_9
REMARK    4  A    between atoms: C_12  and  C_13
REMARK    5  A    between atoms: C_13  and  C_14
REMARK    6  A    between atoms: C_14  and  N_15
REMARK    7  A    between atoms: C_16  and  C_18
REMARK                            x       y       z     vdW  Elec       q    Type
REMARK                         _______ _______ _______ _____ _____    ______ ____
ROOT
ATOM      1  C   UNL     1       2.395   3.395  18.331  0.00  0.00    +0.000 A 
ATOM      2  C   UNL     1       3.037   4.362  17.558  0.00  0.00    +0.000 A 
ATOM      3  C   UNL     1       3.206   5.630  18.038  0.00  0.00    +0.000 A 
ATOM      4  C   UNL     1       2.494   6.042  19.171  0.00  0.00    +0.000 A 
ATOM      5  C   UNL     1       1.765   5.131  19.920  0.00  0.00    +0.000 A 
ATOM      6  C   UNL     1       1.686   3.797  19.467  0.00  0.00    +0.000 A 
ATOM      7  C   UNL     1       0.771   2.825  20.149  0.00  0.00    +0.000 C 
ATOM      8  C   UNL     1       2.521   7.549  19.256  0.00  0.00    +0.000 C 
ATOM      9  C   UNL     1       2.824   7.862  17.746  0.00  0.00    +0.000 C 
ATOM     10  C   UNL     1       3.938   6.823  17.476  0.00  0.00    +0.000 C 
ENDROOT
BRANCH   1  12
ATOM     11  C   UNL     1       3.604   1.389  18.416  0.00  0.00    +0.000 C 
ATOM     12  O   UNL     1       2.430   2.078  17.953  0.00  0.00    +0.000 OA
ENDBRANCH   1  12
BRANCH  10  13
ATOM     13  C   UNL     1       4.898   6.764  16.271  0.00  0.00    +0.000 C 
BRANCH  13  14
ATOM     14  C   UNL     1       6.061   5.763  16.255  0.00  0.00    +0.000 C 
BRANCH  14  15
ATOM     15  N   UNL     1       5.922   4.726  15.245  0.00  0.00    +0.000 N 
ATOM     16  C   UNL     1       6.760   4.757  14.117  0.00  0.00    +0.000 C 
ATOM     17  O   UNL     1       7.776   5.453  14.088  0.00  0.00    +0.000 OA
ATOM     18  H   UNL     1       4.993   4.346  15.078  0.00  0.00    +0.000 HD
BRANCH  16  19
ATOM     19  C   UNL     1       6.292   3.875  12.932  0.00  0.00    +0.000 C 
ATOM     20  F   UNL     1       4.975   4.087  12.636  0.00  0.00    +0.000 F 
ATOM     21  F   UNL     1       6.979   4.128  11.785  0.00  0.00    +0.000 F 
ATOM     22  F   UNL     1       6.419   2.545  13.184  0.00  0.00    +0.000 F 
ENDBRANCH  16  19
ENDBRANCH  14  15
ENDBRANCH  13  14
ENDBRANCH  10  13
TORSDOF 5
ENDMDL
MODEL 2
REMARK VINA RESULT:      -7.6      3.190      5.435
REMARK  Name = 
REMARK  7 active torsions:
REMARK  status: ('A' for Active; 'I' for Inactive)
REMARK    1  A    between atoms: C_1  and  O_2
REMARK    2  A    between atoms: O_2  and  C_3
REMARK    3  A    between atoms: C_8  and  C_9
REMARK    4  A    between atoms: C_12  and  C_13
REMARK    5  A    between atoms: C_13  and  C_14
REMARK    6  A    between atoms: C_14  and  N_15
REMARK    7  A    between atoms: C_16  and  C_18
REMARK                            x       y       z     vdW  Elec       q    Type
REMARK                         _______ _______ _______ _____ _____    ______ ____
ROOT
ATOM      1  C   UNL     1       6.010   5.458  18.482  0.00  0.00    +0.000 A 
ATOM      2  C   UNL     1       4.927   5.447  19.359  0.00  0.00    +0.000 A 
ATOM      3  C   UNL     1       3.725   5.977  18.981  0.00  0.00    +0.000 A 
ATOM      4  C   UNL     1       3.653   6.781  17.838  0.00  0.00    +0.000 A 
ATOM      5  C   UNL     1       4.738   6.896  16.982  0.00  0.00    +0.000 A 
ATOM      6  C   UNL     1       5.945   6.255  17.334  0.00  0.00    +0.000 A 
ATOM      7  C   UNL     1       7.186   6.496  16.530  0.00  0.00    +0.000 C 
ATOM      8  C   UNL     1       2.363   7.565  17.860  0.00  0.00    +0.000 C 
ATOM      9  C   UNL     1       2.079   7.500  19.404  0.00  0.00    +0.000 C 
ATOM     10  C   UNL     1       2.384   6.007  19.670  0.00  0.00    +0.000 C 
ENDROOT
BRANCH   1  12
ATOM     11  C   UNL     1       7.970   5.349  19.763  0.00  0.00    +0.000 C 
ATOM     12  O   UNL     1       7.135   4.729  18.769  0.00  0.00    +0.000 OA
ENDBRANCH   1  12
BRANCH  10  13
ATOM     13  C   UNL     1       2.034   5.183  20.926  0.00  0.00    +0.000 C 
BRANCH  13  14
ATOM     14  C   UNL     1       1.258   3.866  20.797  0.00  0.00    +0.000 C 
BRANCH  14  15
ATOM     15  N   UNL     1       1.623   3.089  19.623  0.00  0.00    +0.000 N 
ATOM     16  C   UNL     1       2.868   2.438  19.596  0.00  0.00    +0.000 C 
ATOM     17  O   UNL     1       3.531   2.273  20.621  0.00  0.00    +0.000 OA
ATOM     18  H   UNL     1       1.288   3.411  18.717  0.00  0.00    +0.000 HD
BRANCH  16  19
ATOM     19  C   UNL     1       3.333   1.978  18.192  0.00  0.00    +0.000 C 
ATOM     20  F   UNL     1       2.289   1.904  17.314  0.00  0.00    +0.000 F 
ATOM     21  F   UNL     1       4.235   2.830  17.631  0.00  0.00    +0.000 F 
ATOM     22  F   UNL     1       3.910   0.747  18.206  0.00  0.00    +0.000 F 
ENDBRANCH  16  19
ENDBRANCH  14  15
ENDBRANCH  13  14
ENDBRANCH  10  13
TORSDOF 5
ENDMDL
MODEL 3
REMARK VINA RESULT:      -7.6      0.807      1.162
REMARK  Name = 
REMARK  7 active torsions:
REMARK  status: ('A' for Active; 'I' for Inactive)
REMARK    1  A    between atoms: C_1  and  O_2
REMARK    2  A    between atoms: O_2  and  C_3
REMARK    3  A    between atoms: C_8  and  C_9
REMARK    4  A    between atoms: C_12  and  C_13
REMARK    5  A    between atoms: C_13  and  C_14
REMARK    6  A    between atoms: C_14  and  N_15
REMARK    7  A    between atoms: C_16  and  C_18
REMARK                            x       y       z     vdW  Elec       q    Type
REMARK                         _______ _______ _______ _____ _____    ______ ____
ROOT
ATOM      1  C   UNL     1       2.835   3.597  19.360  0.00  0.00    +0.000 A 
ATOM      2  C   UNL     1       3.270   4.492  18.383  0.00  0.00    +0.000 A 
ATOM      3  C   UNL     1       3.180   5.840  18.590  0.00  0.00    +0.000 A 
ATOM      4  C   UNL     1       2.398   6.327  19.644  0.00  0.00    +0.000 A 
ATOM      5  C   UNL     1       1.866   5.464  20.590  0.00  0.00    +0.000 A 
ATOM      6  C   UNL     1       2.058   4.076  20.419  0.00  0.00    +0.000 A 
ATOM      7  C   UNL     1       1.355   3.105  21.319  0.00  0.00    +0.000 C 
ATOM      8  C   UNL     1       2.121   7.795  19.423  0.00  0.00    +0.000 C 
ATOM      9  C   UNL     1       2.358   7.844  17.870  0.00  0.00    +0.000 C 
ATOM     10  C   UNL     1       3.659   7.012  17.771  0.00  0.00    +0.000 C 
ENDROOT
BRANCH   1  12
ATOM     11  C   UNL     1       4.395   1.919  19.855  0.00  0.00    +0.000 C 
ATOM     12  O   UNL     1       3.134   2.264  19.254  0.00  0.00    +0.000 OA
ENDBRANCH   1  12
BRANCH  10  13
ATOM     13  C   UNL     1       4.613   6.897  16.565  0.00  0.00    +0.000 C 
BRANCH  13  14
ATOM     14  C   UNL     1       5.750   5.867  16.573  0.00  0.00    +0.000 C 
BRANCH  14  15
ATOM     15  N   UNL     1       5.630   4.860  15.530  0.00  0.00    +0.000 N 
ATOM     16  C   UNL     1       6.609   4.802  14.524  0.00  0.00    +0.000 C 
ATOM     17  O   UNL     1       7.693   5.375  14.644  0.00  0.00    +0.000 OA
ATOM     18  H   UNL     1       4.694   4.592  15.233  0.00  0.00    +0.000 HD
BRANCH  16  19
ATOM     19  C   UNL     1       6.206   3.989  13.268  0.00  0.00    +0.000 C 
ATOM     20  F   UNL     1       6.412   2.650  13.447  0.00  0.00    +0.000 F 
ATOM     21  F   UNL     1       4.889   4.126  12.953  0.00  0.00    +0.000 F 
ATOM     22  F   UNL     1       6.915   4.342  12.163  0.00  0.00    +0.000 F 
ENDBRANCH  16  19
ENDBRANCH  14  15
ENDBRANCH  13  14
ENDBRANCH  10  13
TORSDOF 5
ENDMDL
MODEL 4
REMARK VINA RESULT:      -7.5      3.491      4.654
REMARK  Name = 
REMARK  7 active torsions:
REMARK  status: ('A' for Active; 'I' for Inactive)
REMARK    1  A    between atoms: C_1  and  O_2
REMARK    2  A    between atoms: O_2  and  C_3
REMARK    3  A    between atoms: C_8  and  C_9
REMARK    4  A    between atoms: C_12  and  C_13
REMARK    5  A    between atoms: C_13  and  C_14
REMARK    6  A    between atoms: C_14  and  N_15
REMARK    7  A    between atoms: C_16  and  C_18
REMARK                            x       y       z     vdW  Elec       q    Type
REMARK                         _______ _______ _______ _____ _____    ______ ____
ROOT
ATOM      1  C   UNL     1       2.826   6.795  18.653  0.00  0.00    +0.000 A 
ATOM      2  C   UNL     1       3.709   6.332  17.679  0.00  0.00    +0.000 A 
ATOM      3  C   UNL     1       3.724   5.010  17.331  0.00  0.00    +0.000 A 
ATOM      4  C   UNL     1       3.068   4.074  18.139  0.00  0.00    +0.000 A 
ATOM      5  C   UNL     1       2.250   4.487  19.181  0.00  0.00    +0.000 A 
ATOM      6  C   UNL     1       2.162   5.867  19.462  0.00  0.00    +0.000 A 
ATOM      7  C   UNL     1       1.431   6.340  20.682  0.00  0.00    +0.000 C 
ATOM      8  C   UNL     1       3.561   2.688  17.799  0.00  0.00    +0.000 C 
ATOM      9  C   UNL     1       4.936   3.084  17.150  0.00  0.00    +0.000 C 
ATOM     10  C   UNL     1       4.481   4.266  16.260  0.00  0.00    +0.000 C 
ENDROOT
BRANCH   1  12
ATOM     11  C   UNL     1       1.856   8.752  17.803  0.00  0.00    +0.000 C 
ATOM     12  O   UNL     1       2.649   8.142  18.837  0.00  0.00    +0.000 OA
ENDBRANCH   1  12
BRANCH  10  13
ATOM     13  C   UNL     1       5.271   4.946  15.123  0.00  0.00    +0.000 C 
BRANCH  13  14
ATOM     14  C   UNL     1       6.780   5.183  15.263  0.00  0.00    +0.000 C 
BRANCH  14  15
ATOM     15  N   UNL     1       7.146   5.903  16.473  0.00  0.00    +0.000 N 
ATOM     16  C   UNL     1       7.748   5.198  17.529  0.00  0.00    +0.000 C 
ATOM     17  O   UNL     1       8.225   4.074  17.365  0.00  0.00    +0.000 OA
ATOM     18  H   UNL     1       6.557   6.682  16.760  0.00  0.00    +0.000 HD
BRANCH  16  19
ATOM     19  C   UNL     1       7.740   5.933  18.893  0.00  0.00    +0.000 C 
ATOM     20  F   UNL     1       6.501   5.915  19.468  0.00  0.00    +0.000 F 
ATOM     21  F   UNL     1       8.582   5.367  19.800  0.00  0.00    +0.000 F 
ATOM     22  F   UNL     1       8.096   7.241  18.787  0.00  0.00    +0.000 F 
ENDBRANCH  16  19
ENDBRANCH  14  15
ENDBRANCH  13  14
ENDBRANCH  10  13
TORSDOF 5
ENDMDL
MODEL 5
REMARK VINA RESULT:      -7.5      1.448      2.165
REMARK  Name = 
REMARK  7 active torsions:
REMARK  status: ('A' for Active; 'I' for Inactive)
REMARK    1  A    between atoms: C_1  and  O_2
REMARK    2  A    between atoms: O_2  and  C_3
REMARK    3  A    between atoms: C_8  and  C_9
REMARK    4  A    between atoms: C_12  and  C_13
REMARK    5  A    between atoms: C_13  and  C_14
REMARK    6  A    between atoms: C_14  and  N_15
REMARK    7  A    between atoms: C_16  and  C_18
REMARK                            x       y       z     vdW  Elec       q    Type
REMARK                         _______ _______ _______ _____ _____    ______ ____
ROOT
ATOM      1  C   UNL     1       3.062   3.087  18.227  0.00  0.00    +0.000 A 
ATOM      2  C   UNL     1       4.125   3.465  17.407  0.00  0.00    +0.000 A 
ATOM      3  C   UNL     1       4.541   4.767  17.370  0.00  0.00    +0.000 A 
ATOM      4  C   UNL     1       3.734   5.767  17.925  0.00  0.00    +0.000 A 
ATOM      5  C   UNL     1       2.612   5.439  18.672  0.00  0.00    +0.000 A 
ATOM      6  C   UNL     1       2.254   4.080  18.789  0.00  0.00    +0.000 A 
ATOM      7  C   UNL     1       0.959   3.697  19.438  0.00  0.00    +0.000 C 
ATOM      8  C   UNL     1       4.182   7.113  17.409  0.00  0.00    +0.000 C 
ATOM      9  C   UNL     1       4.914   6.630  16.105  0.00  0.00    +0.000 C 
ATOM     10  C   UNL     1       5.704   5.425  16.672  0.00  0.00    +0.000 C 
ENDROOT
BRANCH   1  12
ATOM     11  C   UNL     1       3.968   0.997  18.779  0.00  0.00    +0.000 C 
ATOM     12  O   UNL     1       2.796   1.759  18.439  0.00  0.00    +0.000 OA
ENDBRANCH   1  12
BRANCH  10  13
ATOM     13  C   UNL     1       6.862   4.659  16.001  0.00  0.00    +0.000 C 
BRANCH  13  14
ATOM     14  C   UNL     1       7.021   4.677  14.476  0.00  0.00    +0.000 C 
BRANCH  14  15
ATOM     15  N   UNL     1       6.033   3.868  13.779  0.00  0.00    +0.000 N 
ATOM     16  C   UNL     1       6.147   3.700  12.389  0.00  0.00    +0.000 C 
ATOM     17  O   UNL     1       7.189   3.974  11.790  0.00  0.00    +0.000 OA
ATOM     18  H   UNL     1       5.078   3.874  14.132  0.00  0.00    +0.000 HD
BRANCH  16  19
ATOM     19  C   UNL     1       4.870   3.173  11.688  0.00  0.00    +0.000 C 
ATOM     20  F   UNL     1       5.059   1.921  11.172  0.00  0.00    +0.000 F 
ATOM     21  F   UNL     1       3.809   3.073  12.534  0.00  0.00    +0.000 F 
ATOM     22  F   UNL     1       4.476   3.960  10.652  0.00  0.00    +0.000 F 
ENDBRANCH  16  19
ENDBRANCH  14  15
ENDBRANCH  13  14
ENDBRANCH  10  13
TORSDOF 5
ENDMDL
MODEL 6
REMARK VINA RESULT:      -7.4      1.446      2.105
REMARK  Name = 
REMARK  7 active torsions:
REMARK  status: ('A' for Active; 'I' for Inactive)
REMARK    1  A    between atoms: C_1  and  O_2
REMARK    2  A    between atoms: O_2  and  C_3
REMARK    3  A    between atoms: C_8  and  C_9
REMARK    4  A    between atoms: C_12  and  C_13
REMARK    5  A    between atoms: C_13  and  C_14
REMARK    6  A    between atoms: C_14  and  N_15
REMARK    7  A    between atoms: C_16  and  C_18
REMARK                            x       y       z     vdW  Elec       q    Type
REMARK                         _______ _______ _______ _____ _____    ______ ____
ROOT
ATOM      1  C   UNL     1       3.295   3.623  19.052  0.00  0.00    +0.000 A 
ATOM      2  C   UNL     1       4.264   3.779  18.062  0.00  0.00    +0.000 A 
ATOM      3  C   UNL     1       4.680   5.027  17.693  0.00  0.00    +0.000 A 
ATOM      4  C   UNL     1       3.943   6.148  18.091  0.00  0.00    +0.000 A 
ATOM      5  C   UNL     1       2.907   6.027  19.006  0.00  0.00    +0.000 A 
ATOM      6  C   UNL     1       2.557   4.738  19.460  0.00  0.00    +0.000 A 
ATOM      7  C   UNL     1       1.337   4.546  20.309  0.00  0.00    +0.000 C 
ATOM      8  C   UNL     1       4.340   7.333  17.244  0.00  0.00    +0.000 C 
ATOM      9  C   UNL     1       4.924   6.553  16.012  0.00  0.00    +0.000 C 
ATOM     10  C   UNL     1       5.764   5.482  16.748  0.00  0.00    +0.000 C 
ENDROOT
BRANCH   1  12
ATOM     11  C   UNL     1       3.451   1.308  18.714  0.00  0.00    +0.000 C 
ATOM     12  O   UNL     1       3.046   2.382  19.581  0.00  0.00    +0.000 OA
ENDBRANCH   1  12
BRANCH  10  13
ATOM     13  C   UNL     1       6.839   4.553  16.148  0.00  0.00    +0.000 C 
BRANCH  13  14
ATOM     14  C   UNL     1       7.111   4.557  14.638  0.00  0.00    +0.000 C 
BRANCH  14  15
ATOM     15  N   UNL     1       6.208   3.704  13.882  0.00  0.00    +0.000 N 
ATOM     16  C   UNL     1       6.258   3.732  12.479  0.00  0.00    +0.000 C 
ATOM     17  O   UNL     1       7.210   4.233  11.878  0.00  0.00    +0.000 OA
ATOM     18  H   UNL     1       5.286   3.522  14.274  0.00  0.00    +0.000 HD
BRANCH  16  19
ATOM     19  C   UNL     1       5.029   3.112  11.768  0.00  0.00    +0.000 C 
ATOM     20  F   UNL     1       4.666   3.833  10.666  0.00  0.00    +0.000 F 
ATOM     21  F   UNL     1       5.260   1.845  11.327  0.00  0.00    +0.000 F 
ATOM     22  F   UNL     1       3.931   3.056  12.569  0.00  0.00    +0.000 F 
ENDBRANCH  16  19
ENDBRANCH  14  15
ENDBRANCH  13  14
ENDBRANCH  10  13
TORSDOF 5
ENDMDL
MODEL 7
REMARK VINA RESULT:      -7.4      3.111      3.448
REMARK  Name = 
REMARK  7 active torsions:
REMARK  status: ('A' for Active; 'I' for Inactive)
REMARK    1  A    between atoms: C_1  and  O_2
REMARK    2  A    between atoms: O_2  and  C_3
REMARK    3  A    between atoms: C_8  and  C_9
REMARK    4  A    between atoms: C_12  and  C_13
REMARK    5  A    between atoms: C_13  and  C_14
REMARK    6  A    between atoms: C_14  and  N_15
REMARK    7  A    between atoms: C_16  and  C_18
REMARK                            x       y       z     vdW  Elec       q    Type
REMARK                         _______ _______ _______ _____ _____    ______ ____
ROOT
ATOM      1  C   UNL     1       2.235   3.595  18.508  0.00  0.00    +0.000 A 
ATOM      2  C   UNL     1       2.653   4.686  17.747  0.00  0.00    +0.000 A 
ATOM      3  C   UNL     1       2.815   5.912  18.328  0.00  0.00    +0.000 A 
ATOM      4  C   UNL     1       2.294   6.147  19.606  0.00  0.00    +0.000 A 
ATOM      5  C   UNL     1       1.782   5.105  20.365  0.00  0.00    +0.000 A 
ATOM      6  C   UNL     1       1.718   3.819  19.787  0.00  0.00    +0.000 A 
ATOM      7  C   UNL     1       1.015   2.708  20.506  0.00  0.00    +0.000 C 
ATOM      8  C   UNL     1       2.227   7.635  19.852  0.00  0.00    +0.000 C 
ATOM      9  C   UNL     1       2.226   8.117  18.357  0.00  0.00    +0.000 C 
ATOM     10  C   UNL     1       3.345   7.215  17.783  0.00  0.00    +0.000 C 
ENDROOT
BRANCH   1  12
ATOM     11  C   UNL     1       3.577   1.704  18.165  0.00  0.00    +0.000 C 
ATOM     12  O   UNL     1       2.294   2.328  17.985  0.00  0.00    +0.000 OA
ENDBRANCH   1  12
BRANCH  10  13
ATOM     13  C   UNL     1       4.070   7.359  16.430  0.00  0.00    +0.000 C 
BRANCH  13  14
ATOM     14  C   UNL     1       5.171   6.368  16.031  0.00  0.00    +0.000 C 
BRANCH  14  15
ATOM     15  N   UNL     1       6.361   6.455  16.863  0.00  0.00    +0.000 N 
ATOM     16  C   UNL     1       6.673   5.387  17.720  0.00  0.00    +0.000 C 
ATOM     17  O   UNL     1       6.143   4.281  17.593  0.00  0.00    +0.000 OA
ATOM     18  H   UNL     1       6.635   7.373  17.206  0.00  0.00    +0.000 HD
BRANCH  16  19
ATOM     19  C   UNL     1       7.703   5.719  18.829  0.00  0.00    +0.000 C 
ATOM     20  F   UNL     1       8.689   4.777  18.900  0.00  0.00    +0.000 F 
ATOM     21  F   UNL     1       8.334   6.907  18.622  0.00  0.00    +0.000 F 
ATOM     22  F   UNL     1       7.142   5.781  20.066  0.00  0.00    +0.000 F 
ENDBRANCH  16  19
ENDBRANCH  14  15
ENDBRANCH  13  14
ENDBRANCH  10  13
TORSDOF 5
ENDMDL
MODEL 8
REMARK VINA RESULT:      -7.4      3.598      4.833
REMARK  Name = 
REMARK  7 active torsions:
REMARK  status: ('A' for Active; 'I' for Inactive)
REMARK    1  A    between atoms: C_1  and  O_2
REMARK    2  A    between atoms: O_2  and  C_3
REMARK    3  A    between atoms: C_8  and  C_9
REMARK    4  A    between atoms: C_12  and  C_13
REMARK    5  A    between atoms: C_13  and  C_14
REMARK    6  A    between atoms: C_14  and  N_15
REMARK    7  A    between atoms: C_16  and  C_18
REMARK                            x       y       z     vdW  Elec       q    Type
REMARK                         _______ _______ _______ _____ _____    ______ ____
ROOT
ATOM      1  C   UNL     1       2.109   7.414  19.275  0.00  0.00    +0.000 A 
ATOM      2  C   UNL     1       2.807   6.466  18.528  0.00  0.00    +0.000 A 
ATOM      3  C   UNL     1       2.791   5.149  18.893  0.00  0.00    +0.000 A 
ATOM      4  C   UNL     1       2.321   4.788  20.161  0.00  0.00    +0.000 A 
ATOM      5  C   UNL     1       1.701   5.721  20.979  0.00  0.00    +0.000 A 
ATOM      6  C   UNL     1       1.631   7.060  20.541  0.00  0.00    +0.000 A 
ATOM      7  C   UNL     1       1.127   8.127  21.465  0.00  0.00    +0.000 C 
ATOM      8  C   UNL     1       2.778   3.386  20.482  0.00  0.00    +0.000 C 
ATOM      9  C   UNL     1       3.998   3.307  19.495  0.00  0.00    +0.000 C 
ATOM     10  C   UNL     1       3.355   3.920  18.227  0.00  0.00    +0.000 C 
ENDROOT
BRANCH   1  12
ATOM     11  C   UNL     1       2.530   8.874  17.491  0.00  0.00    +0.000 C 
ATOM     12  O   UNL     1       1.934   8.683  18.786  0.00  0.00    +0.000 OA
ENDBRANCH   1  12
BRANCH  10  13
ATOM     13  C   UNL     1       3.902   3.887  16.785  0.00  0.00    +0.000 C 
BRANCH  13  14
ATOM     14  C   UNL     1       5.395   4.121  16.517  0.00  0.00    +0.000 C 
BRANCH  14  15
ATOM     15  N   UNL     1       6.005   5.079  17.425  0.00  0.00    +0.000 N 
ATOM     16  C   UNL     1       7.359   4.926  17.769  0.00  0.00    +0.000 C 
ATOM     17  O   UNL     1       8.108   4.190  17.124  0.00  0.00    +0.000 OA
ATOM     18  H   UNL     1       5.421   5.481  18.156  0.00  0.00    +0.000 HD
BRANCH  16  19
ATOM     19  C   UNL     1       7.811   5.728  19.014  0.00  0.00    +0.000 C 
ATOM     20  F   UNL     1       6.793   5.877  19.915  0.00  0.00    +0.000 F 
ATOM     21  F   UNL     1       8.824   5.122  19.691  0.00  0.00    +0.000 F 
ATOM     22  F   UNL     1       8.237   6.982  18.706  0.00  0.00    +0.000 F 
ENDBRANCH  16  19
ENDBRANCH  14  15
ENDBRANCH  13  14
ENDBRANCH  10  13
TORSDOF 5
ENDMDL
MODEL 9
REMARK VINA RESULT:      -7.3      1.279      1.741
REMARK  Name = 
REMARK  7 active torsions:
REMARK  status: ('A' for Active; 'I' for Inactive)
REMARK    1  A    between atoms: C_1  and  O_2
REMARK    2  A    between atoms: O_2  and  C_3
REMARK    3  A    between atoms: C_8  and  C_9
REMARK    4  A    between atoms: C_12  and  C_13
REMARK    5  A    between atoms: C_13  and  C_14
REMARK    6  A    between atoms: C_14  and  N_15
REMARK    7  A    between atoms: C_16  and  C_18
REMARK                            x       y       z     vdW  Elec       q    Type
REMARK                         _______ _______ _______ _____ _____    ______ ____
ROOT
ATOM      1  C   UNL     1       3.437   3.616  19.122  0.00  0.00    +0.000 A 
ATOM      2  C   UNL     1       4.487   4.164  18.387  0.00  0.00    +0.000 A 
ATOM      3  C   UNL     1       4.522   5.506  18.127  0.00  0.00    +0.000 A 
ATOM      4  C   UNL     1       3.378   6.283  18.343  0.00  0.00    +0.000 A 
ATOM      5  C   UNL     1       2.272   5.751  18.989  0.00  0.00    +0.000 A 
ATOM      6  C   UNL     1       2.292   4.386  19.347  0.00  0.00    +0.000 A 
ATOM      7  C   UNL     1       1.056   3.733  19.887  0.00  0.00    +0.000 C 
ATOM      8  C   UNL     1       3.522   7.597  17.613  0.00  0.00    +0.000 C 
ATOM      9  C   UNL     1       4.593   7.156  16.552  0.00  0.00    +0.000 C 
ATOM     10  C   UNL     1       5.565   6.369  17.463  0.00  0.00    +0.000 C 
ENDROOT
BRANCH   1  12
ATOM     11  C   UNL     1       3.708   1.366  18.522  0.00  0.00    +0.000 C 
ATOM     12  O   UNL     1       3.517   2.325  19.577  0.00  0.00    +0.000 OA
ENDBRANCH   1  12
BRANCH  10  13
ATOM     13  C   UNL     1       6.997   5.901  17.130  0.00  0.00    +0.000 C 
BRANCH  13  14
ATOM     14  C   UNL     1       7.232   4.532  16.478  0.00  0.00    +0.000 C 
BRANCH  14  15
ATOM     15  N   UNL     1       7.249   4.576  15.025  0.00  0.00    +0.000 N 
ATOM     16  C   UNL     1       6.116   4.141  14.316  0.00  0.00    +0.000 C 
ATOM     17  O   UNL     1       5.027   3.990  14.872  0.00  0.00    +0.000 OA
ATOM     18  H   UNL     1       8.137   4.413  14.554  0.00  0.00    +0.000 HD
BRANCH  16  19
ATOM     19  C   UNL     1       6.358   3.852  12.813  0.00  0.00    +0.000 C 
ATOM     20  F   UNL     1       6.855   2.595  12.615  0.00  0.00    +0.000 F 
ATOM     21  F   UNL     1       5.217   3.925  12.074  0.00  0.00    +0.000 F 
ATOM     22  F   UNL     1       7.248   4.711  12.249  0.00  0.00    +0.000 F 
ENDBRANCH  16  19
ENDBRANCH  14  15
ENDBRANCH  13  14
ENDBRANCH  10  13
TORSDOF 5
ENDMDL
