MODEL 1
REMARK VINA RESULT:      -6.0      0.000      0.000
REMARK  Name = 
REMARK  5 active torsions:
REMARK  status: ('A' for Active; 'I' for Inactive)
REMARK    1  A    between atoms: C_1  and  C_2
REMARK    2  A    between atoms: N_4  and  C_5
REMARK    3  A    between atoms: C_5  and  C_6
REMARK    4  A    between atoms: C_6  and  C_7
REMARK    5  A    between atoms: C_10  and  O_11
REMARK                            x       y       z     vdW  Elec       q    Type
REMARK                         _______ _______ _______ _____ _____    ______ ____
ROOT
ATOM      1  C   UNL     1       2.645   5.967  18.498  0.00  0.00    +0.000 A 
ATOM      2  C   UNL     1       2.389   6.131  19.868  0.00  0.00    +0.000 A 
ATOM      3  C   UNL     1       1.697   5.159  20.594  0.00  0.00    +0.000 A 
ATOM      4  C   UNL     1       1.227   4.027  19.943  0.00  0.00    +0.000 A 
ATOM      5  C   UNL     1       1.429   3.860  18.579  0.00  0.00    +0.000 A 
ATOM      6  C   UNL     1       2.134   4.828  17.857  0.00  0.00    +0.000 A 
ENDROOT
BRANCH   4   7
ATOM      7  O   UNL     1       0.549   3.054  20.617  0.00  0.00    +0.000 OA
ATOM      8  H   UNL     1       0.569   3.269  21.563  0.00  0.00    +0.000 HD
ENDBRANCH   4   7
BRANCH   1   9
ATOM      9  C   UNL     1       3.396   7.009  17.694  0.00  0.00    +0.000 C 
BRANCH   9  10
ATOM     10  C   UNL     1       4.690   6.493  17.050  0.00  0.00    +0.000 C 
BRANCH  10  14
ATOM     11  C   UNL     1       7.918   5.906  18.925  0.00  0.00    +0.000 C 
ATOM     12  C   UNL     1       7.040   6.240  17.752  0.00  0.00    +0.000 C 
ATOM     13  O   UNL     1       7.490   6.602  16.670  0.00  0.00    +0.000 OA
ATOM     14  N   UNL     1       5.696   6.118  18.024  0.00  0.00    +0.000 N 
ATOM     15  H   UNL     1       5.396   5.789  18.935  0.00  0.00    +0.000 HD
ENDBRANCH  10  14
ENDBRANCH   9  10
ENDBRANCH   1   9
TORSDOF 4
ENDMDL
MODEL 2
REMARK VINA RESULT:      -5.9      1.593      2.267
REMARK  Name = 
REMARK  5 active torsions:
REMARK  status: ('A' for Active; 'I' for Inactive)
REMARK    1  A    between atoms: C_1  and  C_2
REMARK    2  A    between atoms: N_4  and  C_5
REMARK    3  A    between atoms: C_5  and  C_6
REMARK    4  A    between atoms: C_6  and  C_7
REMARK    5  A    between atoms: C_10  and  O_11
REMARK                            x       y       z     vdW  Elec       q    Type
REMARK                         _______ _______ _______ _____ _____    ______ ____
ROOT
ATOM      1  C   UNL     1       2.939   5.671  18.371  0.00  0.00    +0.000 A 
ATOM      2  C   UNL     1       2.266   4.619  17.729  0.00  0.00    +0.000 A 
ATOM      3  C   UNL     1       1.421   3.763  18.439  0.00  0.00    +0.000 A 
ATOM      4  C   UNL     1       1.268   3.936  19.807  0.00  0.00    +0.000 A 
ATOM      5  C   UNL     1       1.955   4.942  20.475  0.00  0.00    +0.000 A 
ATOM      6  C   UNL     1       2.790   5.805  19.760  0.00  0.00    +0.000 A 
ENDROOT
BRANCH   4   7
ATOM      7  O   UNL     1       0.449   3.124  20.535  0.00  0.00    +0.000 OA
ATOM      8  H   UNL     1      -0.019   2.535  19.922  0.00  0.00    +0.000 HD
ENDBRANCH   4   7
BRANCH   1   9
ATOM      9  C   UNL     1       3.858   6.611  17.618  0.00  0.00    +0.000 C 
BRANCH   9  10
ATOM     10  C   UNL     1       5.257   6.040  17.348  0.00  0.00    +0.000 C 
BRANCH  10  14
ATOM     11  C   UNL     1       6.418   4.157  14.285  0.00  0.00    +0.000 C 
ATOM     12  C   UNL     1       6.523   4.782  15.647  0.00  0.00    +0.000 C 
ATOM     13  O   UNL     1       7.524   4.678  16.348  0.00  0.00    +0.000 OA
ATOM     14  N   UNL     1       5.384   5.457  16.028  0.00  0.00    +0.000 N 
ATOM     15  H   UNL     1       4.603   5.523  15.386  0.00  0.00    +0.000 HD
ENDBRANCH  10  14
ENDBRANCH   9  10
ENDBRANCH   1   9
TORSDOF 4
ENDMDL
MODEL 3
REMARK VINA RESULT:      -5.9      2.320      2.857
REMARK  Name = 
REMARK  5 active torsions:
REMARK  status: ('A' for Active; 'I' for Inactive)
REMARK    1  A    between atoms: C_1  and  C_2
REMARK    2  A    between atoms: N_4  and  C_5
REMARK    3  A    between atoms: C_5  and  C_6
REMARK    4  A    between atoms: C_6  and  C_7
REMARK    5  A    between atoms: C_10  and  O_11
REMARK                            x       y       z     vdW  Elec       q    Type
REMARK                         _______ _______ _______ _____ _____    ______ ____
ROOT
ATOM      1  C   UNL     1       4.212   4.371  18.481  0.00  0.00    +0.000 A 
ATOM      2  C   UNL     1       4.078   3.137  19.136  0.00  0.00    +0.000 A 
ATOM      3  C   UNL     1       2.871   2.433  19.109  0.00  0.00    +0.000 A 
ATOM      4  C   UNL     1       1.779   2.977  18.449  0.00  0.00    +0.000 A 
ATOM      5  C   UNL     1       1.872   4.217  17.829  0.00  0.00    +0.000 A 
ATOM      6  C   UNL     1       3.083   4.913  17.847  0.00  0.00    +0.000 A 
ENDROOT
BRANCH   4   7
ATOM      7  O   UNL     1       0.585   2.320  18.396  0.00  0.00    +0.000 OA
ATOM      8  H   UNL     1       0.741   1.388  18.618  0.00  0.00    +0.000 HD
ENDBRANCH   4   7
BRANCH   1   9
ATOM      9  C   UNL     1       5.512   5.149  18.498  0.00  0.00    +0.000 C 
BRANCH   9  10
ATOM     10  C   UNL     1       6.657   4.475  17.730  0.00  0.00    +0.000 C 
BRANCH  10  14
ATOM     11  C   UNL     1       6.321   3.924  14.007  0.00  0.00    +0.000 C 
ATOM     12  C   UNL     1       6.761   4.608  15.271  0.00  0.00    +0.000 C 
ATOM     13  O   UNL     1       7.504   5.584  15.271  0.00  0.00    +0.000 OA
ATOM     14  N   UNL     1       6.264   4.019  16.412  0.00  0.00    +0.000 N 
ATOM     15  H   UNL     1       5.634   3.229  16.335  0.00  0.00    +0.000 HD
ENDBRANCH  10  14
ENDBRANCH   9  10
ENDBRANCH   1   9
TORSDOF 4
ENDMDL
MODEL 4
REMARK VINA RESULT:      -5.8      2.240      2.528
REMARK  Name = 
REMARK  5 active torsions:
REMARK  status: ('A' for Active; 'I' for Inactive)
REMARK    1  A    between atoms: C_1  and  C_2
REMARK    2  A    between atoms: N_4  and  C_5
REMARK    3  A    between atoms: C_5  and  C_6
REMARK    4  A    between atoms: C_6  and  C_7
REMARK    5  A    between atoms: C_10  and  O_11
REMARK                            x       y       z     vdW  Elec       q    Type
REMARK                         _______ _______ _______ _____ _____    ______ ____
ROOT
ATOM      1  C   UNL     1       3.549   5.003  18.107  0.00  0.00    +0.000 A 
ATOM      2  C   UNL     1       3.276   5.495  19.393  0.00  0.00    +0.000 A 
ATOM      3  C   UNL     1       2.221   4.982  20.153  0.00  0.00    +0.000 A 
ATOM      4  C   UNL     1       1.411   3.992  19.615  0.00  0.00    +0.000 A 
ATOM      5  C   UNL     1       1.633   3.518  18.328  0.00  0.00    +0.000 A 
ATOM      6  C   UNL     1       2.696   4.023  17.575  0.00  0.00    +0.000 A 
ENDROOT
BRANCH   4   7
ATOM      7  O   UNL     1       0.374   3.463  20.325  0.00  0.00    +0.000 OA
ATOM      8  H   UNL     1       0.738   3.011  21.103  0.00  0.00    +0.000 HD
ENDBRANCH   4   7
BRANCH   1   9
ATOM      9  C   UNL     1       4.689   5.545  17.268  0.00  0.00    +0.000 C 
BRANCH   9  10
ATOM     10  C   UNL     1       5.750   4.499  16.901  0.00  0.00    +0.000 C 
BRANCH  10  14
ATOM     11  C   UNL     1       6.351   3.826  13.232  0.00  0.00    +0.000 C 
ATOM     12  C   UNL     1       6.549   4.484  14.568  0.00  0.00    +0.000 C 
ATOM     13  O   UNL     1       7.434   5.306  14.778  0.00  0.00    +0.000 OA
ATOM     14  N   UNL     1       5.655   4.055  15.525  0.00  0.00    +0.000 N 
ATOM     15  H   UNL     1       4.933   3.390  15.274  0.00  0.00    +0.000 HD
ENDBRANCH  10  14
ENDBRANCH   9  10
ENDBRANCH   1   9
TORSDOF 4
ENDMDL
MODEL 5
REMARK VINA RESULT:      -5.8      2.252      2.744
REMARK  Name = 
REMARK  5 active torsions:
REMARK  status: ('A' for Active; 'I' for Inactive)
REMARK    1  A    between atoms: C_1  and  C_2
REMARK    2  A    between atoms: N_4  and  C_5
REMARK    3  A    between atoms: C_5  and  C_6
REMARK    4  A    between atoms: C_6  and  C_7
REMARK    5  A    between atoms: C_10  and  O_11
REMARK                            x       y       z     vdW  Elec       q    Type
REMARK                         _______ _______ _______ _____ _____    ______ ____
ROOT
ATOM      1  C   UNL     1       3.942   4.796  18.023  0.00  0.00    +0.000 A 
ATOM      2  C   UNL     1       2.571   5.011  17.813  0.00  0.00    +0.000 A 
ATOM      3  C   UNL     1       1.646   3.975  17.966  0.00  0.00    +0.000 A 
ATOM      4  C   UNL     1       2.094   2.705  18.300  0.00  0.00    +0.000 A 
ATOM      5  C   UNL     1       3.449   2.455  18.471  0.00  0.00    +0.000 A 
ATOM      6  C   UNL     1       4.372   3.496  18.331  0.00  0.00    +0.000 A 
ENDROOT
BRANCH   4   7
ATOM      7  O   UNL     1       1.223   1.668  18.461  0.00  0.00    +0.000 OA
ATOM      8  H   UNL     1       0.669   1.854  19.237  0.00  0.00    +0.000 HD
ENDBRANCH   4   7
BRANCH   1   9
ATOM      9  C   UNL     1       4.960   5.907  17.865  0.00  0.00    +0.000 C 
BRANCH   9  10
ATOM     10  C   UNL     1       5.042   6.487  16.446  0.00  0.00    +0.000 C 
BRANCH  10  14
ATOM     11  C   UNL     1       6.271   3.894  13.987  0.00  0.00    +0.000 C 
ATOM     12  C   UNL     1       6.371   5.032  14.964  0.00  0.00    +0.000 C 
ATOM     13  O   UNL     1       7.444   5.506  15.322  0.00  0.00    +0.000 OA
ATOM     14  N   UNL     1       5.147   5.466  15.423  0.00  0.00    +0.000 N 
ATOM     15  H   UNL     1       4.299   5.044  15.064  0.00  0.00    +0.000 HD
ENDBRANCH  10  14
ENDBRANCH   9  10
ENDBRANCH   1   9
TORSDOF 4
ENDMDL
MODEL 6
REMARK VINA RESULT:      -5.8      2.204      2.751
REMARK  Name = 
REMARK  5 active torsions:
REMARK  status: ('A' for Active; 'I' for Inactive)
REMARK    1  A    between atoms: C_1  and  C_2
REMARK    2  A    between atoms: N_4  and  C_5
REMARK    3  A    between atoms: C_5  and  C_6
REMARK    4  A    between atoms: C_6  and  C_7
REMARK    5  A    between atoms: C_10  and  O_11
REMARK                            x       y       z     vdW  Elec       q    Type
REMARK                         _______ _______ _______ _____ _____    ______ ____
ROOT
ATOM      1  C   UNL     1       4.115   4.548  18.620  0.00  0.00    +0.000 A 
ATOM      2  C   UNL     1       3.007   4.976  17.873  0.00  0.00    +0.000 A 
ATOM      3  C   UNL     1       1.812   4.253  17.874  0.00  0.00    +0.000 A 
ATOM      4  C   UNL     1       1.730   3.074  18.601  0.00  0.00    +0.000 A 
ATOM      5  C   UNL     1       2.824   2.604  19.315  0.00  0.00    +0.000 A 
ATOM      6  C   UNL     1       4.015   3.337  19.323  0.00  0.00    +0.000 A 
ENDROOT
BRANCH   4   7
ATOM      7  O   UNL     1       0.580   2.341  18.631  0.00  0.00    +0.000 OA
ATOM      8  H   UNL     1       0.748   1.532  19.141  0.00  0.00    +0.000 HD
ENDBRANCH   4   7
BRANCH   1   9
ATOM      9  C   UNL     1       5.420   5.319  18.633  0.00  0.00    +0.000 C 
BRANCH   9  10
ATOM     10  C   UNL     1       6.582   4.600  17.935  0.00  0.00    +0.000 C 
BRANCH  10  14
ATOM     11  C   UNL     1       6.324   3.916  14.228  0.00  0.00    +0.000 C 
ATOM     12  C   UNL     1       6.718   4.658  15.474  0.00  0.00    +0.000 C 
ATOM     13  O   UNL     1       7.423   5.661  15.453  0.00  0.00    +0.000 OA
ATOM     14  N   UNL     1       6.226   4.087  16.627  0.00  0.00    +0.000 N 
ATOM     15  H   UNL     1       5.628   3.271  16.568  0.00  0.00    +0.000 HD
ENDBRANCH  10  14
ENDBRANCH   9  10
ENDBRANCH   1   9
TORSDOF 4
ENDMDL
MODEL 7
REMARK VINA RESULT:      -5.8      1.532      1.919
REMARK  Name = 
REMARK  5 active torsions:
REMARK  status: ('A' for Active; 'I' for Inactive)
REMARK    1  A    between atoms: C_1  and  C_2
REMARK    2  A    between atoms: N_4  and  C_5
REMARK    3  A    between atoms: C_5  and  C_6
REMARK    4  A    between atoms: C_6  and  C_7
REMARK    5  A    between atoms: C_10  and  O_11
REMARK                            x       y       z     vdW  Elec       q    Type
REMARK                         _______ _______ _______ _____ _____    ______ ____
ROOT
ATOM      1  C   UNL     1       3.638   3.595  17.886  0.00  0.00    +0.000 A 
ATOM      2  C   UNL     1       3.936   2.939  19.091  0.00  0.00    +0.000 A 
ATOM      3  C   UNL     1       2.948   2.714  20.053  0.00  0.00    +0.000 A 
ATOM      4  C   UNL     1       1.659   3.175  19.827  0.00  0.00    +0.000 A 
ATOM      5  C   UNL     1       1.347   3.864  18.663  0.00  0.00    +0.000 A 
ATOM      6  C   UNL     1       2.333   4.077  17.696  0.00  0.00    +0.000 A 
ENDROOT
BRANCH   4   7
ATOM      7  O   UNL     1       0.666   2.972  20.741  0.00  0.00    +0.000 OA
ATOM      8  H   UNL     1      -0.017   2.417  20.330  0.00  0.00    +0.000 HD
ENDBRANCH   4   7
BRANCH   1   9
ATOM      9  C   UNL     1       4.694   3.848  16.829  0.00  0.00    +0.000 C 
BRANCH   9  10
ATOM     10  C   UNL     1       4.886   5.328  16.474  0.00  0.00    +0.000 C 
BRANCH  10  14
ATOM     11  C   UNL     1       7.789   7.151  18.066  0.00  0.00    +0.000 C 
ATOM     12  C   UNL     1       7.065   6.342  17.027  0.00  0.00    +0.000 C 
ATOM     13  O   UNL     1       7.578   6.024  15.959  0.00  0.00    +0.000 OA
ATOM     14  N   UNL     1       5.776   6.018  17.387  0.00  0.00    +0.000 N 
ATOM     15  H   UNL     1       5.426   6.293  18.297  0.00  0.00    +0.000 HD
ENDBRANCH  10  14
ENDBRANCH   9  10
ENDBRANCH   1   9
TORSDOF 4
ENDMDL
MODEL 8
REMARK VINA RESULT:      -5.8      2.162      2.638
REMARK  Name = 
REMARK  5 active torsions:
REMARK  status: ('A' for Active; 'I' for Inactive)
REMARK    1  A    between atoms: C_1  and  C_2
REMARK    2  A    between atoms: N_4  and  C_5
REMARK    3  A    between atoms: C_5  and  C_6
REMARK    4  A    between atoms: C_6  and  C_7
REMARK    5  A    between atoms: C_10  and  O_11
REMARK                            x       y       z     vdW  Elec       q    Type
REMARK                         _______ _______ _______ _____ _____    ______ ____
ROOT
ATOM      1  C   UNL     1       3.455   5.159  17.876  0.00  0.00    +0.000 A 
ATOM      2  C   UNL     1       4.244   4.076  18.294  0.00  0.00    +0.000 A 
ATOM      3  C   UNL     1       3.671   2.836  18.585  0.00  0.00    +0.000 A 
ATOM      4  C   UNL     1       2.295   2.680  18.488  0.00  0.00    +0.000 A 
ATOM      5  C   UNL     1       1.487   3.747  18.117  0.00  0.00    +0.000 A 
ATOM      6  C   UNL     1       2.064   4.984  17.814  0.00  0.00    +0.000 A 
ENDROOT
BRANCH   4   7
ATOM      7  O   UNL     1       1.698   1.485  18.760  0.00  0.00    +0.000 OA
ATOM      8  H   UNL     1       2.384   0.798  18.773  0.00  0.00    +0.000 HD
ENDBRANCH   4   7
BRANCH   1   9
ATOM      9  C   UNL     1       4.058   6.512  17.554  0.00  0.00    +0.000 C 
BRANCH   9  10
ATOM     10  C   UNL     1       5.349   6.444  16.728  0.00  0.00    +0.000 C 
BRANCH  10  14
ATOM     11  C   UNL     1       6.074   4.033  13.910  0.00  0.00    +0.000 C 
ATOM     12  C   UNL     1       6.379   5.043  14.979  0.00  0.00    +0.000 C 
ATOM     13  O   UNL     1       7.524   5.375  15.270  0.00  0.00    +0.000 OA
ATOM     14  N   UNL     1       5.254   5.535  15.603  0.00  0.00    +0.000 N 
ATOM     15  H   UNL     1       4.337   5.234  15.293  0.00  0.00    +0.000 HD
ENDBRANCH  10  14
ENDBRANCH   9  10
ENDBRANCH   1   9
TORSDOF 4
ENDMDL
MODEL 9
REMARK VINA RESULT:      -5.8      2.350      5.233
REMARK  Name = 
REMARK  5 active torsions:
REMARK  status: ('A' for Active; 'I' for Inactive)
REMARK    1  A    between atoms: C_1  and  C_2
REMARK    2  A    between atoms: N_4  and  C_5
REMARK    3  A    between atoms: C_5  and  C_6
REMARK    4  A    between atoms: C_6  and  C_7
REMARK    5  A    between atoms: C_10  and  O_11
REMARK                            x       y       z     vdW  Elec       q    Type
REMARK                         _______ _______ _______ _____ _____    ______ ____
ROOT
ATOM      1  C   UNL     1       3.791   5.180  17.982  0.00  0.00    +0.000 A 
ATOM      2  C   UNL     1       4.562   5.366  19.140  0.00  0.00    +0.000 A 
ATOM      3  C   UNL     1       5.931   5.090  19.147  0.00  0.00    +0.000 A 
ATOM      4  C   UNL     1       6.533   4.593  18.000  0.00  0.00    +0.000 A 
ATOM      5  C   UNL     1       5.785   4.359  16.853  0.00  0.00    +0.000 A 
ATOM      6  C   UNL     1       4.418   4.648  16.844  0.00  0.00    +0.000 A 
ENDROOT
BRANCH   4   7
ATOM      7  O   UNL     1       7.868   4.314  17.965  0.00  0.00    +0.000 OA
ATOM      8  H   UNL     1       8.172   4.399  17.048  0.00  0.00    +0.000 HD
ENDBRANCH   4   7
BRANCH   1   9
ATOM      9  C   UNL     1       2.305   5.475  17.953  0.00  0.00    +0.000 C 
BRANCH   9  10
ATOM     10  C   UNL     1       1.414   4.235  18.104  0.00  0.00    +0.000 C 
BRANCH  10  14
ATOM     11  C   UNL     1       1.522   2.617  21.517  0.00  0.00    +0.000 C 
ATOM     12  C   UNL     1       1.797   2.767  20.047  0.00  0.00    +0.000 C 
ATOM     13  O   UNL     1       2.512   1.988  19.424  0.00  0.00    +0.000 OA
ATOM     14  N   UNL     1       1.187   3.866  19.487  0.00  0.00    +0.000 N 
ATOM     15  H   UNL     1       0.589   4.453  20.057  0.00  0.00    +0.000 HD
ENDBRANCH  10  14
ENDBRANCH   9  10
ENDBRANCH   1   9
TORSDOF 4
ENDMDL
