MODEL 1
REMARK VINA RESULT:      -8.6      0.000      0.000
REMARK  Name = 
REMARK  9 active torsions:
REMARK  status: ('A' for Active; 'I' for Inactive)
REMARK    1  A    between atoms: C_1  and  C_2
REMARK    2  A    between atoms: C_2  and  C_3
REMARK    3  A    between atoms: C_2  and  N_4
REMARK    4  A    between atoms: N_4  and  C_5
REMARK    5  A    between atoms: C_7  and  N_8
REMARK    6  A    between atoms: N_8  and  C_9
REMARK    7  A    between atoms: C_20  and  C_21
REMARK    8  A    between atoms: C_24  and  C_25
REMARK    9  A    between atoms: C_30  and  O_31
REMARK                            x       y       z     vdW  Elec       q    Type
REMARK                         _______ _______ _______ _____ _____    ______ ____
ROOT
ATOM      1  C   UNL     1      -0.564  10.752  18.903  0.00  0.00    +0.000 A 
ATOM      2  C   UNL     1      -1.279  11.635  19.719  0.00  0.00    +0.000 A 
ATOM      3  C   UNL     1      -0.817  12.047  20.960  0.00  0.00    +0.000 A 
ATOM      4  N   UNL     1       0.315  11.553  21.471  0.00  0.00    +0.000 NA
ATOM      5  C   UNL     1       0.966  10.615  20.738  0.00  0.00    +0.000 A 
ATOM      6  C   UNL     1       0.611  10.176  19.451  0.00  0.00    +0.000 A 
ENDROOT
BRANCH   6   7
ATOM      7  C   UNL     1       1.469   9.164  18.837  0.00  0.00    +0.000 A 
ATOM      8  N   UNL     1       1.812   9.165  17.559  0.00  0.00    +0.000 NA
ATOM      9  N   UNL     1       2.599   8.090  17.209  0.00  0.00    +0.000 NA
ATOM     10  C   UNL     1       2.802   7.278  18.223  0.00  0.00    +0.000 A 
ATOM     11  S   UNL     1       2.027   7.767  19.677  0.00  0.00    +0.000 S 
BRANCH  10  12
ATOM     12  C   UNL     1       3.603   6.063  18.180  0.00  0.00    +0.000 C 
ATOM     13  O   UNL     1       4.836   6.087  18.254  0.00  0.00    +0.000 OA
ATOM     14  N   UNL     1       2.957   4.830  18.090  0.00  0.00    +0.000 N 
ATOM     15  C   UNL     1       3.717   3.594  18.164  0.00  0.00    +0.000 C 
ATOM     16  C   UNL     1       2.687   2.482  18.343  0.00  0.00    +0.000 C 
ATOM     17  C   UNL     1       1.408   3.209  18.753  0.00  0.00    +0.000 C 
ATOM     18  C   UNL     1       1.529   4.549  18.031  0.00  0.00    +0.000 C 
BRANCH  17  19
ATOM     19  O   UNL     1       0.248   2.478  18.398  0.00  0.00    +0.000 OA
ATOM     20  H   UNL     1      -0.239   2.250  19.208  0.00  0.00    +0.000 HD
ENDBRANCH  17  19
ENDBRANCH  10  12
ENDBRANCH   6   7
BRANCH   1  21
ATOM     21  N   UNL     1      -1.052  10.408  17.625  0.00  0.00    +0.000 N 
ATOM     22  H   UNL     1      -0.401  10.719  16.903  0.00  0.00    +0.000 HD
BRANCH  21  24
ATOM     23  C   UNL     1      -2.577  10.795  15.732  0.00  0.00    +0.000 C 
ATOM     24  C   UNL     1      -2.460  10.655  17.246  0.00  0.00    +0.000 C 
ATOM     25  C   UNL     1      -3.366   9.515  17.721  0.00  0.00    +0.000 C 
ENDBRANCH  21  24
ENDBRANCH   1  21
BRANCH   3  26
ATOM     26  N   UNL     1      -1.551  13.071  21.605  0.00  0.00    +0.000 N 
ATOM     27  H   UNL     1      -1.367  13.980  21.203  0.00  0.00    +0.000 HD
BRANCH  26  28
ATOM     28  C   UNL     1      -2.785  12.935  22.263  0.00  0.00    +0.000 A 
ATOM     29  C   UNL     1      -2.836  12.694  23.638  0.00  0.00    +0.000 A 
ATOM     30  C   UNL     1      -4.050  12.509  24.304  0.00  0.00    +0.000 A 
ATOM     31  C   UNL     1      -5.253  12.570  23.581  0.00  0.00    +0.000 A 
ATOM     32  N   UNL     1      -6.522  12.393  24.107  0.00  0.00    +0.000 NA
ATOM     33  C   UNL     1      -7.411  12.513  23.148  0.00  0.00    +0.000 A 
ATOM     34  S   UNL     1      -6.805  12.846  21.583  0.00  0.00    +0.000 S 
ATOM     35  C   UNL     1      -5.200  12.829  22.210  0.00  0.00    +0.000 A 
ATOM     36  C   UNL     1      -3.979  13.023  21.534  0.00  0.00    +0.000 A 
ENDBRANCH  26  28
ENDBRANCH   3  26
TORSDOF 7
ENDMDL
MODEL 2
REMARK VINA RESULT:      -8.4      4.019      6.158
REMARK  Name = 
REMARK  9 active torsions:
REMARK  status: ('A' for Active; 'I' for Inactive)
REMARK    1  A    between atoms: C_1  and  C_2
REMARK    2  A    between atoms: C_2  and  C_3
REMARK    3  A    between atoms: C_2  and  N_4
REMARK    4  A    between atoms: N_4  and  C_5
REMARK    5  A    between atoms: C_7  and  N_8
REMARK    6  A    between atoms: N_8  and  C_9
REMARK    7  A    between atoms: C_20  and  C_21
REMARK    8  A    between atoms: C_24  and  C_25
REMARK    9  A    between atoms: C_30  and  O_31
REMARK                            x       y       z     vdW  Elec       q    Type
REMARK                         _______ _______ _______ _____ _____    ______ ____
ROOT
ATOM      1  C   UNL     1       2.463   6.383  19.813  0.00  0.00    +0.000 A 
ATOM      2  C   UNL     1       1.713   7.370  20.461  0.00  0.00    +0.000 A 
ATOM      3  C   UNL     1       1.356   8.562  19.847  0.00  0.00    +0.000 A 
ATOM      4  N   UNL     1       1.783   8.855  18.615  0.00  0.00    +0.000 NA
ATOM      5  C   UNL     1       2.599   7.954  18.013  0.00  0.00    +0.000 A 
ATOM      6  C   UNL     1       2.970   6.699  18.527  0.00  0.00    +0.000 A 
ENDROOT
BRANCH   6   7
ATOM      7  C   UNL     1       3.850   5.878  17.697  0.00  0.00    +0.000 A 
ATOM      8  N   UNL     1       3.806   4.557  17.658  0.00  0.00    +0.000 NA
ATOM      9  N   UNL     1       4.758   4.007  16.828  0.00  0.00    +0.000 NA
ATOM     10  C   UNL     1       5.527   4.925  16.286  0.00  0.00    +0.000 A 
ATOM     11  S   UNL     1       5.148   6.530  16.770  0.00  0.00    +0.000 S 
BRANCH  10  12
ATOM     12  C   UNL     1       6.614   4.667  15.352  0.00  0.00    +0.000 C 
ATOM     13  O   UNL     1       7.798   4.680  15.702  0.00  0.00    +0.000 OA
ATOM     14  N   UNL     1       6.307   4.358  14.026  0.00  0.00    +0.000 N 
ATOM     15  C   UNL     1       7.356   3.979  13.097  0.00  0.00    +0.000 C 
ATOM     16  C   UNL     1       6.643   3.423  11.868  0.00  0.00    +0.000 C 
ATOM     17  C   UNL     1       5.215   3.161  12.340  0.00  0.00    +0.000 C 
ATOM     18  C   UNL     1       4.999   4.244  13.395  0.00  0.00    +0.000 C 
BRANCH  17  19
ATOM     19  O   UNL     1       4.287   3.217  11.273  0.00  0.00    +0.000 OA
ATOM     20  H   UNL     1       4.760   3.454  10.457  0.00  0.00    +0.000 HD
ENDBRANCH  17  19
ENDBRANCH  10  12
ENDBRANCH   6   7
BRANCH   1  21
ATOM     21  N   UNL     1       2.752   5.166  20.464  0.00  0.00    +0.000 N 
ATOM     22  H   UNL     1       3.488   4.664  19.964  0.00  0.00    +0.000 HD
BRANCH  21  24
ATOM     23  C   UNL     1       0.917   3.705  19.719  0.00  0.00    +0.000 C 
ATOM     24  C   UNL     1       1.676   4.261  20.920  0.00  0.00    +0.000 C 
ATOM     25  C   UNL     1       2.243   3.101  21.742  0.00  0.00    +0.000 C 
ENDBRANCH  21  24
ENDBRANCH   1  21
BRANCH   3  26
ATOM     26  N   UNL     1       0.456   9.396  20.551  0.00  0.00    +0.000 N 
ATOM     27  H   UNL     1       0.358   9.118  21.518  0.00  0.00    +0.000 HD
BRANCH  26  28
ATOM     28  C   UNL     1       0.160  10.741  20.273  0.00  0.00    +0.000 A 
ATOM     29  C   UNL     1      -0.926  11.079  19.462  0.00  0.00    +0.000 A 
ATOM     30  C   UNL     1      -1.210  12.407  19.135  0.00  0.00    +0.000 A 
ATOM     31  C   UNL     1      -0.389  13.433  19.631  0.00  0.00    +0.000 A 
ATOM     32  N   UNL     1      -0.543  14.787  19.377  0.00  0.00    +0.000 NA
ATOM     33  C   UNL     1       0.401  15.456  19.996  0.00  0.00    +0.000 A 
ATOM     34  S   UNL     1       1.515  14.535  20.913  0.00  0.00    +0.000 S 
ATOM     35  C   UNL     1       0.687  13.094  20.455  0.00  0.00    +0.000 A 
ATOM     36  C   UNL     1       0.973  11.757  20.794  0.00  0.00    +0.000 A 
ENDBRANCH  26  28
ENDBRANCH   3  26
TORSDOF 7
ENDMDL
MODEL 3
REMARK VINA RESULT:      -8.3      3.655      6.147
REMARK  Name = 
REMARK  9 active torsions:
REMARK  status: ('A' for Active; 'I' for Inactive)
REMARK    1  A    between atoms: C_1  and  C_2
REMARK    2  A    between atoms: C_2  and  C_3
REMARK    3  A    between atoms: C_2  and  N_4
REMARK    4  A    between atoms: N_4  and  C_5
REMARK    5  A    between atoms: C_7  and  N_8
REMARK    6  A    between atoms: N_8  and  C_9
REMARK    7  A    between atoms: C_20  and  C_21
REMARK    8  A    between atoms: C_24  and  C_25
REMARK    9  A    between atoms: C_30  and  O_31
REMARK                            x       y       z     vdW  Elec       q    Type
REMARK                         _______ _______ _______ _____ _____    ______ ____
ROOT
ATOM      1  C   UNL     1       2.697   5.258  19.912  0.00  0.00    +0.000 A 
ATOM      2  C   UNL     1       1.904   5.982  20.809  0.00  0.00    +0.000 A 
ATOM      3  C   UNL     1       1.471   7.275  20.549  0.00  0.00    +0.000 A 
ATOM      4  N   UNL     1       1.860   7.921  19.446  0.00  0.00    +0.000 NA
ATOM      5  C   UNL     1       2.715   7.271  18.618  0.00  0.00    +0.000 A 
ATOM      6  C   UNL     1       3.164   5.947  18.763  0.00  0.00    +0.000 A 
ENDROOT
BRANCH   6   7
ATOM      7  C   UNL     1       4.075   5.440  17.738  0.00  0.00    +0.000 A 
ATOM      8  N   UNL     1       4.258   4.156  17.484  0.00  0.00    +0.000 NA
ATOM      9  N   UNL     1       5.191   3.926  16.497  0.00  0.00    +0.000 NA
ATOM     10  C   UNL     1       5.722   5.043  16.053  0.00  0.00    +0.000 A 
ATOM     11  S   UNL     1       5.126   6.457  16.827  0.00  0.00    +0.000 S 
BRANCH  10  12
ATOM     12  C   UNL     1       6.725   5.138  15.001  0.00  0.00    +0.000 C 
ATOM     13  O   UNL     1       7.835   5.644  15.196  0.00  0.00    +0.000 OA
ATOM     14  N   UNL     1       6.437   4.606  13.743  0.00  0.00    +0.000 N 
ATOM     15  C   UNL     1       7.455   4.576  12.708  0.00  0.00    +0.000 C 
ATOM     16  C   UNL     1       6.904   3.671  11.609  0.00  0.00    +0.000 C 
ATOM     17  C   UNL     1       5.751   2.922  12.274  0.00  0.00    +0.000 C 
ATOM     18  C   UNL     1       5.227   3.933  13.291  0.00  0.00    +0.000 C 
BRANCH  17  19
ATOM     19  O   UNL     1       4.776   2.510  11.333  0.00  0.00    +0.000 OA
ATOM     20  H   UNL     1       4.566   3.259  10.751  0.00  0.00    +0.000 HD
ENDBRANCH  17  19
ENDBRANCH  10  12
ENDBRANCH   6   7
BRANCH   1  21
ATOM     21  N   UNL     1       3.065   3.927  20.200  0.00  0.00    +0.000 N 
ATOM     22  H   UNL     1       3.921   3.682  19.701  0.00  0.00    +0.000 HD
BRANCH  21  24
ATOM     23  C   UNL     1       1.438   2.665  21.548  0.00  0.00    +0.000 C 
ATOM     24  C   UNL     1       2.073   2.831  20.171  0.00  0.00    +0.000 C 
ATOM     25  C   UNL     1       0.978   3.107  19.138  0.00  0.00    +0.000 C 
ENDBRANCH  21  24
ENDBRANCH   1  21
BRANCH   3  26
ATOM     26  N   UNL     1       0.537   7.827  21.457  0.00  0.00    +0.000 N 
ATOM     27  H   UNL     1       0.568   7.370  22.358  0.00  0.00    +0.000 HD
BRANCH  26  28
ATOM     28  C   UNL     1       0.042   9.142  21.460  0.00  0.00    +0.000 A 
ATOM     29  C   UNL     1      -0.177   9.818  22.663  0.00  0.00    +0.000 A 
ATOM     30  C   UNL     1      -0.713  11.108  22.690  0.00  0.00    +0.000 A 
ATOM     31  C   UNL     1      -1.040  11.748  21.483  0.00  0.00    +0.000 A 
ATOM     32  N   UNL     1      -1.588  13.015  21.362  0.00  0.00    +0.000 NA
ATOM     33  C   UNL     1      -1.765  13.292  20.091  0.00  0.00    +0.000 A 
ATOM     34  S   UNL     1      -1.292  12.086  18.973  0.00  0.00    +0.000 S 
ATOM     35  C   UNL     1      -0.803  11.077  20.281  0.00  0.00    +0.000 A 
ATOM     36  C   UNL     1      -0.256   9.779  20.247  0.00  0.00    +0.000 A 
ENDBRANCH  26  28
ENDBRANCH   3  26
TORSDOF 7
ENDMDL
MODEL 4
REMARK VINA RESULT:      -8.3      3.556      5.983
REMARK  Name = 
REMARK  9 active torsions:
REMARK  status: ('A' for Active; 'I' for Inactive)
REMARK    1  A    between atoms: C_1  and  C_2
REMARK    2  A    between atoms: C_2  and  C_3
REMARK    3  A    between atoms: C_2  and  N_4
REMARK    4  A    between atoms: N_4  and  C_5
REMARK    5  A    between atoms: C_7  and  N_8
REMARK    6  A    between atoms: N_8  and  C_9
REMARK    7  A    between atoms: C_20  and  C_21
REMARK    8  A    between atoms: C_24  and  C_25
REMARK    9  A    between atoms: C_30  and  O_31
REMARK                            x       y       z     vdW  Elec       q    Type
REMARK                         _______ _______ _______ _____ _____    ______ ____
ROOT
ATOM      1  C   UNL     1       2.374   5.665  19.762  0.00  0.00    +0.000 A 
ATOM      2  C   UNL     1       1.647   6.484  20.633  0.00  0.00    +0.000 A 
ATOM      3  C   UNL     1       1.415   7.828  20.377  0.00  0.00    +0.000 A 
ATOM      4  N   UNL     1       1.946   8.425  19.307  0.00  0.00    +0.000 NA
ATOM      5  C   UNL     1       2.741   7.670  18.508  0.00  0.00    +0.000 A 
ATOM      6  C   UNL     1       2.990   6.294  18.650  0.00  0.00    +0.000 A 
ENDROOT
BRANCH   6   7
ATOM      7  C   UNL     1       3.870   5.675  17.660  0.00  0.00    +0.000 A 
ATOM      8  N   UNL     1       3.870   4.382  17.380  0.00  0.00    +0.000 NA
ATOM      9  N   UNL     1       4.812   4.033  16.438  0.00  0.00    +0.000 NA
ATOM     10  C   UNL     1       5.530   5.065  16.053  0.00  0.00    +0.000 A 
ATOM     11  S   UNL     1       5.112   6.537  16.835  0.00  0.00    +0.000 S 
BRANCH  10  12
ATOM     12  C   UNL     1       6.593   5.026  15.059  0.00  0.00    +0.000 C 
ATOM     13  O   UNL     1       7.747   5.386  15.316  0.00  0.00    +0.000 OA
ATOM     14  N   UNL     1       6.310   4.532  13.785  0.00  0.00    +0.000 N 
ATOM     15  C   UNL     1       7.370   4.368  12.807  0.00  0.00    +0.000 C 
ATOM     16  C   UNL     1       6.770   3.538  11.677  0.00  0.00    +0.000 C 
ATOM     17  C   UNL     1       5.495   2.945  12.274  0.00  0.00    +0.000 C 
ATOM     18  C   UNL     1       5.050   4.019  13.265  0.00  0.00    +0.000 C 
BRANCH  17  19
ATOM     19  O   UNL     1       4.529   2.658  11.279  0.00  0.00    +0.000 OA
ATOM     20  H   UNL     1       3.646   2.866  11.631  0.00  0.00    +0.000 HD
ENDBRANCH  17  19
ENDBRANCH  10  12
ENDBRANCH   6   7
BRANCH   1  21
ATOM     21  N   UNL     1       2.534   4.292  20.043  0.00  0.00    +0.000 N 
ATOM     22  H   UNL     1       3.221   3.880  19.408  0.00  0.00    +0.000 HD
BRANCH  21  24
ATOM     23  C   UNL     1       1.262   2.407  19.102  0.00  0.00    +0.000 C 
ATOM     24  C   UNL     1       1.369   3.407  20.249  0.00  0.00    +0.000 C 
ATOM     25  C   UNL     1       1.481   2.647  21.574  0.00  0.00    +0.000 C 
ENDBRANCH  21  24
ENDBRANCH   1  21
BRANCH   3  26
ATOM     26  N   UNL     1       0.524   8.497  21.250  0.00  0.00    +0.000 N 
ATOM     27  H   UNL     1       0.713   8.285  22.220  0.00  0.00    +0.000 HD
BRANCH  26  28
ATOM     28  C   UNL     1      -0.132   9.716  21.011  0.00  0.00    +0.000 A 
ATOM     29  C   UNL     1      -0.726   9.974  19.774  0.00  0.00    +0.000 A 
ATOM     30  C   UNL     1      -1.343  11.197  19.499  0.00  0.00    +0.000 A 
ATOM     31  C   UNL     1      -1.373  12.195  20.487  0.00  0.00    +0.000 A 
ATOM     32  N   UNL     1      -1.936  13.454  20.349  0.00  0.00    +0.000 NA
ATOM     33  C   UNL     1      -1.780  14.125  21.466  0.00  0.00    +0.000 A 
ATOM     34  S   UNL     1      -0.973  13.314  22.739  0.00  0.00    +0.000 S 
ATOM     35  C   UNL     1      -0.794  11.928  21.730  0.00  0.00    +0.000 A 
ATOM     36  C   UNL     1      -0.177  10.694  22.015  0.00  0.00    +0.000 A 
ENDBRANCH  26  28
ENDBRANCH   3  26
TORSDOF 7
ENDMDL
MODEL 5
REMARK VINA RESULT:      -8.1      3.907      5.987
REMARK  Name = 
REMARK  9 active torsions:
REMARK  status: ('A' for Active; 'I' for Inactive)
REMARK    1  A    between atoms: C_1  and  C_2
REMARK    2  A    between atoms: C_2  and  C_3
REMARK    3  A    between atoms: C_2  and  N_4
REMARK    4  A    between atoms: N_4  and  C_5
REMARK    5  A    between atoms: C_7  and  N_8
REMARK    6  A    between atoms: N_8  and  C_9
REMARK    7  A    between atoms: C_20  and  C_21
REMARK    8  A    between atoms: C_24  and  C_25
REMARK    9  A    between atoms: C_30  and  O_31
REMARK                            x       y       z     vdW  Elec       q    Type
REMARK                         _______ _______ _______ _____ _____    ______ ____
ROOT
ATOM      1  C   UNL     1       2.464   6.428  19.922  0.00  0.00    +0.000 A 
ATOM      2  C   UNL     1       1.681   7.404  20.548  0.00  0.00    +0.000 A 
ATOM      3  C   UNL     1       1.252   8.550  19.895  0.00  0.00    +0.000 A 
ATOM      4  N   UNL     1       1.635   8.811  18.642  0.00  0.00    +0.000 NA
ATOM      5  C   UNL     1       2.481   7.927  18.057  0.00  0.00    +0.000 A 
ATOM      6  C   UNL     1       2.925   6.714  18.611  0.00  0.00    +0.000 A 
ENDROOT
BRANCH   6   7
ATOM      7  C   UNL     1       3.825   5.902  17.794  0.00  0.00    +0.000 A 
ATOM      8  N   UNL     1       3.812   4.580  17.773  0.00  0.00    +0.000 NA
ATOM      9  N   UNL     1       4.778   4.041  16.952  0.00  0.00    +0.000 NA
ATOM     10  C   UNL     1       5.526   4.970  16.398  0.00  0.00    +0.000 A 
ATOM     11  S   UNL     1       5.108   6.572  16.860  0.00  0.00    +0.000 S 
BRANCH  10  12
ATOM     12  C   UNL     1       6.619   4.725  15.469  0.00  0.00    +0.000 C 
ATOM     13  O   UNL     1       7.802   4.745  15.826  0.00  0.00    +0.000 OA
ATOM     14  N   UNL     1       6.322   4.419  14.140  0.00  0.00    +0.000 N 
ATOM     15  C   UNL     1       7.380   4.053  13.215  0.00  0.00    +0.000 C 
ATOM     16  C   UNL     1       6.678   3.498  11.979  0.00  0.00    +0.000 C 
ATOM     17  C   UNL     1       5.250   3.223  12.442  0.00  0.00    +0.000 C 
ATOM     18  C   UNL     1       5.019   4.299  13.501  0.00  0.00    +0.000 C 
BRANCH  17  19
ATOM     19  O   UNL     1       4.326   3.277  11.370  0.00  0.00    +0.000 OA
ATOM     20  H   UNL     1       3.851   4.124  11.408  0.00  0.00    +0.000 HD
ENDBRANCH  17  19
ENDBRANCH  10  12
ENDBRANCH   6   7
BRANCH   1  21
ATOM     21  N   UNL     1       2.828   5.254  20.615  0.00  0.00    +0.000 N 
ATOM     22  H   UNL     1       3.612   4.797  20.147  0.00  0.00    +0.000 HD
BRANCH  21  24
ATOM     23  C   UNL     1       0.876   3.926  19.920  0.00  0.00    +0.000 C 
ATOM     24  C   UNL     1       1.811   4.282  21.070  0.00  0.00    +0.000 C 
ATOM     25  C   UNL     1       2.469   3.006  21.601  0.00  0.00    +0.000 C 
ENDBRANCH  21  24
ENDBRANCH   1  21
BRANCH   3  26
ATOM     26  N   UNL     1       0.327   9.368  20.586  0.00  0.00    +0.000 N 
ATOM     27  H   UNL     1      -0.194   8.849  21.279  0.00  0.00    +0.000 HD
BRANCH  26  28
ATOM     28  C   UNL     1       0.432  10.750  20.815  0.00  0.00    +0.000 A 
ATOM     29  C   UNL     1       1.396  11.511  20.149  0.00  0.00    +0.000 A 
ATOM     30  C   UNL     1       1.549  12.878  20.396  0.00  0.00    +0.000 A 
ATOM     31  C   UNL     1       0.715  13.510  21.334  0.00  0.00    +0.000 A 
ATOM     32  N   UNL     1       0.763  14.849  21.686  0.00  0.00    +0.000 NA
ATOM     33  C   UNL     1      -0.156  15.094  22.590  0.00  0.00    +0.000 A 
ATOM     34  S   UNL     1      -1.129  13.770  23.069  0.00  0.00    +0.000 S 
ATOM     35  C   UNL     1      -0.260  12.750  21.985  0.00  0.00    +0.000 A 
ATOM     36  C   UNL     1      -0.423  11.374  21.735  0.00  0.00    +0.000 A 
ENDBRANCH  26  28
ENDBRANCH   3  26
TORSDOF 7
ENDMDL
MODEL 6
REMARK VINA RESULT:      -8.0      3.548      5.902
REMARK  Name = 
REMARK  9 active torsions:
REMARK  status: ('A' for Active; 'I' for Inactive)
REMARK    1  A    between atoms: C_1  and  C_2
REMARK    2  A    between atoms: C_2  and  C_3
REMARK    3  A    between atoms: C_2  and  N_4
REMARK    4  A    between atoms: N_4  and  C_5
REMARK    5  A    between atoms: C_7  and  N_8
REMARK    6  A    between atoms: N_8  and  C_9
REMARK    7  A    between atoms: C_20  and  C_21
REMARK    8  A    between atoms: C_24  and  C_25
REMARK    9  A    between atoms: C_30  and  O_31
REMARK                            x       y       z     vdW  Elec       q    Type
REMARK                         _______ _______ _______ _____ _____    ______ ____
ROOT
ATOM      1  C   UNL     1       2.557   6.799  19.520  0.00  0.00    +0.000 A 
ATOM      2  C   UNL     1       1.817   7.843  20.086  0.00  0.00    +0.000 A 
ATOM      3  C   UNL     1       1.457   8.977  19.372  0.00  0.00    +0.000 A 
ATOM      4  N   UNL     1       1.870   9.158  18.115  0.00  0.00    +0.000 NA
ATOM      5  C   UNL     1       2.677   8.204  17.586  0.00  0.00    +0.000 A 
ATOM      6  C   UNL     1       3.050   6.998  18.204  0.00  0.00    +0.000 A 
ENDROOT
BRANCH   6   7
ATOM      7  C   UNL     1       3.919   6.103  17.441  0.00  0.00    +0.000 A 
ATOM      8  N   UNL     1       3.886   4.785  17.537  0.00  0.00    +0.000 NA
ATOM      9  N   UNL     1       4.823   4.160  16.744  0.00  0.00    +0.000 NA
ATOM     10  C   UNL     1       5.571   5.024  16.093  0.00  0.00    +0.000 A 
ATOM     11  S   UNL     1       5.188   6.667  16.422  0.00  0.00    +0.000 S 
BRANCH  10  12
ATOM     12  C   UNL     1       6.638   4.680  15.164  0.00  0.00    +0.000 C 
ATOM     13  O   UNL     1       7.826   4.676  15.501  0.00  0.00    +0.000 OA
ATOM     14  N   UNL     1       6.305   4.308  13.861  0.00  0.00    +0.000 N 
ATOM     15  C   UNL     1       7.332   3.845  12.944  0.00  0.00    +0.000 C 
ATOM     16  C   UNL     1       6.587   3.245  11.754  0.00  0.00    +0.000 C 
ATOM     17  C   UNL     1       5.158   3.055  12.255  0.00  0.00    +0.000 C 
ATOM     18  C   UNL     1       4.988   4.201  13.250  0.00  0.00    +0.000 C 
BRANCH  17  19
ATOM     19  O   UNL     1       4.218   3.082  11.196  0.00  0.00    +0.000 OA
ATOM     20  H   UNL     1       3.995   2.167  10.952  0.00  0.00    +0.000 HD
ENDBRANCH  17  19
ENDBRANCH  10  12
ENDBRANCH   6   7
BRANCH   1  21
ATOM     21  N   UNL     1       2.850   5.643  20.272  0.00  0.00    +0.000 N 
ATOM     22  H   UNL     1       3.858   5.557  20.410  0.00  0.00    +0.000 HD
BRANCH  21  24
ATOM     23  C   UNL     1       3.020   3.209  20.596  0.00  0.00    +0.000 C 
ATOM     24  C   UNL     1       2.220   4.342  19.962  0.00  0.00    +0.000 C 
ATOM     25  C   UNL     1       0.778   4.292  20.475  0.00  0.00    +0.000 C 
ENDBRANCH  21  24
ENDBRANCH   1  21
BRANCH   3  26
ATOM     26  N   UNL     1       0.567   9.873  20.010  0.00  0.00    +0.000 N 
ATOM     27  H   UNL     1       1.028  10.425  20.721  0.00  0.00    +0.000 HD
BRANCH  26  28
ATOM     28  C   UNL     1      -0.594  10.441  19.459  0.00  0.00    +0.000 A 
ATOM     29  C   UNL     1      -1.303  11.425  20.152  0.00  0.00    +0.000 A 
ATOM     30  C   UNL     1      -2.486  11.969  19.645  0.00  0.00    +0.000 A 
ATOM     31  C   UNL     1      -2.979  11.522  18.408  0.00  0.00    +0.000 A 
ATOM     32  N   UNL     1      -4.141  11.961  17.794  0.00  0.00    +0.000 NA
ATOM     33  C   UNL     1      -4.296  11.330  16.654  0.00  0.00    +0.000 A 
ATOM     34  S   UNL     1      -3.085  10.193  16.239  0.00  0.00    +0.000 S 
ATOM     35  C   UNL     1      -2.259  10.551  17.709  0.00  0.00    +0.000 A 
ATOM     36  C   UNL     1      -1.062  10.004  18.212  0.00  0.00    +0.000 A 
ENDBRANCH  26  28
ENDBRANCH   3  26
TORSDOF 7
ENDMDL
MODEL 7
REMARK VINA RESULT:      -8.0      3.907      5.980
REMARK  Name = 
REMARK  9 active torsions:
REMARK  status: ('A' for Active; 'I' for Inactive)
REMARK    1  A    between atoms: C_1  and  C_2
REMARK    2  A    between atoms: C_2  and  C_3
REMARK    3  A    between atoms: C_2  and  N_4
REMARK    4  A    between atoms: N_4  and  C_5
REMARK    5  A    between atoms: C_7  and  N_8
REMARK    6  A    between atoms: N_8  and  C_9
REMARK    7  A    between atoms: C_20  and  C_21
REMARK    8  A    between atoms: C_24  and  C_25
REMARK    9  A    between atoms: C_30  and  O_31
REMARK                            x       y       z     vdW  Elec       q    Type
REMARK                         _______ _______ _______ _____ _____    ______ ____
ROOT
ATOM      1  C   UNL     1       2.312   6.374  20.018  0.00  0.00    +0.000 A 
ATOM      2  C   UNL     1       1.500   7.254  20.742  0.00  0.00    +0.000 A 
ATOM      3  C   UNL     1       1.052   8.459  20.221  0.00  0.00    +0.000 A 
ATOM      4  N   UNL     1       1.442   8.872  19.012  0.00  0.00    +0.000 NA
ATOM      5  C   UNL     1       2.315   8.080  18.340  0.00  0.00    +0.000 A 
ATOM      6  C   UNL     1       2.781   6.821  18.756  0.00  0.00    +0.000 A 
ENDROOT
BRANCH   6   7
ATOM      7  C   UNL     1       3.709   6.130  17.862  0.00  0.00    +0.000 A 
ATOM      8  N   UNL     1       3.733   4.818  17.697  0.00  0.00    +0.000 NA
ATOM      9  N   UNL     1       4.719   4.400  16.829  0.00  0.00    +0.000 NA
ATOM     10  C   UNL     1       5.443   5.405  16.387  0.00  0.00    +0.000 A 
ATOM     11  S   UNL     1       4.977   6.934  17.018  0.00  0.00    +0.000 S 
BRANCH  10  12
ATOM     12  C   UNL     1       6.548   5.294  15.446  0.00  0.00    +0.000 C 
ATOM     13  O   UNL     1       7.707   5.589  15.756  0.00  0.00    +0.000 OA
ATOM     14  N   UNL     1       6.298   4.804  14.164  0.00  0.00    +0.000 N 
ATOM     15  C   UNL     1       7.393   4.568  13.239  0.00  0.00    +0.000 C 
ATOM     16  C   UNL     1       6.799   3.762  12.087  0.00  0.00    +0.000 C 
ATOM     17  C   UNL     1       5.465   3.251  12.626  0.00  0.00    +0.000 C 
ATOM     18  C   UNL     1       5.037   4.359  13.586  0.00  0.00    +0.000 C 
BRANCH  17  19
ATOM     19  O   UNL     1       4.533   3.010  11.589  0.00  0.00    +0.000 OA
ATOM     20  H   UNL     1       3.639   3.209  11.917  0.00  0.00    +0.000 HD
ENDBRANCH  17  19
ENDBRANCH  10  12
ENDBRANCH   6   7
BRANCH   1  21
ATOM     21  N   UNL     1       2.695   5.136  20.575  0.00  0.00    +0.000 N 
ATOM     22  H   UNL     1       3.474   4.738  20.047  0.00  0.00    +0.000 HD
BRANCH  21  24
ATOM     23  C   UNL     1       0.979   3.610  19.690  0.00  0.00    +0.000 C 
ATOM     24  C   UNL     1       1.693   4.113  20.940  0.00  0.00    +0.000 C 
ATOM     25  C   UNL     1       2.349   2.931  21.659  0.00  0.00    +0.000 C 
ENDBRANCH  21  24
ENDBRANCH   1  21
BRANCH   3  26
ATOM     26  N   UNL     1       0.101   9.171  20.991  0.00  0.00    +0.000 N 
ATOM     27  H   UNL     1      -0.351   8.581  21.676  0.00  0.00    +0.000 HD
BRANCH  26  28
ATOM     28  C   UNL     1       0.115  10.544  21.286  0.00  0.00    +0.000 A 
ATOM     29  C   UNL     1      -0.796  11.086  22.196  0.00  0.00    +0.000 A 
ATOM     30  C   UNL     1      -0.831  12.455  22.469  0.00  0.00    +0.000 A 
ATOM     31  C   UNL     1       0.071  13.314  21.819  0.00  0.00    +0.000 A 
ATOM     32  N   UNL     1       0.140  14.688  21.983  0.00  0.00    +0.000 NA
ATOM     33  C   UNL     1       1.095  15.170  21.221  0.00  0.00    +0.000 A 
ATOM     34  S   UNL     1       1.965  14.036  20.279  0.00  0.00    +0.000 S 
ATOM     35  C   UNL     1       0.993  12.767  20.924  0.00  0.00    +0.000 A 
ATOM     36  C   UNL     1       1.037  11.387  20.649  0.00  0.00    +0.000 A 
ENDBRANCH  26  28
ENDBRANCH   3  26
TORSDOF 7
ENDMDL
MODEL 8
REMARK VINA RESULT:      -7.9      3.740      9.903
REMARK  Name = 
REMARK  9 active torsions:
REMARK  status: ('A' for Active; 'I' for Inactive)
REMARK    1  A    between atoms: C_1  and  C_2
REMARK    2  A    between atoms: C_2  and  C_3
REMARK    3  A    between atoms: C_2  and  N_4
REMARK    4  A    between atoms: N_4  and  C_5
REMARK    5  A    between atoms: C_7  and  N_8
REMARK    6  A    between atoms: N_8  and  C_9
REMARK    7  A    between atoms: C_20  and  C_21
REMARK    8  A    between atoms: C_24  and  C_25
REMARK    9  A    between atoms: C_30  and  O_31
REMARK                            x       y       z     vdW  Elec       q    Type
REMARK                         _______ _______ _______ _____ _____    ______ ____
ROOT
ATOM      1  C   UNL     1      -0.427  10.207  18.255  0.00  0.00    +0.000 A 
ATOM      2  C   UNL     1       0.601   9.477  17.648  0.00  0.00    +0.000 A 
ATOM      3  C   UNL     1       1.609   8.858  18.375  0.00  0.00    +0.000 A 
ATOM      4  N   UNL     1       1.683   8.997  19.701  0.00  0.00    +0.000 NA
ATOM      5  C   UNL     1       0.754   9.789  20.294  0.00  0.00    +0.000 A 
ATOM      6  C   UNL     1      -0.334  10.409  19.656  0.00  0.00    +0.000 A 
ENDROOT
BRANCH   6   7
ATOM      7  C   UNL     1      -1.225  11.209  20.495  0.00  0.00    +0.000 A 
ATOM      8  N   UNL     1      -2.071  12.109  20.022  0.00  0.00    +0.000 NA
ATOM      9  N   UNL     1      -2.778  12.759  21.010  0.00  0.00    +0.000 NA
ATOM     10  C   UNL     1      -2.423  12.360  22.212  0.00  0.00    +0.000 A 
ATOM     11  S   UNL     1      -1.181  11.172  22.216  0.00  0.00    +0.000 S 
BRANCH  10  12
ATOM     12  C   UNL     1      -2.995  12.843  23.461  0.00  0.00    +0.000 C 
ATOM     13  O   UNL     1      -3.851  12.204  24.081  0.00  0.00    +0.000 OA
ATOM     14  N   UNL     1      -2.535  14.048  23.994  0.00  0.00    +0.000 N 
ATOM     15  C   UNL     1      -2.996  14.500  25.295  0.00  0.00    +0.000 C 
ATOM     16  C   UNL     1      -2.077  15.654  25.684  0.00  0.00    +0.000 C 
ATOM     17  C   UNL     1      -0.887  15.532  24.735  0.00  0.00    +0.000 C 
ATOM     18  C   UNL     1      -1.516  14.947  23.472  0.00  0.00    +0.000 C 
BRANCH  17  19
ATOM     19  O   UNL     1      -0.248  16.778  24.524  0.00  0.00    +0.000 OA
ATOM     20  H   UNL     1       0.343  16.958  25.275  0.00  0.00    +0.000 HD
ENDBRANCH  17  19
ENDBRANCH  10  12
ENDBRANCH   6   7
BRANCH   1  21
ATOM     21  N   UNL     1      -1.457  10.770  17.474  0.00  0.00    +0.000 N 
ATOM     22  H   UNL     1      -1.767  11.653  17.882  0.00  0.00    +0.000 HD
BRANCH  21  24
ATOM     23  C   UNL     1      -3.881  10.392  17.682  0.00  0.00    +0.000 C 
ATOM     24  C   UNL     1      -2.593   9.954  16.993  0.00  0.00    +0.000 C 
ATOM     25  C   UNL     1      -2.760  10.084  15.476  0.00  0.00    +0.000 C 
ENDBRANCH  21  24
ENDBRANCH   1  21
BRANCH   3  26
ATOM     26  N   UNL     1       2.485   8.013  17.654  0.00  0.00    +0.000 N 
ATOM     27  H   UNL     1       2.965   8.506  16.914  0.00  0.00    +0.000 HD
BRANCH  26  28
ATOM     28  C   UNL     1       3.133   6.864  18.137  0.00  0.00    +0.000 A 
ATOM     29  C   UNL     1       4.479   6.630  17.848  0.00  0.00    +0.000 A 
ATOM     30  C   UNL     1       5.130   5.471  18.279  0.00  0.00    +0.000 A 
ATOM     31  C   UNL     1       4.420   4.514  19.023  0.00  0.00    +0.000 A 
ATOM     32  N   UNL     1       4.933   3.319  19.501  0.00  0.00    +0.000 NA
ATOM     33  C   UNL     1       3.993   2.671  20.148  0.00  0.00    +0.000 A 
ATOM     34  S   UNL     1       2.463   3.432  20.237  0.00  0.00    +0.000 S 
ATOM     35  C   UNL     1       3.079   4.758  19.325  0.00  0.00    +0.000 A 
ATOM     36  C   UNL     1       2.419   5.928  18.900  0.00  0.00    +0.000 A 
ENDBRANCH  26  28
ENDBRANCH   3  26
TORSDOF 7
ENDMDL
MODEL 9
REMARK VINA RESULT:      -7.9      1.730      2.090
REMARK  Name = 
REMARK  9 active torsions:
REMARK  status: ('A' for Active; 'I' for Inactive)
REMARK    1  A    between atoms: C_1  and  C_2
REMARK    2  A    between atoms: C_2  and  C_3
REMARK    3  A    between atoms: C_2  and  N_4
REMARK    4  A    between atoms: N_4  and  C_5
REMARK    5  A    between atoms: C_7  and  N_8
REMARK    6  A    between atoms: N_8  and  C_9
REMARK    7  A    between atoms: C_20  and  C_21
REMARK    8  A    between atoms: C_24  and  C_25
REMARK    9  A    between atoms: C_30  and  O_31
REMARK                            x       y       z     vdW  Elec       q    Type
REMARK                         _______ _______ _______ _____ _____    ______ ____
ROOT
ATOM      1  C   UNL     1       0.647  11.010  20.466  0.00  0.00    +0.000 A 
ATOM      2  C   UNL     1      -0.227  11.604  21.383  0.00  0.00    +0.000 A 
ATOM      3  C   UNL     1      -0.892  10.878  22.361  0.00  0.00    +0.000 A 
ATOM      4  N   UNL     1      -0.780   9.548  22.424  0.00  0.00    +0.000 NA
ATOM      5  C   UNL     1      -0.020   8.946  21.476  0.00  0.00    +0.000 A 
ATOM      6  C   UNL     1       0.736   9.595  20.484  0.00  0.00    +0.000 A 
ENDROOT
BRANCH   6   7
ATOM      7  C   UNL     1       1.500   8.745  19.572  0.00  0.00    +0.000 A 
ATOM      8  N   UNL     1       1.672   9.010  18.288  0.00  0.00    +0.000 NA
ATOM      9  N   UNL     1       2.400   8.044  17.629  0.00  0.00    +0.000 NA
ATOM     10  C   UNL     1       2.730   7.049  18.423  0.00  0.00    +0.000 A 
ATOM     11  S   UNL     1       2.155   7.220  20.033  0.00  0.00    +0.000 S 
BRANCH  10  12
ATOM     12  C   UNL     1       3.511   5.885  18.031  0.00  0.00    +0.000 C 
ATOM     13  O   UNL     1       4.732   5.944  17.849  0.00  0.00    +0.000 OA
ATOM     14  N   UNL     1       2.869   4.654  17.894  0.00  0.00    +0.000 N 
ATOM     15  C   UNL     1       3.634   3.450  17.622  0.00  0.00    +0.000 C 
ATOM     16  C   UNL     1       2.673   2.286  17.843  0.00  0.00    +0.000 C 
ATOM     17  C   UNL     1       1.505   2.896  18.614  0.00  0.00    +0.000 C 
ATOM     18  C   UNL     1       1.462   4.331  18.093  0.00  0.00    +0.000 C 
BRANCH  17  19
ATOM     19  O   UNL     1       0.301   2.182  18.404  0.00  0.00    +0.000 OA
ATOM     20  H   UNL     1      -0.343   2.772  17.977  0.00  0.00    +0.000 HD
ENDBRANCH  17  19
ENDBRANCH  10  12
ENDBRANCH   6   7
BRANCH   1  21
ATOM     21  N   UNL     1       1.340  11.802  19.527  0.00  0.00    +0.000 N 
ATOM     22  H   UNL     1       2.345  11.767  19.709  0.00  0.00    +0.000 HD
BRANCH  21  24
ATOM     23  C   UNL     1       2.008  13.934  18.494  0.00  0.00    +0.000 C 
ATOM     24  C   UNL     1       0.886  13.166  19.185  0.00  0.00    +0.000 C 
ATOM     25  C   UNL     1      -0.338  13.124  18.266  0.00  0.00    +0.000 C 
ENDBRANCH  21  24
ENDBRANCH   1  21
BRANCH   3  26
ATOM     26  N   UNL     1      -1.610  11.622  23.327  0.00  0.00    +0.000 N 
ATOM     27  H   UNL     1      -0.995  12.109  23.965  0.00  0.00    +0.000 HD
BRANCH  26  28
ATOM     28  C   UNL     1      -2.895  12.171  23.183  0.00  0.00    +0.000 A 
ATOM     29  C   UNL     1      -3.732  12.324  24.290  0.00  0.00    +0.000 A 
ATOM     30  C   UNL     1      -5.031  12.824  24.162  0.00  0.00    +0.000 A 
ATOM     31  C   UNL     1      -5.511  13.187  22.893  0.00  0.00    +0.000 A 
ATOM     32  N   UNL     1      -6.776  13.682  22.618  0.00  0.00    +0.000 NA
ATOM     33  C   UNL     1      -6.883  13.910  21.330  0.00  0.00    +0.000 A 
ATOM     34  S   UNL     1      -5.506  13.562  20.375  0.00  0.00    +0.000 S 
ATOM     35  C   UNL     1      -4.665  13.049  21.790  0.00  0.00    +0.000 A 
ATOM     36  C   UNL     1      -3.353  12.552  21.914  0.00  0.00    +0.000 A 
ENDBRANCH  26  28
ENDBRANCH   3  26
TORSDOF 7
ENDMDL
