MODEL 1
REMARK VINA RESULT:      -5.5      0.000      0.000
REMARK  Name = 
REMARK  6 active torsions:
REMARK  status: ('A' for Active; 'I' for Inactive)
REMARK    1  A    between atoms: C_1  and  O_2
REMARK    2  A    between atoms: O_2  and  C_3
REMARK    3  A    between atoms: C_3  and  C_4
REMARK    4  A    between atoms: C_4  and  N_5
REMARK    5  A    between atoms: C_4  and  C_6
REMARK    6  A    between atoms: C_6  and  C_7
REMARK                            x       y       z     vdW  Elec       q    Type
REMARK                         _______ _______ _______ _____ _____    ______ ____
ROOT
ATOM      1  C   UNL     1       6.836   4.570  17.352  0.00  0.00    +0.000 C 
ENDROOT
BRANCH   1   2
ATOM      2  N   UNL     1       8.194   4.125  17.740  0.00  0.00    +0.000 NA
ATOM      3  H   UNL     1       8.456   3.310  17.192  0.00  0.00    +0.000 HD
ATOM      4  H   UNL     1       8.125   3.792  18.706  0.00  0.00    +0.000 HD
ENDBRANCH   1   2
BRANCH   1   5
ATOM      5  C   UNL     1       6.950   5.869  16.519  0.00  0.00    +0.000 C 
BRANCH   5   7
ATOM      6  C   UNL     1       6.663   4.626  14.524  0.00  0.00    +0.000 C 
ATOM      7  O   UNL     1       7.489   5.539  15.231  0.00  0.00    +0.000 OA
ENDBRANCH   5   7
ENDBRANCH   1   5
BRANCH   1   8
ATOM      8  C   UNL     1       5.907   4.780  18.566  0.00  0.00    +0.000 C 
BRANCH   8   9
ATOM      9  C   UNL     1       4.435   4.606  18.260  0.00  0.00    +0.000 A 
ATOM     10  C   UNL     1       3.974   3.419  17.669  0.00  0.00    +0.000 A 
ATOM     11  C   UNL     1       2.627   3.262  17.345  0.00  0.00    +0.000 A 
ATOM     12  C   UNL     1       1.722   4.286  17.607  0.00  0.00    +0.000 A 
ATOM     13  C   UNL     1       2.165   5.468  18.199  0.00  0.00    +0.000 A 
ATOM     14  C   UNL     1       3.516   5.630  18.524  0.00  0.00    +0.000 A 
ENDBRANCH   8   9
ENDBRANCH   1   8
TORSDOF 5
ENDMDL
MODEL 2
REMARK VINA RESULT:      -5.3      1.160      1.933
REMARK  Name = 
REMARK  6 active torsions:
REMARK  status: ('A' for Active; 'I' for Inactive)
REMARK    1  A    between atoms: C_1  and  O_2
REMARK    2  A    between atoms: O_2  and  C_3
REMARK    3  A    between atoms: C_3  and  C_4
REMARK    4  A    between atoms: C_4  and  N_5
REMARK    5  A    between atoms: C_4  and  C_6
REMARK    6  A    between atoms: C_6  and  C_7
REMARK                            x       y       z     vdW  Elec       q    Type
REMARK                         _______ _______ _______ _____ _____    ______ ____
ROOT
ATOM      1  C   UNL     1       6.639   4.381  16.383  0.00  0.00    +0.000 C 
ENDROOT
BRANCH   1   2
ATOM      2  N   UNL     1       7.924   4.244  17.107  0.00  0.00    +0.000 NA
ATOM      3  H   UNL     1       7.771   4.383  18.103  0.00  0.00    +0.000 HD
ATOM      4  H   UNL     1       8.509   5.030  16.810  0.00  0.00    +0.000 HD
ENDBRANCH   1   2
BRANCH   1   5
ATOM      5  C   UNL     1       6.929   4.621  14.882  0.00  0.00    +0.000 C 
BRANCH   5   7
ATOM      6  C   UNL     1       6.302   3.650  12.816  0.00  0.00    +0.000 C 
ATOM      7  O   UNL     1       5.870   4.033  14.113  0.00  0.00    +0.000 OA
ENDBRANCH   5   7
ENDBRANCH   1   5
BRANCH   1   8
ATOM      8  C   UNL     1       5.750   5.505  16.954  0.00  0.00    +0.000 C 
BRANCH   8   9
ATOM      9  C   UNL     1       4.329   5.080  17.259  0.00  0.00    +0.000 A 
ATOM     10  C   UNL     1       3.435   5.987  17.847  0.00  0.00    +0.000 A 
ATOM     11  C   UNL     1       2.136   5.598  18.171  0.00  0.00    +0.000 A 
ATOM     12  C   UNL     1       1.712   4.297  17.910  0.00  0.00    +0.000 A 
ATOM     13  C   UNL     1       2.589   3.388  17.320  0.00  0.00    +0.000 A 
ATOM     14  C   UNL     1       3.893   3.775  16.996  0.00  0.00    +0.000 A 
ENDBRANCH   8   9
ENDBRANCH   1   8
TORSDOF 5
ENDMDL
MODEL 3
REMARK VINA RESULT:      -5.3      1.040      2.041
REMARK  Name = 
REMARK  6 active torsions:
REMARK  status: ('A' for Active; 'I' for Inactive)
REMARK    1  A    between atoms: C_1  and  O_2
REMARK    2  A    between atoms: O_2  and  C_3
REMARK    3  A    between atoms: C_3  and  C_4
REMARK    4  A    between atoms: C_4  and  N_5
REMARK    5  A    between atoms: C_4  and  C_6
REMARK    6  A    between atoms: C_6  and  C_7
REMARK                            x       y       z     vdW  Elec       q    Type
REMARK                         _______ _______ _______ _____ _____    ______ ____
ROOT
ATOM      1  C   UNL     1       6.510   4.608  17.108  0.00  0.00    +0.000 C 
ENDROOT
BRANCH   1   2
ATOM      2  N   UNL     1       7.939   4.237  17.230  0.00  0.00    +0.000 NA
ATOM      3  H   UNL     1       8.318   4.034  16.309  0.00  0.00    +0.000 HD
ATOM      4  H   UNL     1       7.966   3.348  17.737  0.00  0.00    +0.000 HD
ENDBRANCH   1   2
BRANCH   1   5
ATOM      5  C   UNL     1       6.409   6.055  16.572  0.00  0.00    +0.000 C 
BRANCH   5   7
ATOM      6  C   UNL     1       7.614   7.868  17.504  0.00  0.00    +0.000 C 
ATOM      7  O   UNL     1       7.688   6.687  16.719  0.00  0.00    +0.000 OA
ENDBRANCH   5   7
ENDBRANCH   1   5
BRANCH   1   8
ATOM      8  C   UNL     1       5.741   4.463  18.438  0.00  0.00    +0.000 C 
BRANCH   8   9
ATOM      9  C   UNL     1       4.256   4.219  18.274  0.00  0.00    +0.000 A 
ATOM     10  C   UNL     1       3.331   5.125  18.815  0.00  0.00    +0.000 A 
ATOM     11  C   UNL     1       1.960   4.892  18.707  0.00  0.00    +0.000 A 
ATOM     12  C   UNL     1       1.495   3.752  18.056  0.00  0.00    +0.000 A 
ATOM     13  C   UNL     1       2.404   2.847  17.509  0.00  0.00    +0.000 A 
ATOM     14  C   UNL     1       3.779   3.077  17.618  0.00  0.00    +0.000 A 
ENDBRANCH   8   9
ENDBRANCH   1   8
TORSDOF 5
ENDMDL
MODEL 4
REMARK VINA RESULT:      -5.3      1.491      2.088
REMARK  Name = 
REMARK  6 active torsions:
REMARK  status: ('A' for Active; 'I' for Inactive)
REMARK    1  A    between atoms: C_1  and  O_2
REMARK    2  A    between atoms: O_2  and  C_3
REMARK    3  A    between atoms: C_3  and  C_4
REMARK    4  A    between atoms: C_4  and  N_5
REMARK    5  A    between atoms: C_4  and  C_6
REMARK    6  A    between atoms: C_6  and  C_7
REMARK                            x       y       z     vdW  Elec       q    Type
REMARK                         _______ _______ _______ _____ _____    ______ ____
ROOT
ATOM      1  C   UNL     1       5.548   4.703  17.491  0.00  0.00    +0.000 C 
ENDROOT
BRANCH   1   2
ATOM      2  N   UNL     1       5.916   3.958  18.717  0.00  0.00    +0.000 NA
ATOM      3  H   UNL     1       5.213   3.249  18.909  0.00  0.00    +0.000 HD
ATOM      4  H   UNL     1       5.851   4.623  19.491  0.00  0.00    +0.000 HD
ENDBRANCH   1   2
BRANCH   1   5
ATOM      5  C   UNL     1       6.785   5.481  16.983  0.00  0.00    +0.000 C 
BRANCH   5   7
ATOM      6  C   UNL     1       6.652   4.342  14.911  0.00  0.00    +0.000 C 
ATOM      7  O   UNL     1       7.473   4.667  16.023  0.00  0.00    +0.000 OA
ENDBRANCH   5   7
ENDBRANCH   1   5
BRANCH   1   8
ATOM      8  C   UNL     1       4.355   5.657  17.709  0.00  0.00    +0.000 C 
BRANCH   8   9
ATOM      9  C   UNL     1       3.182   5.030  18.434  0.00  0.00    +0.000 A 
ATOM     10  C   UNL     1       2.895   5.398  19.757  0.00  0.00    +0.000 A 
ATOM     11  C   UNL     1       1.843   4.800  20.450  0.00  0.00    +0.000 A 
ATOM     12  C   UNL     1       1.063   3.828  19.830  0.00  0.00    +0.000 A 
ATOM     13  C   UNL     1       1.333   3.458  18.513  0.00  0.00    +0.000 A 
ATOM     14  C   UNL     1       2.389   4.054  17.817  0.00  0.00    +0.000 A 
ENDBRANCH   8   9
ENDBRANCH   1   8
TORSDOF 5
ENDMDL
MODEL 5
REMARK VINA RESULT:      -5.2      1.915      2.210
REMARK  Name = 
REMARK  6 active torsions:
REMARK  status: ('A' for Active; 'I' for Inactive)
REMARK    1  A    between atoms: C_1  and  O_2
REMARK    2  A    between atoms: O_2  and  C_3
REMARK    3  A    between atoms: C_3  and  C_4
REMARK    4  A    between atoms: C_4  and  N_5
REMARK    5  A    between atoms: C_4  and  C_6
REMARK    6  A    between atoms: C_6  and  C_7
REMARK                            x       y       z     vdW  Elec       q    Type
REMARK                         _______ _______ _______ _____ _____    ______ ____
ROOT
ATOM      1  C   UNL     1       4.990   3.963  17.381  0.00  0.00    +0.000 C 
ENDROOT
BRANCH   1   2
ATOM      2  N   UNL     1       5.721   3.932  18.669  0.00  0.00    +0.000 NA
ATOM      3  H   UNL     1       5.253   4.534  19.341  0.00  0.00    +0.000 HD
ATOM      4  H   UNL     1       6.629   4.370  18.497  0.00  0.00    +0.000 HD
ENDBRANCH   1   2
BRANCH   1   5
ATOM      5  C   UNL     1       5.926   4.522  16.284  0.00  0.00    +0.000 C 
BRANCH   5   7
ATOM      6  C   UNL     1       6.315   4.087  13.989  0.00  0.00    +0.000 C 
ATOM      7  O   UNL     1       6.093   3.520  15.271  0.00  0.00    +0.000 OA
ENDBRANCH   5   7
ENDBRANCH   1   5
BRANCH   1   8
ATOM      8  C   UNL     1       3.685   4.783  17.455  0.00  0.00    +0.000 C 
BRANCH   8   9
ATOM      9  C   UNL     1       2.647   4.216  18.401  0.00  0.00    +0.000 A 
ATOM     10  C   UNL     1       1.973   3.030  18.074  0.00  0.00    +0.000 A 
ATOM     11  C   UNL     1       0.986   2.518  18.916  0.00  0.00    +0.000 A 
ATOM     12  C   UNL     1       0.661   3.182  20.095  0.00  0.00    +0.000 A 
ATOM     13  C   UNL     1       1.328   4.358  20.435  0.00  0.00    +0.000 A 
ATOM     14  C   UNL     1       2.317   4.875  19.592  0.00  0.00    +0.000 A 
ENDBRANCH   8   9
ENDBRANCH   1   8
TORSDOF 5
ENDMDL
MODEL 6
REMARK VINA RESULT:      -5.2      1.383      1.847
REMARK  Name = 
REMARK  6 active torsions:
REMARK  status: ('A' for Active; 'I' for Inactive)
REMARK    1  A    between atoms: C_1  and  O_2
REMARK    2  A    between atoms: O_2  and  C_3
REMARK    3  A    between atoms: C_3  and  C_4
REMARK    4  A    between atoms: C_4  and  N_5
REMARK    5  A    between atoms: C_4  and  C_6
REMARK    6  A    between atoms: C_6  and  C_7
REMARK                            x       y       z     vdW  Elec       q    Type
REMARK                         _______ _______ _______ _____ _____    ______ ____
ROOT
ATOM      1  C   UNL     1       6.877   5.214  17.640  0.00  0.00    +0.000 C 
ENDROOT
BRANCH   1   2
ATOM      2  N   UNL     1       7.865   4.243  17.118  0.00  0.00    +0.000 NA
ATOM      3  H   UNL     1       8.625   4.138  17.785  0.00  0.00    +0.000 HD
ATOM      4  H   UNL     1       8.287   4.674  16.291  0.00  0.00    +0.000 HD
ENDBRANCH   1   2
BRANCH   1   5
ATOM      5  C   UNL     1       7.624   6.463  18.165  0.00  0.00    +0.000 C 
BRANCH   5   7
ATOM      6  C   UNL     1       7.931   8.761  17.683  0.00  0.00    +0.000 C 
ATOM      7  O   UNL     1       7.545   7.494  17.171  0.00  0.00    +0.000 OA
ENDBRANCH   5   7
ENDBRANCH   1   5
BRANCH   1   8
ATOM      8  C   UNL     1       5.975   4.615  18.739  0.00  0.00    +0.000 C 
BRANCH   8   9
ATOM      9  C   UNL     1       4.510   4.534  18.367  0.00  0.00    +0.000 A 
ATOM     10  C   UNL     1       4.013   3.395  17.716  0.00  0.00    +0.000 A 
ATOM     11  C   UNL     1       2.674   3.323  17.331  0.00  0.00    +0.000 A 
ATOM     12  C   UNL     1       1.815   4.387  17.593  0.00  0.00    +0.000 A 
ATOM     13  C   UNL     1       2.295   5.521  18.245  0.00  0.00    +0.000 A 
ATOM     14  C   UNL     1       3.637   5.597  18.630  0.00  0.00    +0.000 A 
ENDBRANCH   8   9
ENDBRANCH   1   8
TORSDOF 5
ENDMDL
MODEL 7
REMARK VINA RESULT:      -5.2      1.703      2.178
REMARK  Name = 
REMARK  6 active torsions:
REMARK  status: ('A' for Active; 'I' for Inactive)
REMARK    1  A    between atoms: C_1  and  O_2
REMARK    2  A    between atoms: O_2  and  C_3
REMARK    3  A    between atoms: C_3  and  C_4
REMARK    4  A    between atoms: C_4  and  N_5
REMARK    5  A    between atoms: C_4  and  C_6
REMARK    6  A    between atoms: C_6  and  C_7
REMARK                            x       y       z     vdW  Elec       q    Type
REMARK                         _______ _______ _______ _____ _____    ______ ____
ROOT
ATOM      1  C   UNL     1       5.307   4.518  17.341  0.00  0.00    +0.000 C 
ENDROOT
BRANCH   1   2
ATOM      2  N   UNL     1       5.975   4.001  18.557  0.00  0.00    +0.000 NA
ATOM      3  H   UNL     1       6.751   3.400  18.290  0.00  0.00    +0.000 HD
ATOM      4  H   UNL     1       5.301   3.385  19.019  0.00  0.00    +0.000 HD
ENDBRANCH   1   2
BRANCH   1   5
ATOM      5  C   UNL     1       6.362   5.190  16.432  0.00  0.00    +0.000 C 
BRANCH   5   7
ATOM      6  C   UNL     1       7.505   7.001  17.444  0.00  0.00    +0.000 C 
ATOM      7  O   UNL     1       7.473   5.595  17.245  0.00  0.00    +0.000 OA
ENDBRANCH   5   7
ENDBRANCH   1   5
BRANCH   1   8
ATOM      8  C   UNL     1       4.160   5.499  17.663  0.00  0.00    +0.000 C 
BRANCH   8   9
ATOM      9  C   UNL     1       3.063   4.911  18.527  0.00  0.00    +0.000 A 
ATOM     10  C   UNL     1       2.236   3.898  18.019  0.00  0.00    +0.000 A 
ATOM     11  C   UNL     1       1.197   3.376  18.789  0.00  0.00    +0.000 A 
ATOM     12  C   UNL     1       0.971   3.858  20.075  0.00  0.00    +0.000 A 
ATOM     13  C   UNL     1       1.789   4.860  20.594  0.00  0.00    +0.000 A 
ATOM     14  C   UNL     1       2.831   5.387  19.823  0.00  0.00    +0.000 A 
ENDBRANCH   8   9
ENDBRANCH   1   8
TORSDOF 5
ENDMDL
MODEL 8
REMARK VINA RESULT:      -5.2      1.522      1.774
REMARK  Name = 
REMARK  6 active torsions:
REMARK  status: ('A' for Active; 'I' for Inactive)
REMARK    1  A    between atoms: C_1  and  O_2
REMARK    2  A    between atoms: O_2  and  C_3
REMARK    3  A    between atoms: C_3  and  C_4
REMARK    4  A    between atoms: C_4  and  N_5
REMARK    5  A    between atoms: C_4  and  C_6
REMARK    6  A    between atoms: C_6  and  C_7
REMARK                            x       y       z     vdW  Elec       q    Type
REMARK                         _______ _______ _______ _____ _____    ______ ____
ROOT
ATOM      1  C   UNL     1       5.377   4.803  17.375  0.00  0.00    +0.000 C 
ENDROOT
BRANCH   1   2
ATOM      2  N   UNL     1       5.862   3.992  18.516  0.00  0.00    +0.000 NA
ATOM      3  H   UNL     1       6.872   4.083  18.593  0.00  0.00    +0.000 HD
ATOM      4  H   UNL     1       5.695   3.014  18.268  0.00  0.00    +0.000 HD
ENDBRANCH   1   2
BRANCH   1   5
ATOM      5  C   UNL     1       6.556   5.623  16.801  0.00  0.00    +0.000 C 
BRANCH   5   7
ATOM      6  C   UNL     1       6.581   4.369  14.793  0.00  0.00    +0.000 C 
ATOM      7  O   UNL     1       6.435   5.658  15.372  0.00  0.00    +0.000 OA
ENDBRANCH   5   7
ENDBRANCH   1   5
BRANCH   1   8
ATOM      8  C   UNL     1       4.203   5.728  17.758  0.00  0.00    +0.000 C 
BRANCH   8   9
ATOM      9  C   UNL     1       3.095   5.041  18.529  0.00  0.00    +0.000 A 
ATOM     10  C   UNL     1       2.286   4.086  17.895  0.00  0.00    +0.000 A 
ATOM     11  C   UNL     1       1.236   3.475  18.580  0.00  0.00    +0.000 A 
ATOM     12  C   UNL     1       0.983   3.808  19.908  0.00  0.00    +0.000 A 
ATOM     13  C   UNL     1       1.784   4.750  20.552  0.00  0.00    +0.000 A 
ATOM     14  C   UNL     1       2.836   5.366  19.866  0.00  0.00    +0.000 A 
ENDBRANCH   8   9
ENDBRANCH   1   8
TORSDOF 5
ENDMDL
MODEL 9
REMARK VINA RESULT:      -5.1      1.713      2.503
REMARK  Name = 
REMARK  6 active torsions:
REMARK  status: ('A' for Active; 'I' for Inactive)
REMARK    1  A    between atoms: C_1  and  O_2
REMARK    2  A    between atoms: O_2  and  C_3
REMARK    3  A    between atoms: C_3  and  C_4
REMARK    4  A    between atoms: C_4  and  N_5
REMARK    5  A    between atoms: C_4  and  C_6
REMARK    6  A    between atoms: C_6  and  C_7
REMARK                            x       y       z     vdW  Elec       q    Type
REMARK                         _______ _______ _______ _____ _____    ______ ____
ROOT
ATOM      1  C   UNL     1       5.247   4.445  17.345  0.00  0.00    +0.000 C 
ENDROOT
BRANCH   1   2
ATOM      2  N   UNL     1       5.960   3.927  18.535  0.00  0.00    +0.000 NA
ATOM      3  H   UNL     1       6.521   3.120  18.272  0.00  0.00    +0.000 HD
ATOM      4  H   UNL     1       5.243   3.564  19.169  0.00  0.00    +0.000 HD
ENDBRANCH   1   2
BRANCH   1   5
ATOM      5  C   UNL     1       6.260   5.163  16.422  0.00  0.00    +0.000 C 
BRANCH   5   7
ATOM      6  C   UNL     1       7.465   6.932  17.433  0.00  0.00    +0.000 C 
ATOM      7  O   UNL     1       7.406   5.532  17.203  0.00  0.00    +0.000 OA
ENDBRANCH   5   7
ENDBRANCH   1   5
BRANCH   1   8
ATOM      8  C   UNL     1       4.081   5.386  17.712  0.00  0.00    +0.000 C 
BRANCH   8   9
ATOM      9  C   UNL     1       2.938   4.708  18.438  0.00  0.00    +0.000 A 
ATOM     10  C   UNL     1       2.568   5.137  19.722  0.00  0.00    +0.000 A 
ATOM     11  C   UNL     1       1.544   4.495  20.418  0.00  0.00    +0.000 A 
ATOM     12  C   UNL     1       0.876   3.418  19.841  0.00  0.00    +0.000 A 
ATOM     13  C   UNL     1       1.230   2.986  18.564  0.00  0.00    +0.000 A 
ATOM     14  C   UNL     1       2.258   3.626  17.864  0.00  0.00    +0.000 A 
ENDBRANCH   8   9
ENDBRANCH   1   8
TORSDOF 5
ENDMDL
