MODEL 1
REMARK VINA RESULT:      -5.4      0.000      0.000
REMARK  Name = 
REMARK  2 active torsions:
REMARK  status: ('A' for Active; 'I' for Inactive)
REMARK    1  A    between atoms: C_1  and  C_2
REMARK    2  A    between atoms: C_2  and  C_3
REMARK                            x       y       z     vdW  Elec       q    Type
REMARK                         _______ _______ _______ _____ _____    ______ ____
ROOT
ATOM      1  C   UNL     1       3.933   4.173  17.082  0.00  0.00    +0.000 C 
ATOM      2  C   UNL     1       4.597   5.453  17.614  0.00  0.00    +0.000 C 
ATOM      3  C   UNL     1       3.530   6.533  17.821  0.00  0.00    +0.000 C 
ATOM      4  C   UNL     1       5.334   5.191  18.927  0.00  0.00    +0.000 C 
ATOM      5  N   UNL     1       6.491   4.350  18.733  0.00  0.00    +0.000 N 
ATOM      6  C   UNL     1       7.329   4.528  17.677  0.00  0.00    +0.000 C 
ATOM      7  O   UNL     1       8.477   4.097  17.695  0.00  0.00    +0.000 OA
ATOM      8  N   UNL     1       6.834   5.237  16.626  0.00  0.00    +0.000 N 
ATOM      9  C   UNL     1       5.646   5.920  16.610  0.00  0.00    +0.000 C 
ATOM     10  O   UNL     1       5.454   6.825  15.800  0.00  0.00    +0.000 OA
ATOM     11  H   UNL     1       6.931   3.912  19.536  0.00  0.00    +0.000 HD
ATOM     12  H   UNL     1       7.509   5.492  15.920  0.00  0.00    +0.000 HD
ENDROOT
TORSDOF 0
ENDMDL
MODEL 2
REMARK VINA RESULT:      -5.4      1.942      2.283
REMARK  Name = 
REMARK  2 active torsions:
REMARK  status: ('A' for Active; 'I' for Inactive)
REMARK    1  A    between atoms: C_1  and  C_2
REMARK    2  A    between atoms: C_2  and  C_3
REMARK                            x       y       z     vdW  Elec       q    Type
REMARK                         _______ _______ _______ _____ _____    ______ ____
ROOT
ATOM      1  C   UNL     1       6.975   4.713  16.169  0.00  0.00    +0.000 C 
ATOM      2  C   UNL     1       6.185   5.797  16.919  0.00  0.00    +0.000 C 
ATOM      3  C   UNL     1       5.205   6.474  15.954  0.00  0.00    +0.000 C 
ATOM      4  C   UNL     1       5.423   5.207  18.105  0.00  0.00    +0.000 C 
ATOM      5  N   UNL     1       6.317   4.758  19.146  0.00  0.00    +0.000 N 
ATOM      6  C   UNL     1       7.398   5.494  19.519  0.00  0.00    +0.000 C 
ATOM      7  O   UNL     1       7.933   5.331  20.610  0.00  0.00    +0.000 OA
ATOM      8  N   UNL     1       7.823   6.435  18.632  0.00  0.00    +0.000 N 
ATOM      9  C   UNL     1       7.164   6.816  17.492  0.00  0.00    +0.000 C 
ATOM     10  O   UNL     1       7.398   7.903  16.967  0.00  0.00    +0.000 OA
ATOM     11  H   UNL     1       5.967   4.145  19.875  0.00  0.00    +0.000 HD
ATOM     12  H   UNL     1       8.523   7.073  18.981  0.00  0.00    +0.000 HD
ENDROOT
TORSDOF 0
ENDMDL
MODEL 3
REMARK VINA RESULT:      -5.4      1.683      2.660
REMARK  Name = 
REMARK  2 active torsions:
REMARK  status: ('A' for Active; 'I' for Inactive)
REMARK    1  A    between atoms: C_1  and  C_2
REMARK    2  A    between atoms: C_2  and  C_3
REMARK                            x       y       z     vdW  Elec       q    Type
REMARK                         _______ _______ _______ _____ _____    ______ ____
ROOT
ATOM      1  C   UNL     1       3.865   6.020  17.832  0.00  0.00    +0.000 C 
ATOM      2  C   UNL     1       4.016   4.518  17.548  0.00  0.00    +0.000 C 
ATOM      3  C   UNL     1       2.633   3.857  17.553  0.00  0.00    +0.000 C 
ATOM      4  C   UNL     1       4.703   4.275  16.205  0.00  0.00    +0.000 C 
ATOM      5  N   UNL     1       6.087   4.682  16.230  0.00  0.00    +0.000 N 
ATOM      6  C   UNL     1       6.887   4.411  17.296  0.00  0.00    +0.000 C 
ATOM      7  O   UNL     1       8.110   4.407  17.191  0.00  0.00    +0.000 OA
ATOM      8  N   UNL     1       6.256   4.114  18.465  0.00  0.00    +0.000 N 
ATOM      9  C   UNL     1       4.910   3.899  18.615  0.00  0.00    +0.000 C 
ATOM     10  O   UNL     1       4.480   3.274  19.583  0.00  0.00    +0.000 OA
ATOM     11  H   UNL     1       6.593   4.792  15.357  0.00  0.00    +0.000 HD
ATOM     12  H   UNL     1       6.852   3.767  19.202  0.00  0.00    +0.000 HD
ENDROOT
TORSDOF 0
ENDMDL
MODEL 4
REMARK VINA RESULT:      -5.3      3.312      4.119
REMARK  Name = 
REMARK  2 active torsions:
REMARK  status: ('A' for Active; 'I' for Inactive)
REMARK    1  A    between atoms: C_1  and  C_2
REMARK    2  A    between atoms: C_2  and  C_3
REMARK                            x       y       z     vdW  Elec       q    Type
REMARK                         _______ _______ _______ _____ _____    ______ ____
ROOT
ATOM      1  C   UNL     1       2.468   2.857  21.116  0.00  0.00    +0.000 C 
ATOM      2  C   UNL     1       2.500   3.027  19.589  0.00  0.00    +0.000 C 
ATOM      3  C   UNL     1       1.202   2.476  18.988  0.00  0.00    +0.000 C 
ATOM      4  C   UNL     1       2.673   4.494  19.197  0.00  0.00    +0.000 C 
ATOM      5  N   UNL     1       3.981   4.991  19.548  0.00  0.00    +0.000 N 
ATOM      6  C   UNL     1       5.102   4.248  19.343  0.00  0.00    +0.000 C 
ATOM      7  O   UNL     1       6.210   4.770  19.279  0.00  0.00    +0.000 OA
ATOM      8  N   UNL     1       4.917   2.909  19.178  0.00  0.00    +0.000 N 
ATOM      9  C   UNL     1       3.708   2.281  19.033  0.00  0.00    +0.000 C 
ATOM     10  O   UNL     1       3.639   1.167  18.515  0.00  0.00    +0.000 OA
ATOM     11  H   UNL     1       4.150   5.992  19.558  0.00  0.00    +0.000 HD
ATOM     12  H   UNL     1       5.731   2.395  18.876  0.00  0.00    +0.000 HD
ENDROOT
TORSDOF 0
ENDMDL
MODEL 5
REMARK VINA RESULT:      -5.3      4.473      5.287
REMARK  Name = 
REMARK  2 active torsions:
REMARK  status: ('A' for Active; 'I' for Inactive)
REMARK    1  A    between atoms: C_1  and  C_2
REMARK    2  A    between atoms: C_2  and  C_3
REMARK                            x       y       z     vdW  Elec       q    Type
REMARK                         _______ _______ _______ _____ _____    ______ ____
ROOT
ATOM      1  C   UNL     1       2.266   2.215  17.862  0.00  0.00    +0.000 C 
ATOM      2  C   UNL     1       2.677   3.500  18.596  0.00  0.00    +0.000 C 
ATOM      3  C   UNL     1       3.338   4.464  17.604  0.00  0.00    +0.000 C 
ATOM      4  C   UNL     1       1.472   4.173  19.252  0.00  0.00    +0.000 C 
ATOM      5  N   UNL     1       0.954   3.393  20.350  0.00  0.00    +0.000 N 
ATOM      6  C   UNL     1       1.782   2.791  21.245  0.00  0.00    +0.000 C 
ATOM      7  O   UNL     1       1.384   2.455  22.356  0.00  0.00    +0.000 OA
ATOM      8  N   UNL     1       3.074   2.617  20.851  0.00  0.00    +0.000 N 
ATOM      9  C   UNL     1       3.643   3.141  19.720  0.00  0.00    +0.000 C 
ATOM     10  O   UNL     1       4.863   3.267  19.633  0.00  0.00    +0.000 OA
ATOM     11  H   UNL     1       0.032   3.600  20.720  0.00  0.00    +0.000 HD
ATOM     12  H   UNL     1       3.709   2.312  21.575  0.00  0.00    +0.000 HD
ENDROOT
TORSDOF 0
ENDMDL
MODEL 6
REMARK VINA RESULT:      -5.3      3.797      4.509
REMARK  Name = 
REMARK  2 active torsions:
REMARK  status: ('A' for Active; 'I' for Inactive)
REMARK    1  A    between atoms: C_1  and  C_2
REMARK    2  A    between atoms: C_2  and  C_3
REMARK                            x       y       z     vdW  Elec       q    Type
REMARK                         _______ _______ _______ _____ _____    ______ ____
ROOT
ATOM      1  C   UNL     1       3.293   5.391  19.396  0.00  0.00    +0.000 C 
ATOM      2  C   UNL     1       2.819   4.047  18.821  0.00  0.00    +0.000 C 
ATOM      3  C   UNL     1       1.757   4.298  17.746  0.00  0.00    +0.000 C 
ATOM      4  C   UNL     1       3.985   3.257  18.227  0.00  0.00    +0.000 C 
ATOM      5  N   UNL     1       4.901   2.804  19.246  0.00  0.00    +0.000 N 
ATOM      6  C   UNL     1       4.455   2.291  20.424  0.00  0.00    +0.000 C 
ATOM      7  O   UNL     1       5.169   1.578  21.120  0.00  0.00    +0.000 OA
ATOM      8  N   UNL     1       3.169   2.586  20.762  0.00  0.00    +0.000 N 
ATOM      9  C   UNL     1       2.249   3.199  19.952  0.00  0.00    +0.000 C 
ATOM     10  O   UNL     1       1.045   3.082  20.173  0.00  0.00    +0.000 OA
ATOM     11  H   UNL     1       5.823   2.475  18.979  0.00  0.00    +0.000 HD
ATOM     12  H   UNL     1       2.804   2.078  21.554  0.00  0.00    +0.000 HD
ENDROOT
TORSDOF 0
ENDMDL
MODEL 7
REMARK VINA RESULT:      -5.3      1.902      3.287
REMARK  Name = 
REMARK  2 active torsions:
REMARK  status: ('A' for Active; 'I' for Inactive)
REMARK    1  A    between atoms: C_1  and  C_2
REMARK    2  A    between atoms: C_2  and  C_3
REMARK                            x       y       z     vdW  Elec       q    Type
REMARK                         _______ _______ _______ _____ _____    ______ ____
ROOT
ATOM      1  C   UNL     1       7.179   7.162  17.478  0.00  0.00    +0.000 C 
ATOM      2  C   UNL     1       6.571   5.755  17.592  0.00  0.00    +0.000 C 
ATOM      3  C   UNL     1       6.202   5.476  19.053  0.00  0.00    +0.000 C 
ATOM      4  C   UNL     1       5.333   5.613  16.706  0.00  0.00    +0.000 C 
ATOM      5  N   UNL     1       5.672   5.645  15.304  0.00  0.00    +0.000 N 
ATOM      6  C   UNL     1       6.754   4.979  14.819  0.00  0.00    +0.000 C 
ATOM      7  O   UNL     1       6.844   4.688  13.631  0.00  0.00    +0.000 OA
ATOM      8  N   UNL     1       7.704   4.628  15.729  0.00  0.00    +0.000 N 
ATOM      9  C   UNL     1       7.587   4.735  17.090  0.00  0.00    +0.000 C 
ATOM     10  O   UNL     1       8.297   4.062  17.835  0.00  0.00    +0.000 OA
ATOM     11  H   UNL     1       4.940   5.793  14.616  0.00  0.00    +0.000 HD
ATOM     12  H   UNL     1       8.421   4.006  15.387  0.00  0.00    +0.000 HD
ENDROOT
TORSDOF 0
ENDMDL
MODEL 8
REMARK VINA RESULT:      -5.3      3.171      3.657
REMARK  Name = 
REMARK  2 active torsions:
REMARK  status: ('A' for Active; 'I' for Inactive)
REMARK    1  A    between atoms: C_1  and  C_2
REMARK    2  A    between atoms: C_2  and  C_3
REMARK                            x       y       z     vdW  Elec       q    Type
REMARK                         _______ _______ _______ _____ _____    ______ ____
ROOT
ATOM      1  C   UNL     1       2.113   3.248  18.130  0.00  0.00    +0.000 C 
ATOM      2  C   UNL     1       2.498   3.460  19.602  0.00  0.00    +0.000 C 
ATOM      3  C   UNL     1       1.287   3.164  20.493  0.00  0.00    +0.000 C 
ATOM      4  C   UNL     1       3.670   2.564  20.003  0.00  0.00    +0.000 C 
ATOM      5  N   UNL     1       4.894   2.958  19.347  0.00  0.00    +0.000 N 
ATOM      6  C   UNL     1       5.241   4.267  19.220  0.00  0.00    +0.000 C 
ATOM      7  O   UNL     1       6.404   4.601  19.018  0.00  0.00    +0.000 OA
ATOM      8  N   UNL     1       4.237   5.175  19.365  0.00  0.00    +0.000 N 
ATOM      9  C   UNL     1       2.964   4.899  19.790  0.00  0.00    +0.000 C 
ATOM     10  O   UNL     1       2.253   5.788  20.256  0.00  0.00    +0.000 OA
ATOM     11  H   UNL     1       5.684   2.322  19.340  0.00  0.00    +0.000 HD
ATOM     12  H   UNL     1       4.532   6.139  19.421  0.00  0.00    +0.000 HD
ENDROOT
TORSDOF 0
ENDMDL
MODEL 9
REMARK VINA RESULT:      -5.2      3.268      3.750
REMARK  Name = 
REMARK  2 active torsions:
REMARK  status: ('A' for Active; 'I' for Inactive)
REMARK    1  A    between atoms: C_1  and  C_2
REMARK    2  A    between atoms: C_2  and  C_3
REMARK                            x       y       z     vdW  Elec       q    Type
REMARK                         _______ _______ _______ _____ _____    ______ ____
ROOT
ATOM      1  C   UNL     1       1.973   2.405  18.091  0.00  0.00    +0.000 C 
ATOM      2  C   UNL     1       2.740   3.613  18.651  0.00  0.00    +0.000 C 
ATOM      3  C   UNL     1       2.228   4.895  17.985  0.00  0.00    +0.000 C 
ATOM      4  C   UNL     1       2.583   3.715  20.167  0.00  0.00    +0.000 C 
ATOM      5  N   UNL     1       3.252   2.634  20.849  0.00  0.00    +0.000 N 
ATOM      6  C   UNL     1       4.487   2.210  20.468  0.00  0.00    +0.000 C 
ATOM      7  O   UNL     1       5.209   1.579  21.234  0.00  0.00    +0.000 OA
ATOM      8  N   UNL     1       4.883   2.556  19.212  0.00  0.00    +0.000 N 
ATOM      9  C   UNL     1       4.228   3.423  18.377  0.00  0.00    +0.000 C 
ATOM     10  O   UNL     1       4.824   3.971  17.451  0.00  0.00    +0.000 OA
ATOM     11  H   UNL     1       3.039   2.449  21.824  0.00  0.00    +0.000 HD
ATOM     12  H   UNL     1       5.852   2.371  18.999  0.00  0.00    +0.000 HD
ENDROOT
TORSDOF 0
ENDMDL
