MODEL 1
REMARK VINA RESULT:      -7.3      0.000      0.000
REMARK  Name = 
REMARK  6 active torsions:
REMARK  status: ('A' for Active; 'I' for Inactive)
REMARK    1  A    between atoms: C_1  and  C_2
REMARK    2  A    between atoms: C_6  and  C_8
REMARK    3  A    between atoms: C_8  and  C_9
REMARK    4  A    between atoms: C_16  and  C_17
REMARK    5  A    between atoms: C_18  and  C_19
REMARK    6  A    between atoms: C_20  and  O_21
REMARK                            x       y       z     vdW  Elec       q    Type
REMARK                         _______ _______ _______ _____ _____    ______ ____
ROOT
ATOM      1  C   UNL     1      -2.617  10.368  15.909  0.00  0.00    +0.000 C 
ATOM      2  C   UNL     1      -2.203  10.726  17.306  0.00  0.00    +0.000 A 
ATOM      3  N   UNL     1      -1.089  10.124  17.785  0.00  0.00    +0.000 NA
ATOM      4  C   UNL     1      -0.726  10.385  19.057  0.00  0.00    +0.000 A 
ATOM      5  N   UNL     1       0.398   9.646  19.453  0.00  0.00    +0.000 N 
ATOM      6  C   UNL     1       0.442   8.901  20.616  0.00  0.00    +0.000 C 
ATOM      7  O   UNL     1      -0.481   8.781  21.417  0.00  0.00    +0.000 OA
ATOM      8  C   UNL     1      -1.371  11.345  19.862  0.00  0.00    +0.000 A 
ATOM      9  C   UNL     1      -0.800  11.765  21.190  0.00  0.00    +0.000 C 
ATOM     10  C   UNL     1      -2.547  11.955  19.359  0.00  0.00    +0.000 A 
ATOM     11  C   UNL     1      -3.337  12.954  20.164  0.00  0.00    +0.000 C 
ATOM     12  C   UNL     1      -2.952  11.632  18.056  0.00  0.00    +0.000 A 
ATOM     13  H   UNL     1       0.859   9.221  18.657  0.00  0.00    +0.000 HD
ENDROOT
BRANCH  12  14
ATOM     14  O   UNL     1      -4.057  12.187  17.467  0.00  0.00    +0.000 OA
ATOM     15  H   UNL     1      -4.827  12.107  18.049  0.00  0.00    +0.000 HD
ENDBRANCH  12  14
BRANCH   6  16
ATOM     16  C   UNL     1       1.789   8.241  20.858  0.00  0.00    +0.000 C 
BRANCH  16  17
ATOM     17  C   UNL     1       2.052   6.968  20.087  0.00  0.00    +0.000 A 
ATOM     18  C   UNL     1       2.552   7.001  18.777  0.00  0.00    +0.000 A 
ATOM     19  C   UNL     1       2.701   5.822  18.041  0.00  0.00    +0.000 A 
ATOM     20  C   UNL     1       2.354   4.593  18.603  0.00  0.00    +0.000 A 
ATOM     21  C   UNL     1       1.854   4.550  19.900  0.00  0.00    +0.000 A 
ATOM     22 BR   UNL     1       1.360   2.890  20.661  0.00  0.00    +0.000 Br
ATOM     23  C   UNL     1       1.701   5.725  20.640  0.00  0.00    +0.000 A 
ENDBRANCH  16  17
ENDBRANCH   6  16
TORSDOF 3
ENDMDL
MODEL 2
REMARK VINA RESULT:      -7.3      3.874      7.984
REMARK  Name = 
REMARK  6 active torsions:
REMARK  status: ('A' for Active; 'I' for Inactive)
REMARK    1  A    between atoms: C_1  and  C_2
REMARK    2  A    between atoms: C_6  and  C_8
REMARK    3  A    between atoms: C_8  and  C_9
REMARK    4  A    between atoms: C_16  and  C_17
REMARK    5  A    between atoms: C_18  and  C_19
REMARK    6  A    between atoms: C_20  and  O_21
REMARK                            x       y       z     vdW  Elec       q    Type
REMARK                         _______ _______ _______ _____ _____    ______ ____
ROOT
ATOM      1  C   UNL     1       7.462   6.546  17.150  0.00  0.00    +0.000 C 
ATOM      2  C   UNL     1       6.064   6.145  17.521  0.00  0.00    +0.000 A 
ATOM      3  N   UNL     1       5.093   7.066  17.322  0.00  0.00    +0.000 NA
ATOM      4  C   UNL     1       3.837   6.752  17.700  0.00  0.00    +0.000 A 
ATOM      5  N   UNL     1       2.942   7.814  17.508  0.00  0.00    +0.000 N 
ATOM      6  C   UNL     1       2.088   8.271  18.494  0.00  0.00    +0.000 C 
ATOM      7  O   UNL     1       2.022   7.827  19.638  0.00  0.00    +0.000 OA
ATOM      8  C   UNL     1       3.468   5.475  18.167  0.00  0.00    +0.000 A 
ATOM      9  C   UNL     1       2.023   5.100  18.365  0.00  0.00    +0.000 C 
ATOM     10  C   UNL     1       4.495   4.525  18.391  0.00  0.00    +0.000 A 
ATOM     11  C   UNL     1       4.208   3.150  18.938  0.00  0.00    +0.000 C 
ATOM     12  C   UNL     1       5.808   4.880  18.052  0.00  0.00    +0.000 A 
ATOM     13  H   UNL     1       3.347   8.538  16.927  0.00  0.00    +0.000 HD
ENDROOT
BRANCH  12  14
ATOM     14  O   UNL     1       6.867   4.025  18.201  0.00  0.00    +0.000 OA
ATOM     15  H   UNL     1       7.551   4.216  17.543  0.00  0.00    +0.000 HD
ENDBRANCH  12  14
BRANCH   6  16
ATOM     16  C   UNL     1       1.170   9.388  18.027  0.00  0.00    +0.000 C 
BRANCH  16  17
ATOM     17  C   UNL     1       0.992  10.544  18.985  0.00  0.00    +0.000 A 
ATOM     18  C   UNL     1       1.672  11.756  18.797  0.00  0.00    +0.000 A 
ATOM     19  C   UNL     1       1.572  12.783  19.740  0.00  0.00    +0.000 A 
ATOM     20  C   UNL     1       0.792  12.614  20.885  0.00  0.00    +0.000 A 
ATOM     21  C   UNL     1       0.118  11.414  21.082  0.00  0.00    +0.000 A 
ATOM     22 BR   UNL     1      -0.924  11.169  22.642  0.00  0.00    +0.000 Br
ATOM     23  C   UNL     1       0.214  10.384  20.144  0.00  0.00    +0.000 A 
ENDBRANCH  16  17
ENDBRANCH   6  16
TORSDOF 3
ENDMDL
MODEL 3
REMARK VINA RESULT:      -7.3      4.354      8.305
REMARK  Name = 
REMARK  6 active torsions:
REMARK  status: ('A' for Active; 'I' for Inactive)
REMARK    1  A    between atoms: C_1  and  C_2
REMARK    2  A    between atoms: C_6  and  C_8
REMARK    3  A    between atoms: C_8  and  C_9
REMARK    4  A    between atoms: C_16  and  C_17
REMARK    5  A    between atoms: C_18  and  C_19
REMARK    6  A    between atoms: C_20  and  O_21
REMARK                            x       y       z     vdW  Elec       q    Type
REMARK                         _______ _______ _______ _____ _____    ______ ____
ROOT
ATOM      1  C   UNL     1       7.541   6.601  17.343  0.00  0.00    +0.000 C 
ATOM      2  C   UNL     1       6.122   6.188  17.602  0.00  0.00    +0.000 A 
ATOM      3  N   UNL     1       5.167   7.124  17.394  0.00  0.00    +0.000 NA
ATOM      4  C   UNL     1       3.889   6.797  17.674  0.00  0.00    +0.000 A 
ATOM      5  N   UNL     1       3.010   7.873  17.486  0.00  0.00    +0.000 N 
ATOM      6  C   UNL     1       2.097   8.279  18.441  0.00  0.00    +0.000 C 
ATOM      7  O   UNL     1       1.958   7.772  19.551  0.00  0.00    +0.000 OA
ATOM      8  C   UNL     1       3.488   5.498  18.044  0.00  0.00    +0.000 A 
ATOM      9  C   UNL     1       2.033   5.121  18.130  0.00  0.00    +0.000 C 
ATOM     10  C   UNL     1       4.497   4.531  18.278  0.00  0.00    +0.000 A 
ATOM     11  C   UNL     1       4.173   3.129  18.728  0.00  0.00    +0.000 C 
ATOM     12  C   UNL     1       5.830   4.897  18.044  0.00  0.00    +0.000 A 
ATOM     13  H   UNL     1       3.454   8.627  16.974  0.00  0.00    +0.000 HD
ENDROOT
BRANCH  12  14
ATOM     14  O   UNL     1       6.875   4.028  18.211  0.00  0.00    +0.000 OA
ATOM     15  H   UNL     1       7.685   4.395  17.826  0.00  0.00    +0.000 HD
ENDBRANCH  12  14
BRANCH   6  16
ATOM     16  C   UNL     1       1.213   9.427  17.980  0.00  0.00    +0.000 C 
BRANCH  16  17
ATOM     17  C   UNL     1       1.330  10.711  18.769  0.00  0.00    +0.000 A 
ATOM     18  C   UNL     1       0.546  10.938  19.909  0.00  0.00    +0.000 A 
ATOM     19  C   UNL     1       0.595  12.167  20.574  0.00  0.00    +0.000 A 
ATOM     20  C   UNL     1       1.427  13.186  20.110  0.00  0.00    +0.000 A 
ATOM     21  C   UNL     1       2.205  12.972  18.978  0.00  0.00    +0.000 A 
ATOM     22 BR   UNL     1       3.319  14.356  18.329  0.00  0.00    +0.000 Br
ATOM     23  C   UNL     1       2.160  11.747  18.308  0.00  0.00    +0.000 A 
ENDBRANCH  16  17
ENDBRANCH   6  16
TORSDOF 3
ENDMDL
MODEL 4
REMARK VINA RESULT:      -7.1      3.692      8.004
REMARK  Name = 
REMARK  6 active torsions:
REMARK  status: ('A' for Active; 'I' for Inactive)
REMARK    1  A    between atoms: C_1  and  C_2
REMARK    2  A    between atoms: C_6  and  C_8
REMARK    3  A    between atoms: C_8  and  C_9
REMARK    4  A    between atoms: C_16  and  C_17
REMARK    5  A    between atoms: C_18  and  C_19
REMARK    6  A    between atoms: C_20  and  O_21
REMARK                            x       y       z     vdW  Elec       q    Type
REMARK                         _______ _______ _______ _____ _____    ______ ____
ROOT
ATOM      1  C   UNL     1       7.033   4.767  18.950  0.00  0.00    +0.000 C 
ATOM      2  C   UNL     1       5.545   4.831  18.761  0.00  0.00    +0.000 A 
ATOM      3  N   UNL     1       5.036   6.005  18.322  0.00  0.00    +0.000 NA
ATOM      4  C   UNL     1       3.697   6.107  18.199  0.00  0.00    +0.000 A 
ATOM      5  N   UNL     1       3.294   7.392  17.807  0.00  0.00    +0.000 N 
ATOM      6  C   UNL     1       2.316   8.112  18.466  0.00  0.00    +0.000 C 
ATOM      7  O   UNL     1       1.707   7.734  19.464  0.00  0.00    +0.000 OA
ATOM      8  C   UNL     1       2.820   5.019  18.379  0.00  0.00    +0.000 A 
ATOM      9  C   UNL     1       1.363   5.119  18.016  0.00  0.00    +0.000 C 
ATOM     10  C   UNL     1       3.361   3.800  18.858  0.00  0.00    +0.000 A 
ATOM     11  C   UNL     1       2.498   2.595  19.132  0.00  0.00    +0.000 C 
ATOM     12  C   UNL     1       4.749   3.721  19.042  0.00  0.00    +0.000 A 
ATOM     13  H   UNL     1       4.080   7.941  17.481  0.00  0.00    +0.000 HD
ENDROOT
BRANCH  12  14
ATOM     14  O   UNL     1       5.373   2.580  19.473  0.00  0.00    +0.000 OA
ATOM     15  H   UNL     1       5.202   2.437  20.415  0.00  0.00    +0.000 HD
ENDBRANCH  12  14
BRANCH   6  16
ATOM     16  C   UNL     1       2.012   9.451  17.815  0.00  0.00    +0.000 C 
BRANCH  16  17
ATOM     17  C   UNL     1       0.779  10.167  18.319  0.00  0.00    +0.000 A 
ATOM     18  C   UNL     1       0.848  11.064  19.395  0.00  0.00    +0.000 A 
ATOM     19  C   UNL     1      -0.313  11.647  19.912  0.00  0.00    +0.000 A 
ATOM     20  C   UNL     1      -1.559  11.344  19.361  0.00  0.00    +0.000 A 
ATOM     21  C   UNL     1      -1.637  10.453  18.295  0.00  0.00    +0.000 A 
ATOM     22 BR   UNL     1      -3.323  10.020  17.557  0.00  0.00    +0.000 Br
ATOM     23  C   UNL     1      -0.481   9.866  17.775  0.00  0.00    +0.000 A 
ENDBRANCH  16  17
ENDBRANCH   6  16
TORSDOF 3
ENDMDL
MODEL 5
REMARK VINA RESULT:      -7.0      1.176      1.405
REMARK  Name = 
REMARK  6 active torsions:
REMARK  status: ('A' for Active; 'I' for Inactive)
REMARK    1  A    between atoms: C_1  and  C_2
REMARK    2  A    between atoms: C_6  and  C_8
REMARK    3  A    between atoms: C_8  and  C_9
REMARK    4  A    between atoms: C_16  and  C_17
REMARK    5  A    between atoms: C_18  and  C_19
REMARK    6  A    between atoms: C_20  and  O_21
REMARK                            x       y       z     vdW  Elec       q    Type
REMARK                         _______ _______ _______ _____ _____    ______ ____
ROOT
ATOM      1  C   UNL     1      -3.163   9.970  16.413  0.00  0.00    +0.000 C 
ATOM      2  C   UNL     1      -2.099  10.386  17.386  0.00  0.00    +0.000 A 
ATOM      3  N   UNL     1      -0.981   9.623  17.430  0.00  0.00    +0.000 NA
ATOM      4  C   UNL     1      -0.035   9.941  18.336  0.00  0.00    +0.000 A 
ATOM      5  N   UNL     1       1.035   9.034  18.329  0.00  0.00    +0.000 N 
ATOM      6  C   UNL     1       1.520   8.427  19.472  0.00  0.00    +0.000 C 
ATOM      7  O   UNL     1       1.073   8.589  20.605  0.00  0.00    +0.000 OA
ATOM      8  C   UNL     1      -0.093  11.095  19.141  0.00  0.00    +0.000 A 
ATOM      9  C   UNL     1       1.083  11.531  19.974  0.00  0.00    +0.000 C 
ATOM     10  C   UNL     1      -1.276  11.875  19.102  0.00  0.00    +0.000 A 
ATOM     11  C   UNL     1      -1.456  13.098  19.965  0.00  0.00    +0.000 C 
ATOM     12  C   UNL     1      -2.283  11.503  18.201  0.00  0.00    +0.000 A 
ATOM     13  H   UNL     1       1.008   8.439  17.510  0.00  0.00    +0.000 HD
ENDROOT
BRANCH  12  14
ATOM     14  O   UNL     1      -3.450  12.206  18.065  0.00  0.00    +0.000 OA
ATOM     15  H   UNL     1      -3.356  12.889  17.385  0.00  0.00    +0.000 HD
ENDBRANCH  12  14
BRANCH   6  16
ATOM     16  C   UNL     1       2.723   7.534  19.217  0.00  0.00    +0.000 C 
BRANCH  16  17
ATOM     17  C   UNL     1       2.433   6.058  19.068  0.00  0.00    +0.000 A 
ATOM     18  C   UNL     1       2.213   5.484  17.807  0.00  0.00    +0.000 A 
ATOM     19  C   UNL     1       1.853   4.139  17.690  0.00  0.00    +0.000 A 
ATOM     20  C   UNL     1       1.707   3.347  18.830  0.00  0.00    +0.000 A 
ATOM     21  C   UNL     1       1.919   3.908  20.084  0.00  0.00    +0.000 A 
ATOM     22 BR   UNL     1       1.702   2.848  21.635  0.00  0.00    +0.000 Br
ATOM     23  C   UNL     1       2.278   5.253  20.208  0.00  0.00    +0.000 A 
ENDBRANCH  16  17
ENDBRANCH   6  16
TORSDOF 3
ENDMDL
MODEL 6
REMARK VINA RESULT:      -6.9      3.944      7.588
REMARK  Name = 
REMARK  6 active torsions:
REMARK  status: ('A' for Active; 'I' for Inactive)
REMARK    1  A    between atoms: C_1  and  C_2
REMARK    2  A    between atoms: C_6  and  C_8
REMARK    3  A    between atoms: C_8  and  C_9
REMARK    4  A    between atoms: C_16  and  C_17
REMARK    5  A    between atoms: C_18  and  C_19
REMARK    6  A    between atoms: C_20  and  O_21
REMARK                            x       y       z     vdW  Elec       q    Type
REMARK                         _______ _______ _______ _____ _____    ______ ____
ROOT
ATOM      1  C   UNL     1       1.431   3.142  21.188  0.00  0.00    +0.000 C 
ATOM      2  C   UNL     1       2.070   4.070  20.196  0.00  0.00    +0.000 A 
ATOM      3  N   UNL     1       1.958   5.396  20.442  0.00  0.00    +0.000 NA
ATOM      4  C   UNL     1       2.473   6.253  19.538  0.00  0.00    +0.000 A 
ATOM      5  N   UNL     1       2.228   7.593  19.873  0.00  0.00    +0.000 N 
ATOM      6  C   UNL     1       1.684   8.506  18.990  0.00  0.00    +0.000 C 
ATOM      7  O   UNL     1       1.340   8.259  17.836  0.00  0.00    +0.000 OA
ATOM      8  C   UNL     1       3.230   5.837  18.425  0.00  0.00    +0.000 A 
ATOM      9  C   UNL     1       3.973   6.828  17.568  0.00  0.00    +0.000 C 
ATOM     10  C   UNL     1       3.324   4.447  18.165  0.00  0.00    +0.000 A 
ATOM     11  C   UNL     1       4.067   3.906  16.970  0.00  0.00    +0.000 C 
ATOM     12  C   UNL     1       2.733   3.564  19.078  0.00  0.00    +0.000 A 
ATOM     13  H   UNL     1       1.904   7.680  20.829  0.00  0.00    +0.000 HD
ENDROOT
BRANCH  12  14
ATOM     14  O   UNL     1       2.793   2.203  18.934  0.00  0.00    +0.000 OA
ATOM     15  H   UNL     1       2.039   1.783  19.374  0.00  0.00    +0.000 HD
ENDBRANCH  12  14
BRANCH   6  16
ATOM     16  C   UNL     1       1.573   9.908  19.564  0.00  0.00    +0.000 C 
BRANCH  16  17
ATOM     17  C   UNL     1       0.753  10.045  20.826  0.00  0.00    +0.000 A 
ATOM     18  C   UNL     1       0.365   8.919  21.567  0.00  0.00    +0.000 A 
ATOM     19  C   UNL     1      -0.472   9.051  22.679  0.00  0.00    +0.000 A 
ATOM     20  C   UNL     1      -0.934  10.309  23.067  0.00  0.00    +0.000 A 
ATOM     21  C   UNL     1      -0.558  11.431  22.336  0.00  0.00    +0.000 A 
ATOM     22 BR   UNL     1      -1.198  13.137  22.842  0.00  0.00    +0.000 Br
ATOM     23  C   UNL     1       0.277  11.306  21.224  0.00  0.00    +0.000 A 
ENDBRANCH  16  17
ENDBRANCH   6  16
TORSDOF 3
ENDMDL
MODEL 7
REMARK VINA RESULT:      -6.8      1.208      1.581
REMARK  Name = 
REMARK  6 active torsions:
REMARK  status: ('A' for Active; 'I' for Inactive)
REMARK    1  A    between atoms: C_1  and  C_2
REMARK    2  A    between atoms: C_6  and  C_8
REMARK    3  A    between atoms: C_8  and  C_9
REMARK    4  A    between atoms: C_16  and  C_17
REMARK    5  A    between atoms: C_18  and  C_19
REMARK    6  A    between atoms: C_20  and  O_21
REMARK                            x       y       z     vdW  Elec       q    Type
REMARK                         _______ _______ _______ _____ _____    ______ ____
ROOT
ATOM      1  C   UNL     1      -2.567  10.214  16.148  0.00  0.00    +0.000 C 
ATOM      2  C   UNL     1      -2.078  10.600  17.514  0.00  0.00    +0.000 A 
ATOM      3  N   UNL     1      -1.000   9.932  17.987  0.00  0.00    +0.000 NA
ATOM      4  C   UNL     1      -0.576  10.219  19.234  0.00  0.00    +0.000 A 
ATOM      5  N   UNL     1       0.499   9.411  19.631  0.00  0.00    +0.000 N 
ATOM      6  C   UNL     1       0.523   8.717  20.826  0.00  0.00    +0.000 C 
ATOM      7  O   UNL     1      -0.379   8.708  21.659  0.00  0.00    +0.000 OA
ATOM      8  C   UNL     1      -1.114  11.264  20.011  0.00  0.00    +0.000 A 
ATOM      9  C   UNL     1      -0.468  11.695  21.301  0.00  0.00    +0.000 C 
ATOM     10  C   UNL     1      -2.255  11.943  19.515  0.00  0.00    +0.000 A 
ATOM     11  C   UNL     1      -2.935  13.039  20.296  0.00  0.00    +0.000 C 
ATOM     12  C   UNL     1      -2.728  11.596  18.242  0.00  0.00    +0.000 A 
ATOM     13  H   UNL     1       0.897   8.914  18.842  0.00  0.00    +0.000 HD
ENDROOT
BRANCH  12  14
ATOM     14  O   UNL     1      -3.804  12.213  17.661  0.00  0.00    +0.000 OA
ATOM     15  H   UNL     1      -3.824  12.032  16.710  0.00  0.00    +0.000 HD
ENDBRANCH  12  14
BRANCH   6  16
ATOM     16  C   UNL     1       1.821   7.961  21.059  0.00  0.00    +0.000 C 
BRANCH  16  17
ATOM     17  C   UNL     1       1.984   6.671  20.288  0.00  0.00    +0.000 A 
ATOM     18  C   UNL     1       1.329   5.497  20.687  0.00  0.00    +0.000 A 
ATOM     19  C   UNL     1       1.562   4.290  20.023  0.00  0.00    +0.000 A 
ATOM     20  C   UNL     1       2.454   4.237  18.951  0.00  0.00    +0.000 A 
ATOM     21  C   UNL     1       3.112   5.395  18.551  0.00  0.00    +0.000 A 
ATOM     22 BR   UNL     1       4.339   5.327  17.113  0.00  0.00    +0.000 Br
ATOM     23  C   UNL     1       2.884   6.604  19.211  0.00  0.00    +0.000 A 
ENDBRANCH  16  17
ENDBRANCH   6  16
TORSDOF 3
ENDMDL
MODEL 8
REMARK VINA RESULT:      -6.8      3.294      7.658
REMARK  Name = 
REMARK  6 active torsions:
REMARK  status: ('A' for Active; 'I' for Inactive)
REMARK    1  A    between atoms: C_1  and  C_2
REMARK    2  A    between atoms: C_6  and  C_8
REMARK    3  A    between atoms: C_8  and  C_9
REMARK    4  A    between atoms: C_16  and  C_17
REMARK    5  A    between atoms: C_18  and  C_19
REMARK    6  A    between atoms: C_20  and  O_21
REMARK                            x       y       z     vdW  Elec       q    Type
REMARK                         _______ _______ _______ _____ _____    ______ ____
ROOT
ATOM      1  C   UNL     1       1.492   3.276  20.998  0.00  0.00    +0.000 C 
ATOM      2  C   UNL     1       2.171   4.196  20.026  0.00  0.00    +0.000 A 
ATOM      3  N   UNL     1       1.982   5.524  20.210  0.00  0.00    +0.000 NA
ATOM      4  C   UNL     1       2.534   6.370  19.317  0.00  0.00    +0.000 A 
ATOM      5  N   UNL     1       2.206   7.708  19.577  0.00  0.00    +0.000 N 
ATOM      6  C   UNL     1       1.699   8.563  18.617  0.00  0.00    +0.000 C 
ATOM      7  O   UNL     1       1.463   8.260  17.450  0.00  0.00    +0.000 OA
ATOM      8  C   UNL     1       3.399   5.949  18.287  0.00  0.00    +0.000 A 
ATOM      9  C   UNL     1       4.167   6.941  17.455  0.00  0.00    +0.000 C 
ATOM     10  C   UNL     1       3.573   4.557  18.091  0.00  0.00    +0.000 A 
ATOM     11  C   UNL     1       4.436   4.007  16.983  0.00  0.00    +0.000 C 
ATOM     12  C   UNL     1       2.946   3.680  18.987  0.00  0.00    +0.000 A 
ATOM     13  H   UNL     1       1.799   7.815  20.499  0.00  0.00    +0.000 HD
ENDROOT
BRANCH  12  14
ATOM     14  O   UNL     1       3.075   2.320  18.903  0.00  0.00    +0.000 OA
ATOM     15  H   UNL     1       2.521   1.885  19.567  0.00  0.00    +0.000 HD
ENDBRANCH  12  14
BRANCH   6  16
ATOM     16  C   UNL     1       1.481   9.979  19.124  0.00  0.00    +0.000 C 
BRANCH  16  17
ATOM     17  C   UNL     1       0.097  10.550  18.920  0.00  0.00    +0.000 A 
ATOM     18  C   UNL     1      -0.479  11.417  19.861  0.00  0.00    +0.000 A 
ATOM     19  C   UNL     1      -1.794  11.863  19.707  0.00  0.00    +0.000 A 
ATOM     20  C   UNL     1      -2.555  11.450  18.613  0.00  0.00    +0.000 A 
ATOM     21  C   UNL     1      -1.995  10.588  17.677  0.00  0.00    +0.000 A 
ATOM     22 BR   UNL     1      -3.026  10.005  16.203  0.00  0.00    +0.000 Br
ATOM     23  C   UNL     1      -0.681  10.137  17.825  0.00  0.00    +0.000 A 
ENDBRANCH  16  17
ENDBRANCH   6  16
TORSDOF 3
ENDMDL
MODEL 9
REMARK VINA RESULT:      -6.8      2.089      2.517
REMARK  Name = 
REMARK  6 active torsions:
REMARK  status: ('A' for Active; 'I' for Inactive)
REMARK    1  A    between atoms: C_1  and  C_2
REMARK    2  A    between atoms: C_6  and  C_8
REMARK    3  A    between atoms: C_8  and  C_9
REMARK    4  A    between atoms: C_16  and  C_17
REMARK    5  A    between atoms: C_18  and  C_19
REMARK    6  A    between atoms: C_20  and  O_21
REMARK                            x       y       z     vdW  Elec       q    Type
REMARK                         _______ _______ _______ _____ _____    ______ ____
ROOT
ATOM      1  C   UNL     1      -3.407  10.157  16.588  0.00  0.00    +0.000 C 
ATOM      2  C   UNL     1      -2.300  10.469  17.552  0.00  0.00    +0.000 A 
ATOM      3  N   UNL     1      -1.081   9.953  17.269  0.00  0.00    +0.000 NA
ATOM      4  C   UNL     1      -0.082  10.171  18.148  0.00  0.00    +0.000 A 
ATOM      5  N   UNL     1       1.106   9.526  17.776  0.00  0.00    +0.000 N 
ATOM      6  C   UNL     1       1.829   8.719  18.633  0.00  0.00    +0.000 C 
ATOM      7  O   UNL     1       1.520   8.459  19.793  0.00  0.00    +0.000 OA
ATOM      8  C   UNL     1      -0.212  11.011  19.272  0.00  0.00    +0.000 A 
ATOM      9  C   UNL     1       0.982  11.404  20.099  0.00  0.00    +0.000 C 
ATOM     10  C   UNL     1      -1.497  11.530  19.570  0.00  0.00    +0.000 A 
ATOM     11  C   UNL     1      -1.749  12.395  20.779  0.00  0.00    +0.000 C 
ATOM     12  C   UNL     1      -2.545  11.248  18.683  0.00  0.00    +0.000 A 
ATOM     13  H   UNL     1       1.063   9.198  16.818  0.00  0.00    +0.000 HD
ENDROOT
BRANCH  12  14
ATOM     14  O   UNL     1      -3.816  11.725  18.866  0.00  0.00    +0.000 OA
ATOM     15  H   UNL     1      -3.937  12.025  19.778  0.00  0.00    +0.000 HD
ENDBRANCH  12  14
BRANCH   6  16
ATOM     16  C   UNL     1       3.112   8.184  18.019  0.00  0.00    +0.000 C 
BRANCH  16  17
ATOM     17  C   UNL     1       3.143   6.699  17.737  0.00  0.00    +0.000 A 
ATOM     18  C   UNL     1       2.127   5.850  18.200  0.00  0.00    +0.000 A 
ATOM     19  C   UNL     1       2.215   4.467  18.014  0.00  0.00    +0.000 A 
ATOM     20  C   UNL     1       3.318   3.913  17.364  0.00  0.00    +0.000 A 
ATOM     21  C   UNL     1       4.332   4.746  16.905  0.00  0.00    +0.000 A 
ATOM     22 BR   UNL     1       5.841   4.000  16.043  0.00  0.00    +0.000 Br
ATOM     23  C   UNL     1       4.251   6.129  17.088  0.00  0.00    +0.000 A 
ENDBRANCH  16  17
ENDBRANCH   6  16
TORSDOF 3
ENDMDL
