MODEL 1
REMARK VINA RESULT:      -7.5      0.000      0.000
REMARK  Name = 
REMARK  10 active torsions:
REMARK  status: ('A' for Active; 'I' for Inactive)
REMARK    1  A    between atoms: C_2  and  C_3
REMARK    2  A    between atoms: C_2  and  C_6
REMARK    3  A    between atoms: C_3  and  O_5
REMARK    4  A    between atoms: C_6  and  C_7
REMARK    5  A    between atoms: C_6  and  C_12
REMARK    6  A    between atoms: C_7  and  C_8
REMARK    7  A    between atoms: C_8  and  C_9
REMARK    8  A    between atoms: C_9  and  C_10
REMARK    9  A    between atoms: C_12  and  C_13
REMARK   10  A    between atoms: C_14  and  C_15
REMARK                            x       y       z     vdW  Elec       q    Type
REMARK                         _______ _______ _______ _____ _____    ______ ____
ROOT
ATOM      1  C   UNL     1       5.412   5.735  17.775  0.00  0.00    +0.000 C 
ENDROOT
BRANCH   1   3
ATOM      2  C   UNL     1       7.371   7.336  17.459  0.00  0.00    +0.000 C 
ATOM      3  C   UNL     1       6.898   6.142  17.866  0.00  0.00    +0.000 C 
BRANCH   3   4
ATOM      4  C   UNL     1       7.801   5.127  18.499  0.00  0.00    +0.000 C 
ATOM      5  O   UNL     1       8.152   5.187  19.663  0.00  0.00    +0.000 OA
BRANCH   4   6
ATOM      6  O   UNL     1       8.206   4.125  17.689  0.00  0.00    +0.000 OA
ATOM      7  H   UNL     1       9.073   3.734  17.900  0.00  0.00    +0.000 HD
ENDBRANCH   4   6
ENDBRANCH   3   4
ENDBRANCH   1   3
BRANCH   1   8
ATOM      8  C   UNL     1       4.996   5.391  16.324  0.00  0.00    +0.000 C 
BRANCH   8   9
ATOM      9  C   UNL     1       5.541   4.082  15.730  0.00  0.00    +0.000 C 
BRANCH   9  10
ATOM     10  C   UNL     1       6.505   4.382  14.589  0.00  0.00    +0.000 C 
ATOM     11  C   UNL     1       6.214   3.778  13.242  0.00  0.00    +0.000 C 
ATOM     12  O   UNL     1       7.485   5.116  14.734  0.00  0.00    +0.000 OA
ENDBRANCH   9  10
ENDBRANCH   8   9
ENDBRANCH   1   8
BRANCH   1  13
ATOM     13  C   UNL     1       5.058   4.539  18.735  0.00  0.00    +0.000 C 
BRANCH  13  14
ATOM     14  C   UNL     1       3.614   4.145  18.911  0.00  0.00    +0.000 C 
ATOM     15  C   UNL     1       3.000   2.991  18.580  0.00  0.00    +0.000 C 
ATOM     16  C   UNL     1       3.534   1.716  18.034  0.00  0.00    +0.000 C 
ATOM     17  C   UNL     1       1.561   3.076  18.932  0.00  0.00    +0.000 C 
ATOM     18  O   UNL     1       0.743   2.202  18.683  0.00  0.00    +0.000 OA
ATOM     19  C   UNL     1       1.268   4.357  19.637  0.00  0.00    +0.000 C 
ATOM     20  C   UNL     1       2.609   5.021  19.569  0.00  0.00    +0.000 C 
ATOM     21  O   UNL     1       2.858   6.124  20.022  0.00  0.00    +0.000 OA
ENDBRANCH  13  14
ENDBRANCH   1  13
TORSDOF 8
ENDMDL
MODEL 2
REMARK VINA RESULT:      -7.4      1.803      3.595
REMARK  Name = 
REMARK  10 active torsions:
REMARK  status: ('A' for Active; 'I' for Inactive)
REMARK    1  A    between atoms: C_2  and  C_3
REMARK    2  A    between atoms: C_2  and  C_6
REMARK    3  A    between atoms: C_3  and  O_5
REMARK    4  A    between atoms: C_6  and  C_7
REMARK    5  A    between atoms: C_6  and  C_12
REMARK    6  A    between atoms: C_7  and  C_8
REMARK    7  A    between atoms: C_8  and  C_9
REMARK    8  A    between atoms: C_9  and  C_10
REMARK    9  A    between atoms: C_12  and  C_13
REMARK   10  A    between atoms: C_14  and  C_15
REMARK                            x       y       z     vdW  Elec       q    Type
REMARK                         _______ _______ _______ _____ _____    ______ ____
ROOT
ATOM      1  C   UNL     1       5.122   4.159  17.719  0.00  0.00    +0.000 C 
ENDROOT
BRANCH   1   3
ATOM      2  C   UNL     1       5.274   4.175  15.174  0.00  0.00    +0.000 C 
ATOM      3  C   UNL     1       5.846   4.387  16.375  0.00  0.00    +0.000 C 
BRANCH   3   4
ATOM      4  C   UNL     1       7.242   4.923  16.484  0.00  0.00    +0.000 C 
ATOM      5  O   UNL     1       7.587   5.976  15.983  0.00  0.00    +0.000 OA
BRANCH   4   6
ATOM      6  O   UNL     1       8.105   4.157  17.185  0.00  0.00    +0.000 OA
ATOM      7  H   UNL     1       8.243   3.255  16.845  0.00  0.00    +0.000 HD
ENDBRANCH   4   6
ENDBRANCH   3   4
ENDBRANCH   1   3
BRANCH   1   8
ATOM      8  C   UNL     1       4.701   5.494  18.381  0.00  0.00    +0.000 C 
BRANCH   8   9
ATOM      9  C   UNL     1       3.862   6.463  17.532  0.00  0.00    +0.000 C 
BRANCH   9  10
ATOM     10  C   UNL     1       2.822   7.160  18.401  0.00  0.00    +0.000 C 
ATOM     11  C   UNL     1       2.148   8.387  17.847  0.00  0.00    +0.000 C 
ATOM     12  O   UNL     1       2.504   6.735  19.513  0.00  0.00    +0.000 OA
ENDBRANCH   9  10
ENDBRANCH   8   9
ENDBRANCH   1   8
BRANCH   1  13
ATOM     13  C   UNL     1       3.874   3.211  17.576  0.00  0.00    +0.000 C 
BRANCH  13  14
ATOM     14  C   UNL     1       2.897   3.110  18.718  0.00  0.00    +0.000 C 
ATOM     15  C   UNL     1       3.097   2.659  19.973  0.00  0.00    +0.000 C 
ATOM     16  C   UNL     1       4.332   2.212  20.670  0.00  0.00    +0.000 C 
ATOM     17  C   UNL     1       1.827   2.735  20.737  0.00  0.00    +0.000 C 
ATOM     18  O   UNL     1       1.693   2.330  21.882  0.00  0.00    +0.000 OA
ATOM     19  C   UNL     1       0.761   3.383  19.920  0.00  0.00    +0.000 C 
ATOM     20  C   UNL     1       1.487   3.575  18.623  0.00  0.00    +0.000 C 
ATOM     21  O   UNL     1       1.000   4.075  17.625  0.00  0.00    +0.000 OA
ENDBRANCH  13  14
ENDBRANCH   1  13
TORSDOF 8
ENDMDL
MODEL 3
REMARK VINA RESULT:      -7.3      1.781      3.540
REMARK  Name = 
REMARK  10 active torsions:
REMARK  status: ('A' for Active; 'I' for Inactive)
REMARK    1  A    between atoms: C_2  and  C_3
REMARK    2  A    between atoms: C_2  and  C_6
REMARK    3  A    between atoms: C_3  and  O_5
REMARK    4  A    between atoms: C_6  and  C_7
REMARK    5  A    between atoms: C_6  and  C_12
REMARK    6  A    between atoms: C_7  and  C_8
REMARK    7  A    between atoms: C_8  and  C_9
REMARK    8  A    between atoms: C_9  and  C_10
REMARK    9  A    between atoms: C_12  and  C_13
REMARK   10  A    between atoms: C_14  and  C_15
REMARK                            x       y       z     vdW  Elec       q    Type
REMARK                         _______ _______ _______ _____ _____    ______ ____
ROOT
ATOM      1  C   UNL     1       5.125   4.189  17.547  0.00  0.00    +0.000 C 
ENDROOT
BRANCH   1   3
ATOM      2  C   UNL     1       5.235   4.263  15.000  0.00  0.00    +0.000 C 
ATOM      3  C   UNL     1       5.841   4.399  16.196  0.00  0.00    +0.000 C 
BRANCH   3   4
ATOM      4  C   UNL     1       7.275   4.826  16.293  0.00  0.00    +0.000 C 
ATOM      5  O   UNL     1       8.045   4.376  17.122  0.00  0.00    +0.000 OA
BRANCH   4   6
ATOM      6  O   UNL     1       7.668   5.750  15.391  0.00  0.00    +0.000 OA
ATOM      7  H   UNL     1       8.496   5.554  14.918  0.00  0.00    +0.000 HD
ENDBRANCH   4   6
ENDBRANCH   3   4
ENDBRANCH   1   3
BRANCH   1   8
ATOM      8  C   UNL     1       4.721   5.534  18.200  0.00  0.00    +0.000 C 
BRANCH   8   9
ATOM      9  C   UNL     1       4.059   6.584  17.293  0.00  0.00    +0.000 C 
BRANCH   9  10
ATOM     10  C   UNL     1       2.980   7.337  18.060  0.00  0.00    +0.000 C 
ATOM     11  C   UNL     1       2.604   6.833  19.427  0.00  0.00    +0.000 C 
ATOM     12  O   UNL     1       2.437   8.347  17.608  0.00  0.00    +0.000 OA
ENDBRANCH   9  10
ENDBRANCH   8   9
ENDBRANCH   1   8
BRANCH   1  13
ATOM     13  C   UNL     1       3.866   3.253  17.420  0.00  0.00    +0.000 C 
BRANCH  13  14
ATOM     14  C   UNL     1       2.911   3.148  18.581  0.00  0.00    +0.000 C 
ATOM     15  C   UNL     1       3.136   2.694  19.831  0.00  0.00    +0.000 C 
ATOM     16  C   UNL     1       4.384   2.246  20.502  0.00  0.00    +0.000 C 
ATOM     17  C   UNL     1       1.881   2.768  20.619  0.00  0.00    +0.000 C 
ATOM     18  O   UNL     1       1.769   2.360  21.765  0.00  0.00    +0.000 OA
ATOM     19  C   UNL     1       0.799   3.418  19.824  0.00  0.00    +0.000 C 
ATOM     20  C   UNL     1       1.500   3.613  18.515  0.00  0.00    +0.000 C 
ATOM     21  O   UNL     1       0.994   4.116  17.528  0.00  0.00    +0.000 OA
ENDBRANCH  13  14
ENDBRANCH   1  13
TORSDOF 8
ENDMDL
MODEL 4
REMARK VINA RESULT:      -7.1      1.702      2.259
REMARK  Name = 
REMARK  10 active torsions:
REMARK  status: ('A' for Active; 'I' for Inactive)
REMARK    1  A    between atoms: C_2  and  C_3
REMARK    2  A    between atoms: C_2  and  C_6
REMARK    3  A    between atoms: C_3  and  O_5
REMARK    4  A    between atoms: C_6  and  C_7
REMARK    5  A    between atoms: C_6  and  C_12
REMARK    6  A    between atoms: C_7  and  C_8
REMARK    7  A    between atoms: C_8  and  C_9
REMARK    8  A    between atoms: C_9  and  C_10
REMARK    9  A    between atoms: C_12  and  C_13
REMARK   10  A    between atoms: C_14  and  C_15
REMARK                            x       y       z     vdW  Elec       q    Type
REMARK                         _______ _______ _______ _____ _____    ______ ____
ROOT
ATOM      1  C   UNL     1       4.876   4.104  16.590  0.00  0.00    +0.000 C 
ENDROOT
BRANCH   1   3
ATOM      2  C   UNL     1       4.977   6.497  17.463  0.00  0.00    +0.000 C 
ATOM      3  C   UNL     1       5.451   5.236  17.466  0.00  0.00    +0.000 C 
BRANCH   3   4
ATOM      4  C   UNL     1       6.563   4.830  18.386  0.00  0.00    +0.000 C 
ATOM      5  O   UNL     1       7.640   4.428  17.986  0.00  0.00    +0.000 OA
BRANCH   4   6
ATOM      6  O   UNL     1       6.296   4.940  19.705  0.00  0.00    +0.000 OA
ATOM      7  H   UNL     1       5.993   5.815  20.004  0.00  0.00    +0.000 HD
ENDBRANCH   4   6
ENDBRANCH   3   4
ENDBRANCH   1   3
BRANCH   1   8
ATOM      8  C   UNL     1       5.909   3.595  15.554  0.00  0.00    +0.000 C 
BRANCH   8   9
ATOM      9  C   UNL     1       5.879   4.239  14.159  0.00  0.00    +0.000 C 
BRANCH   9  10
ATOM     10  C   UNL     1       7.175   4.995  13.899  0.00  0.00    +0.000 C 
ATOM     11  C   UNL     1       7.663   5.092  12.479  0.00  0.00    +0.000 C 
ATOM     12  O   UNL     1       7.808   5.544  14.803  0.00  0.00    +0.000 OA
ENDBRANCH   9  10
ENDBRANCH   8   9
ENDBRANCH   1   8
BRANCH   1  13
ATOM     13  C   UNL     1       4.333   2.899  17.445  0.00  0.00    +0.000 C 
BRANCH  13  14
ATOM     14  C   UNL     1       3.469   3.184  18.645  0.00  0.00    +0.000 C 
ATOM     15  C   UNL     1       2.270   3.799  18.706  0.00  0.00    +0.000 C 
ATOM     16  C   UNL     1       1.371   4.304  17.635  0.00  0.00    +0.000 C 
ATOM     17  C   UNL     1       1.816   3.864  20.117  0.00  0.00    +0.000 C 
ATOM     18  O   UNL     1       0.795   4.428  20.481  0.00  0.00    +0.000 OA
ATOM     19  C   UNL     1       2.766   3.139  21.008  0.00  0.00    +0.000 C 
ATOM     20  C   UNL     1       3.825   2.750  20.022  0.00  0.00    +0.000 C 
ATOM     21  O   UNL     1       4.835   2.129  20.301  0.00  0.00    +0.000 OA
ENDBRANCH  13  14
ENDBRANCH   1  13
TORSDOF 8
ENDMDL
MODEL 5
REMARK VINA RESULT:      -7.1      1.473      3.244
REMARK  Name = 
REMARK  10 active torsions:
REMARK  status: ('A' for Active; 'I' for Inactive)
REMARK    1  A    between atoms: C_2  and  C_3
REMARK    2  A    between atoms: C_2  and  C_6
REMARK    3  A    between atoms: C_3  and  O_5
REMARK    4  A    between atoms: C_6  and  C_7
REMARK    5  A    between atoms: C_6  and  C_12
REMARK    6  A    between atoms: C_7  and  C_8
REMARK    7  A    between atoms: C_8  and  C_9
REMARK    8  A    between atoms: C_9  and  C_10
REMARK    9  A    between atoms: C_12  and  C_13
REMARK   10  A    between atoms: C_14  and  C_15
REMARK                            x       y       z     vdW  Elec       q    Type
REMARK                         _______ _______ _______ _____ _____    ______ ____
ROOT
ATOM      1  C   UNL     1       5.218   4.129  17.122  0.00  0.00    +0.000 C 
ENDROOT
BRANCH   1   3
ATOM      2  C   UNL     1       5.017   4.447  14.599  0.00  0.00    +0.000 C 
ATOM      3  C   UNL     1       5.780   4.393  15.709  0.00  0.00    +0.000 C 
BRANCH   3   4
ATOM      4  C   UNL     1       7.257   4.646  15.646  0.00  0.00    +0.000 C 
ATOM      5  O   UNL     1       7.771   5.360  14.805  0.00  0.00    +0.000 OA
BRANCH   4   6
ATOM      6  O   UNL     1       7.993   4.026  16.593  0.00  0.00    +0.000 OA
ATOM      7  H   UNL     1       8.790   4.502  16.888  0.00  0.00    +0.000 HD
ENDBRANCH   4   6
ENDBRANCH   3   4
ENDBRANCH   1   3
BRANCH   1   8
ATOM      8  C   UNL     1       4.955   5.446  17.893  0.00  0.00    +0.000 C 
BRANCH   8   9
ATOM      9  C   UNL     1       5.692   5.636  19.228  0.00  0.00    +0.000 C 
BRANCH   9  10
ATOM     10  C   UNL     1       7.184   5.825  18.985  0.00  0.00    +0.000 C 
ATOM     11  C   UNL     1       7.626   7.055  18.240  0.00  0.00    +0.000 C 
ATOM     12  O   UNL     1       8.023   5.024  19.400  0.00  0.00    +0.000 OA
ENDBRANCH   9  10
ENDBRANCH   8   9
ENDBRANCH   1   8
BRANCH   1  13
ATOM     13  C   UNL     1       3.912   3.251  17.094  0.00  0.00    +0.000 C 
BRANCH  13  14
ATOM     14  C   UNL     1       3.026   3.218  18.312  0.00  0.00    +0.000 C 
ATOM     15  C   UNL     1       3.288   2.734  19.543  0.00  0.00    +0.000 C 
ATOM     16  C   UNL     1       4.532   2.174  20.133  0.00  0.00    +0.000 C 
ATOM     17  C   UNL     1       2.096   2.909  20.410  0.00  0.00    +0.000 C 
ATOM     18  O   UNL     1       2.021   2.500  21.558  0.00  0.00    +0.000 OA
ATOM     19  C   UNL     1       1.028   3.657  19.687  0.00  0.00    +0.000 C 
ATOM     20  C   UNL     1       1.660   3.804  18.337  0.00  0.00    +0.000 C 
ATOM     21  O   UNL     1       1.138   4.358  17.386  0.00  0.00    +0.000 OA
ENDBRANCH  13  14
ENDBRANCH   1  13
TORSDOF 8
ENDMDL
MODEL 6
REMARK VINA RESULT:      -7.1      1.509      3.529
REMARK  Name = 
REMARK  10 active torsions:
REMARK  status: ('A' for Active; 'I' for Inactive)
REMARK    1  A    between atoms: C_2  and  C_3
REMARK    2  A    between atoms: C_2  and  C_6
REMARK    3  A    between atoms: C_3  and  O_5
REMARK    4  A    between atoms: C_6  and  C_7
REMARK    5  A    between atoms: C_6  and  C_12
REMARK    6  A    between atoms: C_7  and  C_8
REMARK    7  A    between atoms: C_8  and  C_9
REMARK    8  A    between atoms: C_9  and  C_10
REMARK    9  A    between atoms: C_12  and  C_13
REMARK   10  A    between atoms: C_14  and  C_15
REMARK                            x       y       z     vdW  Elec       q    Type
REMARK                         _______ _______ _______ _____ _____    ______ ____
ROOT
ATOM      1  C   UNL     1       4.570   4.398  16.998  0.00  0.00    +0.000 C 
ENDROOT
BRANCH   1   3
ATOM      2  C   UNL     1       4.895   6.756  16.083  0.00  0.00    +0.000 C 
ATOM      3  C   UNL     1       5.216   5.448  16.069  0.00  0.00    +0.000 C 
BRANCH   3   4
ATOM      4  C   UNL     1       6.289   4.924  15.162  0.00  0.00    +0.000 C 
ATOM      5  O   UNL     1       6.100   4.028  14.361  0.00  0.00    +0.000 OA
BRANCH   4   6
ATOM      6  O   UNL     1       7.496   5.517  15.288  0.00  0.00    +0.000 OA
ATOM      7  H   UNL     1       8.188   4.983  15.716  0.00  0.00    +0.000 HD
ENDBRANCH   4   6
ENDBRANCH   3   4
ENDBRANCH   1   3
BRANCH   1   8
ATOM      8  C   UNL     1       5.496   4.029  18.183  0.00  0.00    +0.000 C 
BRANCH   8   9
ATOM      9  C   UNL     1       6.086   5.190  19.000  0.00  0.00    +0.000 C 
BRANCH   9  10
ATOM     10  C   UNL     1       7.538   5.428  18.605  0.00  0.00    +0.000 C 
ATOM     11  C   UNL     1       8.061   6.839  18.659  0.00  0.00    +0.000 C 
ATOM     12  O   UNL     1       8.288   4.508  18.276  0.00  0.00    +0.000 OA
ENDBRANCH   9  10
ENDBRANCH   8   9
ENDBRANCH   1   8
BRANCH   1  13
ATOM     13  C   UNL     1       3.164   4.857  17.536  0.00  0.00    +0.000 C 
BRANCH  13  14
ATOM     14  C   UNL     1       2.446   3.991  18.538  0.00  0.00    +0.000 C 
ATOM     15  C   UNL     1       2.047   4.290  19.791  0.00  0.00    +0.000 C 
ATOM     16  C   UNL     1       2.089   5.563  20.557  0.00  0.00    +0.000 C 
ATOM     17  C   UNL     1       1.393   3.105  20.401  0.00  0.00    +0.000 C 
ATOM     18  O   UNL     1       0.995   3.063  21.555  0.00  0.00    +0.000 OA
ATOM     19  C   UNL     1       1.284   1.998  19.408  0.00  0.00    +0.000 C 
ATOM     20  C   UNL     1       2.002   2.603  18.241  0.00  0.00    +0.000 C 
ATOM     21  O   UNL     1       2.175   2.046  17.171  0.00  0.00    +0.000 OA
ENDBRANCH  13  14
ENDBRANCH   1  13
TORSDOF 8
ENDMDL
MODEL 7
REMARK VINA RESULT:      -7.0      1.589      2.169
REMARK  Name = 
REMARK  10 active torsions:
REMARK  status: ('A' for Active; 'I' for Inactive)
REMARK    1  A    between atoms: C_2  and  C_3
REMARK    2  A    between atoms: C_2  and  C_6
REMARK    3  A    between atoms: C_3  and  O_5
REMARK    4  A    between atoms: C_6  and  C_7
REMARK    5  A    between atoms: C_6  and  C_12
REMARK    6  A    between atoms: C_7  and  C_8
REMARK    7  A    between atoms: C_8  and  C_9
REMARK    8  A    between atoms: C_9  and  C_10
REMARK    9  A    between atoms: C_12  and  C_13
REMARK   10  A    between atoms: C_14  and  C_15
REMARK                            x       y       z     vdW  Elec       q    Type
REMARK                         _______ _______ _______ _____ _____    ______ ____
ROOT
ATOM      1  C   UNL     1       5.673   5.794  18.022  0.00  0.00    +0.000 C 
ENDROOT
BRANCH   1   3
ATOM      2  C   UNL     1       7.908   5.116  19.045  0.00  0.00    +0.000 C 
ATOM      3  C   UNL     1       7.148   6.029  18.410  0.00  0.00    +0.000 C 
BRANCH   3   4
ATOM      4  C   UNL     1       7.719   7.347  17.980  0.00  0.00    +0.000 C 
ATOM      5  O   UNL     1       8.492   7.989  18.668  0.00  0.00    +0.000 OA
BRANCH   4   6
ATOM      6  O   UNL     1       7.322   7.785  16.766  0.00  0.00    +0.000 OA
ATOM      7  H   UNL     1       7.975   7.696  16.050  0.00  0.00    +0.000 HD
ENDBRANCH   4   6
ENDBRANCH   3   4
ENDBRANCH   1   3
BRANCH   1   8
ATOM      8  C   UNL     1       5.532   4.730  16.906  0.00  0.00    +0.000 C 
BRANCH   8   9
ATOM      9  C   UNL     1       5.359   5.242  15.467  0.00  0.00    +0.000 C 
BRANCH   9  10
ATOM     10  C   UNL     1       6.585   4.893  14.632  0.00  0.00    +0.000 C 
ATOM     11  C   UNL     1       6.404   3.947  13.476  0.00  0.00    +0.000 C 
ATOM     12  O   UNL     1       7.694   5.380  14.859  0.00  0.00    +0.000 OA
ENDBRANCH   9  10
ENDBRANCH   8   9
ENDBRANCH   1   8
BRANCH   1  13
ATOM     13  C   UNL     1       4.783   5.398  19.258  0.00  0.00    +0.000 C 
BRANCH  13  14
ATOM     14  C   UNL     1       3.786   4.278  19.114  0.00  0.00    +0.000 C 
ATOM     15  C   UNL     1       2.548   4.302  18.580  0.00  0.00    +0.000 C 
ATOM     16  C   UNL     1       1.801   5.382  17.884  0.00  0.00    +0.000 C 
ATOM     17  C   UNL     1       1.938   2.953  18.679  0.00  0.00    +0.000 C 
ATOM     18  O   UNL     1       0.794   2.694  18.337  0.00  0.00    +0.000 OA
ATOM     19  C   UNL     1       2.917   1.974  19.233  0.00  0.00    +0.000 C 
ATOM     20  C   UNL     1       4.074   2.878  19.527  0.00  0.00    +0.000 C 
ATOM     21  O   UNL     1       5.131   2.514  20.012  0.00  0.00    +0.000 OA
ENDBRANCH  13  14
ENDBRANCH   1  13
TORSDOF 8
ENDMDL
MODEL 8
REMARK VINA RESULT:      -7.0      1.506      1.772
REMARK  Name = 
REMARK  10 active torsions:
REMARK  status: ('A' for Active; 'I' for Inactive)
REMARK    1  A    between atoms: C_2  and  C_3
REMARK    2  A    between atoms: C_2  and  C_6
REMARK    3  A    between atoms: C_3  and  O_5
REMARK    4  A    between atoms: C_6  and  C_7
REMARK    5  A    between atoms: C_6  and  C_12
REMARK    6  A    between atoms: C_7  and  C_8
REMARK    7  A    between atoms: C_8  and  C_9
REMARK    8  A    between atoms: C_9  and  C_10
REMARK    9  A    between atoms: C_12  and  C_13
REMARK   10  A    between atoms: C_14  and  C_15
REMARK                            x       y       z     vdW  Elec       q    Type
REMARK                         _______ _______ _______ _____ _____    ______ ____
ROOT
ATOM      1  C   UNL     1       5.136   5.363  16.867  0.00  0.00    +0.000 C 
ENDROOT
BRANCH   1   3
ATOM      2  C   UNL     1       6.716   7.267  17.480  0.00  0.00    +0.000 C 
ATOM      3  C   UNL     1       6.412   5.955  17.500  0.00  0.00    +0.000 C 
BRANCH   3   4
ATOM      4  C   UNL     1       7.294   4.967  18.204  0.00  0.00    +0.000 C 
ATOM      5  O   UNL     1       7.395   4.916  19.415  0.00  0.00    +0.000 OA
BRANCH   4   6
ATOM      6  O   UNL     1       7.977   4.123  17.401  0.00  0.00    +0.000 OA
ATOM      7  H   UNL     1       7.758   4.169  16.454  0.00  0.00    +0.000 HD
ENDBRANCH   4   6
ENDBRANCH   3   4
ENDBRANCH   1   3
BRANCH   1   8
ATOM      8  C   UNL     1       5.213   5.346  15.320  0.00  0.00    +0.000 C 
BRANCH   8   9
ATOM      9  C   UNL     1       5.766   4.073  14.659  0.00  0.00    +0.000 C 
BRANCH   9  10
ATOM     10  C   UNL     1       6.754   4.438  13.559  0.00  0.00    +0.000 C 
ATOM     11  C   UNL     1       6.725   3.630  12.289  0.00  0.00    +0.000 C 
ATOM     12  O   UNL     1       7.544   5.378  13.670  0.00  0.00    +0.000 OA
ENDBRANCH   9  10
ENDBRANCH   8   9
ENDBRANCH   1   8
BRANCH   1  13
ATOM     13  C   UNL     1       4.812   3.919  17.405  0.00  0.00    +0.000 C 
BRANCH  13  14
ATOM     14  C   UNL     1       3.788   3.758  18.498  0.00  0.00    +0.000 C 
ATOM     15  C   UNL     1       2.497   4.147  18.520  0.00  0.00    +0.000 C 
ATOM     16  C   UNL     1       1.640   4.761  17.473  0.00  0.00    +0.000 C 
ATOM     17  C   UNL     1       1.891   3.785  19.825  0.00  0.00    +0.000 C 
ATOM     18  O   UNL     1       0.751   4.076  20.154  0.00  0.00    +0.000 OA
ATOM     19  C   UNL     1       2.859   3.013  20.657  0.00  0.00    +0.000 C 
ATOM     20  C   UNL     1       4.070   3.051  19.775  0.00  0.00    +0.000 C 
ATOM     21  O   UNL     1       5.142   2.542  20.051  0.00  0.00    +0.000 OA
ENDBRANCH  13  14
ENDBRANCH   1  13
TORSDOF 8
ENDMDL
MODEL 9
REMARK VINA RESULT:      -7.0      1.098      2.068
REMARK  Name = 
REMARK  10 active torsions:
REMARK  status: ('A' for Active; 'I' for Inactive)
REMARK    1  A    between atoms: C_2  and  C_3
REMARK    2  A    between atoms: C_2  and  C_6
REMARK    3  A    between atoms: C_3  and  O_5
REMARK    4  A    between atoms: C_6  and  C_7
REMARK    5  A    between atoms: C_6  and  C_12
REMARK    6  A    between atoms: C_7  and  C_8
REMARK    7  A    between atoms: C_8  and  C_9
REMARK    8  A    between atoms: C_9  and  C_10
REMARK    9  A    between atoms: C_12  and  C_13
REMARK   10  A    between atoms: C_14  and  C_15
REMARK                            x       y       z     vdW  Elec       q    Type
REMARK                         _______ _______ _______ _____ _____    ______ ____
ROOT
ATOM      1  C   UNL     1       5.293   5.210  17.737  0.00  0.00    +0.000 C 
ENDROOT
BRANCH   1   3
ATOM      2  C   UNL     1       6.905   7.172  17.503  0.00  0.00    +0.000 C 
ATOM      3  C   UNL     1       6.676   5.887  17.838  0.00  0.00    +0.000 C 
BRANCH   3   4
ATOM      4  C   UNL     1       7.770   5.027  18.397  0.00  0.00    +0.000 C 
ATOM      5  O   UNL     1       8.310   4.144  17.756  0.00  0.00    +0.000 OA
BRANCH   4   6
ATOM      6  O   UNL     1       8.126   5.294  19.671  0.00  0.00    +0.000 OA
ATOM      7  H   UNL     1       7.519   4.967  20.358  0.00  0.00    +0.000 HD
ENDBRANCH   4   6
ENDBRANCH   3   4
ENDBRANCH   1   3
BRANCH   1   8
ATOM      8  C   UNL     1       5.061   4.579  16.342  0.00  0.00    +0.000 C 
BRANCH   8   9
ATOM      9  C   UNL     1       5.366   5.454  15.116  0.00  0.00    +0.000 C 
BRANCH   9  10
ATOM     10  C   UNL     1       6.558   4.894  14.352  0.00  0.00    +0.000 C 
ATOM     11  C   UNL     1       6.311   3.761  13.392  0.00  0.00    +0.000 C 
ATOM     12  O   UNL     1       7.694   5.355  14.476  0.00  0.00    +0.000 OA
ENDBRANCH   9  10
ENDBRANCH   8   9
ENDBRANCH   1   8
BRANCH   1  13
ATOM     13  C   UNL     1       5.069   4.131  18.861  0.00  0.00    +0.000 C 
BRANCH  13  14
ATOM     14  C   UNL     1       3.669   3.655  19.149  0.00  0.00    +0.000 C 
ATOM     15  C   UNL     1       2.639   4.325  19.707  0.00  0.00    +0.000 C 
ATOM     16  C   UNL     1       2.504   5.745  20.125  0.00  0.00    +0.000 C 
ATOM     17  C   UNL     1       1.460   3.430  19.804  0.00  0.00    +0.000 C 
ATOM     18  O   UNL     1       0.404   3.746  20.331  0.00  0.00    +0.000 OA
ATOM     19  C   UNL     1       1.744   2.114  19.161  0.00  0.00    +0.000 C 
ATOM     20  C   UNL     1       3.183   2.297  18.787  0.00  0.00    +0.000 C 
ATOM     21  O   UNL     1       3.864   1.456  18.228  0.00  0.00    +0.000 OA
ENDBRANCH  13  14
ENDBRANCH   1  13
TORSDOF 8
ENDMDL
