MODEL 1
REMARK VINA RESULT:      -7.6      0.000      0.000
REMARK  Name = 
REMARK  7 active torsions:
REMARK  status: ('A' for Active; 'I' for Inactive)
REMARK    1  A    between atoms: C_1  and  C_2
REMARK    2  A    between atoms: C_2  and  N_3
REMARK    3  A    between atoms: C_7  and  C_9
REMARK    4  A    between atoms: C_9  and  C_10
REMARK    5  A    between atoms: C_9  and  S_11
REMARK    6  A    between atoms: S_11  and  C_12
REMARK    7  A    between atoms: C_15  and  C_16
REMARK                            x       y       z     vdW  Elec       q    Type
REMARK                         _______ _______ _______ _____ _____    ______ ____
ROOT
ATOM      1  C   UNL     1       6.892   5.466  18.527  0.00  0.00    +0.000 C 
ATOM      2  C   UNL     1       7.787   4.354  17.982  0.00  0.00    +0.000 C 
ENDROOT
BRANCH   1   7
ATOM      3  N   UNL     1       3.551   3.377  20.314  0.00  0.00    +0.000 N 
ATOM      4  C   UNL     1       4.662   2.721  19.866  0.00  0.00    +0.000 C 
ATOM      5  O   UNL     1       4.866   1.527  20.055  0.00  0.00    +0.000 OA
ATOM      6  N   UNL     1       5.573   3.486  19.186  0.00  0.00    +0.000 N 
ATOM      7  C   UNL     1       5.655   4.863  19.188  0.00  0.00    +0.000 C 
ATOM      8  O   UNL     1       4.721   5.582  19.561  0.00  0.00    +0.000 OA
ATOM      9  H   UNL     1       3.542   4.392  20.218  0.00  0.00    +0.000 HD
ATOM     10  H   UNL     1       6.431   2.973  19.006  0.00  0.00    +0.000 HD
BRANCH   3  12
ATOM     11  C   UNL     1       1.150   3.392  20.818  0.00  0.00    +0.000 C 
ATOM     12  C   UNL     1       2.488   2.706  21.018  0.00  0.00    +0.000 C 
ENDBRANCH   3  12
ENDBRANCH   1   7
BRANCH   1  13
ATOM     13  S   UNL     1       6.515   6.723  17.248  0.00  0.00    +0.000 S 
BRANCH  13  14
ATOM     14  C   UNL     1       6.301   5.680  15.820  0.00  0.00    +0.000 A 
ATOM     15  N   UNL     1       7.355   5.703  14.966  0.00  0.00    +0.000 NA
ATOM     16  C   UNL     1       7.288   4.937  13.851  0.00  0.00    +0.000 A 
ATOM     17  C   UNL     1       6.199   4.142  13.531  0.00  0.00    +0.000 A 
ATOM     18  C   UNL     1       5.121   4.132  14.424  0.00  0.00    +0.000 A 
ATOM     19  C   UNL     1       5.171   4.895  15.590  0.00  0.00    +0.000 A 
ATOM     20 CL   UNL     1       3.822   4.821  16.663  0.00  0.00    +0.000 Cl
BRANCH  17  21
ATOM     21  C   UNL     1       6.175   3.316  12.281  0.00  0.00    +0.000 C 
ATOM     22  F   UNL     1       7.340   3.347  11.581  0.00  0.00    +0.000 F 
ATOM     23  F   UNL     1       5.925   2.003  12.539  0.00  0.00    +0.000 F 
ATOM     24  F   UNL     1       5.204   3.719  11.418  0.00  0.00    +0.000 F 
ENDBRANCH  17  21
ENDBRANCH  13  14
ENDBRANCH   1  13
TORSDOF 5
ENDMDL
MODEL 2
REMARK VINA RESULT:      -7.6      4.332      7.024
REMARK  Name = 
REMARK  7 active torsions:
REMARK  status: ('A' for Active; 'I' for Inactive)
REMARK    1  A    between atoms: C_1  and  C_2
REMARK    2  A    between atoms: C_2  and  N_3
REMARK    3  A    between atoms: C_7  and  C_9
REMARK    4  A    between atoms: C_9  and  C_10
REMARK    5  A    between atoms: C_9  and  S_11
REMARK    6  A    between atoms: S_11  and  C_12
REMARK    7  A    between atoms: C_15  and  C_16
REMARK                            x       y       z     vdW  Elec       q    Type
REMARK                         _______ _______ _______ _____ _____    ______ ____
ROOT
ATOM      1  C   UNL     1       6.664   4.786  17.752  0.00  0.00    +0.000 C 
ATOM      2  C   UNL     1       8.134   5.088  18.041  0.00  0.00    +0.000 C 
ENDROOT
BRANCH   1   7
ATOM      3  N   UNL     1       6.422   3.840  13.537  0.00  0.00    +0.000 N 
ATOM      4  C   UNL     1       7.176   4.876  14.006  0.00  0.00    +0.000 C 
ATOM      5  O   UNL     1       7.944   5.527  13.306  0.00  0.00    +0.000 OA
ATOM      6  N   UNL     1       7.041   5.157  15.340  0.00  0.00    +0.000 N 
ATOM      7  C   UNL     1       6.499   4.331  16.304  0.00  0.00    +0.000 C 
ATOM      8  O   UNL     1       5.791   3.358  16.020  0.00  0.00    +0.000 OA
ATOM      9  H   UNL     1       5.918   3.284  14.227  0.00  0.00    +0.000 HD
ATOM     10  H   UNL     1       7.727   5.840  15.651  0.00  0.00    +0.000 HD
BRANCH   3  12
ATOM     11  C   UNL     1       5.044   3.080  11.655  0.00  0.00    +0.000 C 
ATOM     12  C   UNL     1       6.430   3.442  12.152  0.00  0.00    +0.000 C 
ENDBRANCH   3  12
ENDBRANCH   1   7
BRANCH   1  13
ATOM     13  S   UNL     1       5.577   6.185  18.220  0.00  0.00    +0.000 S 
BRANCH  13  14
ATOM     14  C   UNL     1       4.214   5.308  18.957  0.00  0.00    +0.000 A 
ATOM     15  N   UNL     1       4.504   4.023  19.278  0.00  0.00    +0.000 NA
ATOM     16  C   UNL     1       3.530   3.274  19.850  0.00  0.00    +0.000 A 
ATOM     17  C   UNL     1       2.254   3.746  20.112  0.00  0.00    +0.000 A 
ATOM     18  C   UNL     1       1.975   5.074  19.772  0.00  0.00    +0.000 A 
ATOM     19  C   UNL     1       2.963   5.875  19.202  0.00  0.00    +0.000 A 
ATOM     20 CL   UNL     1       2.563   7.511  18.829  0.00  0.00    +0.000 Cl
BRANCH  17  21
ATOM     21  C   UNL     1       1.213   2.873  20.743  0.00  0.00    +0.000 C 
ATOM     22  F   UNL     1      -0.042   3.083  20.264  0.00  0.00    +0.000 F 
ATOM     23  F   UNL     1       1.471   1.550  20.557  0.00  0.00    +0.000 F 
ATOM     24  F   UNL     1       1.138   3.054  22.090  0.00  0.00    +0.000 F 
ENDBRANCH  17  21
ENDBRANCH  13  14
ENDBRANCH   1  13
TORSDOF 5
ENDMDL
MODEL 3
REMARK VINA RESULT:      -7.6      4.465      7.134
REMARK  Name = 
REMARK  7 active torsions:
REMARK  status: ('A' for Active; 'I' for Inactive)
REMARK    1  A    between atoms: C_1  and  C_2
REMARK    2  A    between atoms: C_2  and  N_3
REMARK    3  A    between atoms: C_7  and  C_9
REMARK    4  A    between atoms: C_9  and  C_10
REMARK    5  A    between atoms: C_9  and  S_11
REMARK    6  A    between atoms: S_11  and  C_12
REMARK    7  A    between atoms: C_15  and  C_16
REMARK                            x       y       z     vdW  Elec       q    Type
REMARK                         _______ _______ _______ _____ _____    ______ ____
ROOT
ATOM      1  C   UNL     1       6.177   5.718  17.292  0.00  0.00    +0.000 C 
ATOM      2  C   UNL     1       7.485   6.500  17.413  0.00  0.00    +0.000 C 
ENDROOT
BRANCH   1   7
ATOM      3  N   UNL     1       6.361   3.786  13.425  0.00  0.00    +0.000 N 
ATOM      4  C   UNL     1       7.038   4.941  13.692  0.00  0.00    +0.000 C 
ATOM      5  O   UNL     1       7.850   5.444  12.923  0.00  0.00    +0.000 OA
ATOM      6  N   UNL     1       6.770   5.523  14.902  0.00  0.00    +0.000 N 
ATOM      7  C   UNL     1       6.163   4.924  15.988  0.00  0.00    +0.000 C 
ATOM      8  O   UNL     1       5.512   3.878  15.888  0.00  0.00    +0.000 OA
ATOM      9  H   UNL     1       5.810   3.386  14.183  0.00  0.00    +0.000 HD
ATOM     10  H   UNL     1       7.404   6.294  15.096  0.00  0.00    +0.000 HD
BRANCH   3  12
ATOM     11  C   UNL     1       5.172   2.747  11.547  0.00  0.00    +0.000 C 
ATOM     12  C   UNL     1       6.511   3.071  12.183  0.00  0.00    +0.000 C 
ENDBRANCH   3  12
ENDBRANCH   1   7
BRANCH   1  13
ATOM     13  S   UNL     1       4.716   6.799  17.521  0.00  0.00    +0.000 S 
BRANCH  13  14
ATOM     14  C   UNL     1       3.719   5.778  18.587  0.00  0.00    +0.000 A 
ATOM     15  N   UNL     1       4.134   4.489  18.649  0.00  0.00    +0.000 NA
ATOM     16  C   UNL     1       3.441   3.634  19.440  0.00  0.00    +0.000 A 
ATOM     17  C   UNL     1       2.328   4.004  20.178  0.00  0.00    +0.000 A 
ATOM     18  C   UNL     1       1.915   5.339  20.099  0.00  0.00    +0.000 A 
ATOM     19  C   UNL     1       2.621   6.245  19.310  0.00  0.00    +0.000 A 
ATOM     20 CL   UNL     1       2.077   7.882  19.275  0.00  0.00    +0.000 Cl
BRANCH  17  21
ATOM     21  C   UNL     1       1.595   3.017  21.034  0.00  0.00    +0.000 C 
ATOM     22  F   UNL     1       1.648   3.299  22.363  0.00  0.00    +0.000 F 
ATOM     23  F   UNL     1       0.274   2.943  20.716  0.00  0.00    +0.000 F 
ATOM     24  F   UNL     1       2.084   1.755  20.896  0.00  0.00    +0.000 F 
ENDBRANCH  17  21
ENDBRANCH  13  14
ENDBRANCH   1  13
TORSDOF 5
ENDMDL
MODEL 4
REMARK VINA RESULT:      -7.3      5.382      7.251
REMARK  Name = 
REMARK  7 active torsions:
REMARK  status: ('A' for Active; 'I' for Inactive)
REMARK    1  A    between atoms: C_1  and  C_2
REMARK    2  A    between atoms: C_2  and  N_3
REMARK    3  A    between atoms: C_7  and  C_9
REMARK    4  A    between atoms: C_9  and  C_10
REMARK    5  A    between atoms: C_9  and  S_11
REMARK    6  A    between atoms: S_11  and  C_12
REMARK    7  A    between atoms: C_15  and  C_16
REMARK                            x       y       z     vdW  Elec       q    Type
REMARK                         _______ _______ _______ _____ _____    ______ ____
ROOT
ATOM      1  C   UNL     1       4.175   2.942  18.395  0.00  0.00    +0.000 C 
ATOM      2  C   UNL     1       4.197   2.464  19.846  0.00  0.00    +0.000 C 
ENDROOT
BRANCH   1   7
ATOM      3  N   UNL     1       7.060   6.164  18.285  0.00  0.00    +0.000 N 
ATOM      4  C   UNL     1       6.871   5.398  19.398  0.00  0.00    +0.000 C 
ATOM      5  O   UNL     1       7.583   5.461  20.395  0.00  0.00    +0.000 OA
ATOM      6  N   UNL     1       5.823   4.517  19.345  0.00  0.00    +0.000 N 
ATOM      7  C   UNL     1       5.162   4.093  18.211  0.00  0.00    +0.000 C 
ATOM      8  O   UNL     1       5.239   4.696  17.134  0.00  0.00    +0.000 OA
ATOM      9  H   UNL     1       6.496   5.941  17.467  0.00  0.00    +0.000 HD
ATOM     10  H   UNL     1       5.824   3.885  20.141  0.00  0.00    +0.000 HD
BRANCH   3  12
ATOM     11  C   UNL     1       7.596   8.460  17.604  0.00  0.00    +0.000 C 
ATOM     12  C   UNL     1       8.100   7.158  18.198  0.00  0.00    +0.000 C 
ENDBRANCH   3  12
ENDBRANCH   1   7
BRANCH   1  13
ATOM     13  S   UNL     1       2.475   3.322  17.829  0.00  0.00    +0.000 S 
BRANCH  13  14
ATOM     14  C   UNL     1       2.094   4.723  18.860  0.00  0.00    +0.000 A 
ATOM     15  N   UNL     1       2.407   5.916  18.295  0.00  0.00    +0.000 NA
ATOM     16  C   UNL     1       2.150   7.043  19.002  0.00  0.00    +0.000 A 
ATOM     17  C   UNL     1       1.595   7.042  20.271  0.00  0.00    +0.000 A 
ATOM     18  C   UNL     1       1.279   5.801  20.837  0.00  0.00    +0.000 A 
ATOM     19  C   UNL     1       1.514   4.626  20.125  0.00  0.00    +0.000 A 
ATOM     20 CL   UNL     1       1.080   3.131  20.867  0.00  0.00    +0.000 Cl
BRANCH  17  21
ATOM     21  C   UNL     1       1.334   8.318  21.011  0.00  0.00    +0.000 C 
ATOM     22  F   UNL     1       1.376   9.426  20.224  0.00  0.00    +0.000 F 
ATOM     23  F   UNL     1       0.111   8.325  21.607  0.00  0.00    +0.000 F 
ATOM     24  F   UNL     1       2.237   8.529  22.007  0.00  0.00    +0.000 F 
ENDBRANCH  17  21
ENDBRANCH  13  14
ENDBRANCH   1  13
TORSDOF 5
ENDMDL
MODEL 5
REMARK VINA RESULT:      -7.2      4.520      7.160
REMARK  Name = 
REMARK  7 active torsions:
REMARK  status: ('A' for Active; 'I' for Inactive)
REMARK    1  A    between atoms: C_1  and  C_2
REMARK    2  A    between atoms: C_2  and  N_3
REMARK    3  A    between atoms: C_7  and  C_9
REMARK    4  A    between atoms: C_9  and  C_10
REMARK    5  A    between atoms: C_9  and  S_11
REMARK    6  A    between atoms: S_11  and  C_12
REMARK    7  A    between atoms: C_15  and  C_16
REMARK                            x       y       z     vdW  Elec       q    Type
REMARK                         _______ _______ _______ _____ _____    ______ ____
ROOT
ATOM      1  C   UNL     1       6.264   5.566  16.713  0.00  0.00    +0.000 C 
ATOM      2  C   UNL     1       7.446   6.323  17.319  0.00  0.00    +0.000 C 
ENDROOT
BRANCH   1   7
ATOM      3  N   UNL     1       6.913   3.950  12.752  0.00  0.00    +0.000 N 
ATOM      4  C   UNL     1       5.686   3.936  13.350  0.00  0.00    +0.000 C 
ATOM      5  O   UNL     1       4.656   3.601  12.775  0.00  0.00    +0.000 OA
ATOM      6  N   UNL     1       5.655   4.339  14.658  0.00  0.00    +0.000 N 
ATOM      7  C   UNL     1       6.633   5.049  15.325  0.00  0.00    +0.000 C 
ATOM      8  O   UNL     1       7.790   5.140  14.900  0.00  0.00    +0.000 OA
ATOM      9  H   UNL     1       7.680   4.369  13.278  0.00  0.00    +0.000 HD
ATOM     10  H   UNL     1       4.702   4.439  14.997  0.00  0.00    +0.000 HD
BRANCH   3  12
ATOM     11  C   UNL     1       7.299   2.024  11.282  0.00  0.00    +0.000 C 
ATOM     12  C   UNL     1       7.115   3.526  11.390  0.00  0.00    +0.000 C 
ENDBRANCH   3  12
ENDBRANCH   1   7
BRANCH   1  13
ATOM     13  S   UNL     1       4.727   6.562  16.752  0.00  0.00    +0.000 S 
BRANCH  13  14
ATOM     14  C   UNL     1       3.809   5.696  18.009  0.00  0.00    +0.000 A 
ATOM     15  N   UNL     1       4.262   4.440  18.246  0.00  0.00    +0.000 NA
ATOM     16  C   UNL     1       3.630   3.702  19.191  0.00  0.00    +0.000 A 
ATOM     17  C   UNL     1       2.542   4.158  19.918  0.00  0.00    +0.000 A 
ATOM     18  C   UNL     1       2.089   5.456  19.658  0.00  0.00    +0.000 A 
ATOM     19  C   UNL     1       2.733   6.246  18.706  0.00  0.00    +0.000 A 
ATOM     20 CL   UNL     1       2.143   7.846  18.450  0.00  0.00    +0.000 Cl
BRANCH  17  21
ATOM     21  C   UNL     1       1.877   3.298  20.950  0.00  0.00    +0.000 C 
ATOM     22  F   UNL     1       2.178   1.977  20.839  0.00  0.00    +0.000 F 
ATOM     23  F   UNL     1       2.220   3.659  22.216  0.00  0.00    +0.000 F 
ATOM     24  F   UNL     1       0.521   3.383  20.891  0.00  0.00    +0.000 F 
ENDBRANCH  17  21
ENDBRANCH  13  14
ENDBRANCH   1  13
TORSDOF 5
ENDMDL
MODEL 6
REMARK VINA RESULT:      -7.1      5.270      7.286
REMARK  Name = 
REMARK  7 active torsions:
REMARK  status: ('A' for Active; 'I' for Inactive)
REMARK    1  A    between atoms: C_1  and  C_2
REMARK    2  A    between atoms: C_2  and  N_3
REMARK    3  A    between atoms: C_7  and  C_9
REMARK    4  A    between atoms: C_9  and  C_10
REMARK    5  A    between atoms: C_9  and  S_11
REMARK    6  A    between atoms: S_11  and  C_12
REMARK    7  A    between atoms: C_15  and  C_16
REMARK                            x       y       z     vdW  Elec       q    Type
REMARK                         _______ _______ _______ _____ _____    ______ ____
ROOT
ATOM      1  C   UNL     1       4.330   2.997  18.515  0.00  0.00    +0.000 C 
ATOM      2  C   UNL     1       4.157   2.355  19.891  0.00  0.00    +0.000 C 
ENDROOT
BRANCH   1   7
ATOM      3  N   UNL     1       7.298   6.143  18.395  0.00  0.00    +0.000 N 
ATOM      4  C   UNL     1       7.126   5.267  17.362  0.00  0.00    +0.000 C 
ATOM      5  O   UNL     1       7.688   5.380  16.277  0.00  0.00    +0.000 OA
ATOM      6  N   UNL     1       6.261   4.232  17.595  0.00  0.00    +0.000 N 
ATOM      7  C   UNL     1       5.320   4.157  18.602  0.00  0.00    +0.000 C 
ATOM      8  O   UNL     1       5.357   4.886  19.600  0.00  0.00    +0.000 OA
ATOM      9  H   UNL     1       6.687   6.032  19.203  0.00  0.00    +0.000 HD
ATOM     10  H   UNL     1       6.072   3.703  16.748  0.00  0.00    +0.000 HD
BRANCH   3  12
ATOM     11  C   UNL     1       7.559   8.460  17.632  0.00  0.00    +0.000 C 
ATOM     12  C   UNL     1       8.198   7.266  18.316  0.00  0.00    +0.000 C 
ENDBRANCH   3  12
ENDBRANCH   1   7
BRANCH   1  13
ATOM     13  S   UNL     1       2.718   3.450  17.769  0.00  0.00    +0.000 S 
BRANCH  13  14
ATOM     14  C   UNL     1       2.245   4.809  18.815  0.00  0.00    +0.000 A 
ATOM     15  N   UNL     1       2.611   6.022  18.332  0.00  0.00    +0.000 NA
ATOM     16  C   UNL     1       2.290   7.121  19.057  0.00  0.00    +0.000 A 
ATOM     17  C   UNL     1       1.618   7.071  20.268  0.00  0.00    +0.000 A 
ATOM     18  C   UNL     1       1.249   5.810  20.750  0.00  0.00    +0.000 A 
ATOM     19  C   UNL     1       1.548   4.664  20.016  0.00  0.00    +0.000 A 
ATOM     20 CL   UNL     1       1.044   3.142  20.651  0.00  0.00    +0.000 Cl
BRANCH  17  21
ATOM     21  C   UNL     1       1.291   8.318  21.031  0.00  0.00    +0.000 C 
ATOM     22  F   UNL     1       2.100   8.533  22.103  0.00  0.00    +0.000 F 
ATOM     23  F   UNL     1       1.385   9.433  20.257  0.00  0.00    +0.000 F 
ATOM     24  F   UNL     1       0.019   8.304  21.515  0.00  0.00    +0.000 F 
ENDBRANCH  17  21
ENDBRANCH  13  14
ENDBRANCH   1  13
TORSDOF 5
ENDMDL
MODEL 7
REMARK VINA RESULT:      -7.1      4.256      6.902
REMARK  Name = 
REMARK  7 active torsions:
REMARK  status: ('A' for Active; 'I' for Inactive)
REMARK    1  A    between atoms: C_1  and  C_2
REMARK    2  A    between atoms: C_2  and  N_3
REMARK    3  A    between atoms: C_7  and  C_9
REMARK    4  A    between atoms: C_9  and  C_10
REMARK    5  A    between atoms: C_9  and  S_11
REMARK    6  A    between atoms: S_11  and  C_12
REMARK    7  A    between atoms: C_15  and  C_16
REMARK                            x       y       z     vdW  Elec       q    Type
REMARK                         _______ _______ _______ _____ _____    ______ ____
ROOT
ATOM      1  C   UNL     1       6.234   6.003  16.931  0.00  0.00    +0.000 C 
ATOM      2  C   UNL     1       7.412   6.968  16.810  0.00  0.00    +0.000 C 
ENDROOT
BRANCH   1   7
ATOM      3  N   UNL     1       6.302   3.730  13.250  0.00  0.00    +0.000 N 
ATOM      4  C   UNL     1       7.067   4.847  13.428  0.00  0.00    +0.000 C 
ATOM      5  O   UNL     1       7.924   5.215  12.632  0.00  0.00    +0.000 OA
ATOM      6  N   UNL     1       6.833   5.553  14.578  0.00  0.00    +0.000 N 
ATOM      7  C   UNL     1       6.169   5.101  15.701  0.00  0.00    +0.000 C 
ATOM      8  O   UNL     1       5.438   4.105  15.681  0.00  0.00    +0.000 OA
ATOM      9  H   UNL     1       5.713   3.443  14.030  0.00  0.00    +0.000 HD
ATOM     10  H   UNL     1       7.525   6.285  14.716  0.00  0.00    +0.000 HD
BRANCH   3  12
ATOM     11  C   UNL     1       5.055   2.638  11.441  0.00  0.00    +0.000 C 
ATOM     12  C   UNL     1       6.407   2.900  12.077  0.00  0.00    +0.000 C 
ENDBRANCH   3  12
ENDBRANCH   1   7
BRANCH   1  13
ATOM     13  S   UNL     1       4.668   6.884  17.290  0.00  0.00    +0.000 S 
BRANCH  13  14
ATOM     14  C   UNL     1       3.768   5.611  18.152  0.00  0.00    +0.000 A 
ATOM     15  N   UNL     1       2.484   5.476  17.736  0.00  0.00    +0.000 NA
ATOM     16  C   UNL     1       1.719   4.528  18.329  0.00  0.00    +0.000 A 
ATOM     17  C   UNL     1       2.173   3.700  19.343  0.00  0.00    +0.000 A 
ATOM     18  C   UNL     1       3.500   3.856  19.758  0.00  0.00    +0.000 A 
ATOM     19  C   UNL     1       4.317   4.809  19.152  0.00  0.00    +0.000 A 
ATOM     20 CL   UNL     1       5.951   4.935  19.692  0.00  0.00    +0.000 Cl
BRANCH  17  21
ATOM     21  C   UNL     1       1.283   2.669  19.968  0.00  0.00    +0.000 C 
ATOM     22  F   UNL     1      -0.033   2.822  19.660  0.00  0.00    +0.000 F 
ATOM     23  F   UNL     1       1.615   1.406  19.588  0.00  0.00    +0.000 F 
ATOM     24  F   UNL     1       1.356   2.683  21.326  0.00  0.00    +0.000 F 
ENDBRANCH  17  21
ENDBRANCH  13  14
ENDBRANCH   1  13
TORSDOF 5
ENDMDL
MODEL 8
REMARK VINA RESULT:      -7.0      4.624      7.137
REMARK  Name = 
REMARK  7 active torsions:
REMARK  status: ('A' for Active; 'I' for Inactive)
REMARK    1  A    between atoms: C_1  and  C_2
REMARK    2  A    between atoms: C_2  and  N_3
REMARK    3  A    between atoms: C_7  and  C_9
REMARK    4  A    between atoms: C_9  and  C_10
REMARK    5  A    between atoms: C_9  and  S_11
REMARK    6  A    between atoms: S_11  and  C_12
REMARK    7  A    between atoms: C_15  and  C_16
REMARK                            x       y       z     vdW  Elec       q    Type
REMARK                         _______ _______ _______ _____ _____    ______ ____
ROOT
ATOM      1  C   UNL     1       6.135   4.887  16.310  0.00  0.00    +0.000 C 
ATOM      2  C   UNL     1       7.635   5.147  16.172  0.00  0.00    +0.000 C 
ENDROOT
BRANCH   1   7
ATOM      3  N   UNL     1       4.934   3.448  12.410  0.00  0.00    +0.000 N 
ATOM      4  C   UNL     1       6.233   3.742  12.707  0.00  0.00    +0.000 C 
ATOM      5  O   UNL     1       7.172   3.496  11.956  0.00  0.00    +0.000 OA
ATOM      6  N   UNL     1       6.449   4.331  13.924  0.00  0.00    +0.000 N 
ATOM      7  C   UNL     1       5.574   4.360  14.991  0.00  0.00    +0.000 C 
ATOM      8  O   UNL     1       4.368   4.120  14.865  0.00  0.00    +0.000 OA
ATOM      9  H   UNL     1       4.249   3.573  13.155  0.00  0.00    +0.000 HD
ATOM     10  H   UNL     1       7.440   4.394  14.139  0.00  0.00    +0.000 HD
BRANCH   3  12
ATOM     11  C   UNL     1       3.377   3.589  10.519  0.00  0.00    +0.000 C 
ATOM     12  C   UNL     1       4.541   2.855  11.157  0.00  0.00    +0.000 C 
ENDBRANCH   3  12
ENDBRANCH   1   7
BRANCH   1  13
ATOM     13  S   UNL     1       5.248   6.350  16.963  0.00  0.00    +0.000 S 
BRANCH  13  14
ATOM     14  C   UNL     1       4.153   5.573  18.132  0.00  0.00    +0.000 A 
ATOM     15  N   UNL     1       4.576   4.353  18.546  0.00  0.00    +0.000 NA
ATOM     16  C   UNL     1       3.810   3.683  19.441  0.00  0.00    +0.000 A 
ATOM     17  C   UNL     1       2.616   4.172  19.946  0.00  0.00    +0.000 A 
ATOM     18  C   UNL     1       2.196   5.432  19.506  0.00  0.00    +0.000 A 
ATOM     19  C   UNL     1       2.973   6.153  18.600  0.00  0.00    +0.000 A 
ATOM     20 CL   UNL     1       2.414   7.711  18.116  0.00  0.00    +0.000 Cl
BRANCH  17  21
ATOM     21  C   UNL     1       1.805   3.387  20.932  0.00  0.00    +0.000 C 
ATOM     22  F   UNL     1       2.175   3.585  22.226  0.00  0.00    +0.000 F 
ATOM     23  F   UNL     1       0.481   3.694  20.867  0.00  0.00    +0.000 F 
ATOM     24  F   UNL     1       1.890   2.047  20.716  0.00  0.00    +0.000 F 
ENDBRANCH  17  21
ENDBRANCH  13  14
ENDBRANCH   1  13
TORSDOF 5
ENDMDL
MODEL 9
REMARK VINA RESULT:      -7.0      5.267      7.363
REMARK  Name = 
REMARK  7 active torsions:
REMARK  status: ('A' for Active; 'I' for Inactive)
REMARK    1  A    between atoms: C_1  and  C_2
REMARK    2  A    between atoms: C_2  and  N_3
REMARK    3  A    between atoms: C_7  and  C_9
REMARK    4  A    between atoms: C_9  and  C_10
REMARK    5  A    between atoms: C_9  and  S_11
REMARK    6  A    between atoms: S_11  and  C_12
REMARK    7  A    between atoms: C_15  and  C_16
REMARK                            x       y       z     vdW  Elec       q    Type
REMARK                         _______ _______ _______ _____ _____    ______ ____
ROOT
ATOM      1  C   UNL     1       4.422   3.085  18.499  0.00  0.00    +0.000 C 
ATOM      2  C   UNL     1       4.538   2.587  19.940  0.00  0.00    +0.000 C 
ENDROOT
BRANCH   1   7
ATOM      3  N   UNL     1       6.698   6.643  17.563  0.00  0.00    +0.000 N 
ATOM      4  C   UNL     1       5.785   6.116  16.695  0.00  0.00    +0.000 C 
ATOM      5  O   UNL     1       5.436   6.672  15.659  0.00  0.00    +0.000 OA
ATOM      6  N   UNL     1       5.250   4.907  17.053  0.00  0.00    +0.000 N 
ATOM      7  C   UNL     1       5.278   4.334  18.308  0.00  0.00    +0.000 C 
ATOM      8  O   UNL     1       6.060   4.709  19.190  0.00  0.00    +0.000 OA
ATOM      9  H   UNL     1       6.819   6.165  18.455  0.00  0.00    +0.000 HD
ATOM     10  H   UNL     1       4.483   4.641  16.443  0.00  0.00    +0.000 HD
BRANCH   3  12
ATOM     11  C   UNL     1       8.330   8.257  18.431  0.00  0.00    +0.000 C 
ATOM     12  C   UNL     1       7.372   7.892  17.312  0.00  0.00    +0.000 C 
ENDBRANCH   3  12
ENDBRANCH   1   7
BRANCH   1  13
ATOM     13  S   UNL     1       2.673   3.297  17.993  0.00  0.00    +0.000 S 
BRANCH  13  14
ATOM     14  C   UNL     1       2.228   4.729  18.952  0.00  0.00    +0.000 A 
ATOM     15  N   UNL     1       2.557   5.905  18.362  0.00  0.00    +0.000 NA
ATOM     16  C   UNL     1       2.254   7.053  19.014  0.00  0.00    +0.000 A 
ATOM     17  C   UNL     1       1.635   7.090  20.254  0.00  0.00    +0.000 A 
ATOM     18  C   UNL     1       1.304   5.866  20.847  0.00  0.00    +0.000 A 
ATOM     19  C   UNL     1       1.586   4.669  20.190  0.00  0.00    +0.000 A 
ATOM     20 CL   UNL     1       1.129   3.196  20.962  0.00  0.00    +0.000 Cl
BRANCH  17  21
ATOM     21  C   UNL     1       1.325   8.388  20.933  0.00  0.00    +0.000 C 
ATOM     22  F   UNL     1       1.933   9.464  20.366  0.00  0.00    +0.000 F 
ATOM     23  F   UNL     1      -0.008   8.663  20.930  0.00  0.00    +0.000 F 
ATOM     24  F   UNL     1       1.703   8.387  22.240  0.00  0.00    +0.000 F 
ENDBRANCH  17  21
ENDBRANCH  13  14
ENDBRANCH   1  13
TORSDOF 5
ENDMDL
