MODEL 1
REMARK VINA RESULT:      -8.5      0.000      0.000
REMARK  Name = 
REMARK  11 active torsions:
REMARK  status: ('A' for Active; 'I' for Inactive)
REMARK    1  A    between atoms: C_1  and  C_2
REMARK    2  A    between atoms: N_6  and  C_7
REMARK    3  A    between atoms: C_12  and  C_13
REMARK    4  A    between atoms: C_13  and  N_14
REMARK    5  A    between atoms: N_17  and  C_18
REMARK    6  A    between atoms: C_18  and  C_20
REMARK    7  A    between atoms: C_23  and  C_24
REMARK    8  A    between atoms: C_24  and  CA_25
REMARK    9  A    between atoms: CA_25  and  N_26
REMARK   10  A    between atoms: CA_25  and  C_27
REMARK   11  A    between atoms: C_27  and  OXT_29
REMARK                            x       y       z     vdW  Elec       q    Type
REMARK                         _______ _______ _______ _____ _____    ______ ____
ROOT
ATOM      1  N   UNL     1       2.435   8.271  17.554  0.00  0.00    +0.000 N 
ATOM      2  C   UNL     1       1.835   9.285  18.238  0.00  0.00    +0.000 C 
ATOM      3  N   UNL     1       2.207  10.471  17.674  0.00  0.00    +0.000 N 
ATOM      4  N   UNL     1       1.023   9.121  19.237  0.00  0.00    +0.000 NA
ATOM      5  H   UNL     1       3.091   8.526  16.833  0.00  0.00    +0.000 HD
ATOM      6  H   UNL     1       3.195  10.541  17.493  0.00  0.00    +0.000 HD
ATOM      7  H   UNL     1       1.925  11.263  18.261  0.00  0.00    +0.000 HD
ENDROOT
BRANCH   4   8
ATOM      8  C   UNL     1       0.537  10.240  19.877  0.00  0.00    +0.000 C 
ATOM      9  O   UNL     1       1.138  10.842  20.767  0.00  0.00    +0.000 OA
BRANCH   8  10
ATOM     10  C   UNL     1      -0.828  10.740  19.504  0.00  0.00    +0.000 A 
ATOM     11  C   UNL     1      -1.387  11.766  20.284  0.00  0.00    +0.000 A 
ATOM     12  C   UNL     1      -2.673  12.251  20.031  0.00  0.00    +0.000 A 
ATOM     13  C   UNL     1      -3.426  11.733  18.973  0.00  0.00    +0.000 A 
ATOM     14  C   UNL     1      -2.859  10.722  18.176  0.00  0.00    +0.000 A 
ATOM     15  C   UNL     1      -1.570  10.224  18.439  0.00  0.00    +0.000 A 
BRANCH  13  16
ATOM     16  C   UNL     1      -4.851  12.195  18.737  0.00  0.00    +0.000 C 
BRANCH  16  17
ATOM     17  CA  UNL     1      -5.810  11.131  18.176  0.00  0.00    +0.000 C 
BRANCH  17  18
ATOM     18  N   UNL     1      -6.743  11.767  17.207  0.00  0.00    +0.000 NA
ATOM     19  H1  UNL     1      -7.267  11.012  16.749  0.00  0.00    +0.000 HD
ATOM     20  H2  UNL     1      -6.195  12.166  16.441  0.00  0.00    +0.000 HD
ENDBRANCH  17  18
BRANCH  17  21
ATOM     21  C   UNL     1      -6.626  10.482  19.304  0.00  0.00    +0.000 C 
ATOM     22  O   UNL     1      -6.635  10.893  20.458  0.00  0.00    +0.000 OA
BRANCH  21  23
ATOM     23  OXT UNL     1      -7.374   9.428  18.911  0.00  0.00    +0.000 OA
ATOM     24  HXT UNL     1      -7.784   8.929  19.643  0.00  0.00    +0.000 HD
ENDBRANCH  21  23
ENDBRANCH  17  21
ENDBRANCH  16  17
ENDBRANCH  13  16
ENDBRANCH   8  10
ENDBRANCH   4   8
BRANCH   1  25
ATOM     25  C   UNL     1       2.621   6.935  18.097  0.00  0.00    +0.000 C 
BRANCH  25  31
ATOM     26  C   UNL     1       4.286   4.954  18.137  0.00  0.00    +0.000 A 
ATOM     27  C   UNL     1       5.605   4.517  17.859  0.00  0.00    +0.000 A 
ATOM     28  C   UNL     1       6.596   5.351  17.335  0.00  0.00    +0.000 A 
ATOM     29  C   UNL     1       6.294   6.667  17.044  0.00  0.00    +0.000 A 
ATOM     30  C   UNL     1       5.006   7.139  17.280  0.00  0.00    +0.000 A 
ATOM     31  C   UNL     1       3.989   6.317  17.836  0.00  0.00    +0.000 A 
BRANCH  26  37
ATOM     32  C   UNL     1       1.606   5.377  20.827  0.00  0.00    +0.000 C 
ATOM     33  C   UNL     1       1.909   3.883  20.657  0.00  0.00    +0.000 C 
ATOM     34  C   UNL     1       0.867   3.169  19.793  0.00  0.00    +0.000 C 
ATOM     35  C   UNL     1       0.983   3.570  18.325  0.00  0.00    +0.000 C 
ATOM     36  C   UNL     1       2.405   3.343  17.807  0.00  0.00    +0.000 C 
ATOM     37  N   UNL     1       3.387   4.029  18.667  0.00  0.00    +0.000 N 
ATOM     38  C   UNL     1       3.320   3.686  20.088  0.00  0.00    +0.000 C 
ENDBRANCH  26  37
ENDBRANCH  25  31
ENDBRANCH   1  25
TORSDOF 10
ENDMDL
MODEL 2
REMARK VINA RESULT:      -8.5      1.360      1.583
REMARK  Name = 
REMARK  11 active torsions:
REMARK  status: ('A' for Active; 'I' for Inactive)
REMARK    1  A    between atoms: C_1  and  C_2
REMARK    2  A    between atoms: N_6  and  C_7
REMARK    3  A    between atoms: C_12  and  C_13
REMARK    4  A    between atoms: C_13  and  N_14
REMARK    5  A    between atoms: N_17  and  C_18
REMARK    6  A    between atoms: C_18  and  C_20
REMARK    7  A    between atoms: C_23  and  C_24
REMARK    8  A    between atoms: C_24  and  CA_25
REMARK    9  A    between atoms: CA_25  and  N_26
REMARK   10  A    between atoms: CA_25  and  C_27
REMARK   11  A    between atoms: C_27  and  OXT_29
REMARK                            x       y       z     vdW  Elec       q    Type
REMARK                         _______ _______ _______ _____ _____    ______ ____
ROOT
ATOM      1  N   UNL     1       2.823   8.342  17.502  0.00  0.00    +0.000 N 
ATOM      2  C   UNL     1       1.987   9.279  18.027  0.00  0.00    +0.000 C 
ATOM      3  N   UNL     1       2.406  10.514  17.623  0.00  0.00    +0.000 N 
ATOM      4  N   UNL     1       0.950   9.013  18.762  0.00  0.00    +0.000 NA
ATOM      5  H   UNL     1       3.628   8.675  16.994  0.00  0.00    +0.000 HD
ATOM      6  H   UNL     1       3.398  10.657  17.721  0.00  0.00    +0.000 HD
ATOM      7  H   UNL     1       1.917  11.256  18.137  0.00  0.00    +0.000 HD
ENDROOT
BRANCH   4   8
ATOM      8  C   UNL     1       0.227  10.065  19.280  0.00  0.00    +0.000 C 
ATOM      9  O   UNL     1       0.549  10.695  20.288  0.00  0.00    +0.000 OA
BRANCH   8  10
ATOM     10  C   UNL     1      -1.058  10.449  18.607  0.00  0.00    +0.000 A 
ATOM     11  C   UNL     1      -1.845  11.443  19.213  0.00  0.00    +0.000 A 
ATOM     12  C   UNL     1      -3.079  11.820  18.675  0.00  0.00    +0.000 A 
ATOM     13  C   UNL     1      -3.546  11.223  17.499  0.00  0.00    +0.000 A 
ATOM     14  C   UNL     1      -2.749  10.245  16.878  0.00  0.00    +0.000 A 
ATOM     15  C   UNL     1      -1.514   9.856  17.428  0.00  0.00    +0.000 A 
BRANCH  13  16
ATOM     16  C   UNL     1      -4.917  11.567  16.948  0.00  0.00    +0.000 C 
BRANCH  16  17
ATOM     17  CA  UNL     1      -5.941  12.067  17.981  0.00  0.00    +0.000 C 
BRANCH  17  18
ATOM     18  N   UNL     1      -7.070  11.102  18.066  0.00  0.00    +0.000 NA
ATOM     19  H1  UNL     1      -7.317  11.009  19.059  0.00  0.00    +0.000 HD
ATOM     20  H2  UNL     1      -6.722  10.170  17.826  0.00  0.00    +0.000 HD
ENDBRANCH  17  18
BRANCH  17  21
ATOM     21  C   UNL     1      -6.490  13.445  17.583  0.00  0.00    +0.000 C 
ATOM     22  O   UNL     1      -7.108  13.656  16.547  0.00  0.00    +0.000 OA
BRANCH  21  23
ATOM     23  OXT UNL     1      -6.266  14.415  18.497  0.00  0.00    +0.000 OA
ATOM     24  HXT UNL     1      -6.018  14.086  19.382  0.00  0.00    +0.000 HD
ENDBRANCH  21  23
ENDBRANCH  17  21
ENDBRANCH  16  17
ENDBRANCH  13  16
ENDBRANCH   8  10
ENDBRANCH   4   8
BRANCH   1  25
ATOM     25  C   UNL     1       2.956   6.995  18.032  0.00  0.00    +0.000 C 
BRANCH  25  31
ATOM     26  C   UNL     1       4.570   4.972  18.091  0.00  0.00    +0.000 A 
ATOM     27  C   UNL     1       5.893   4.513  17.874  0.00  0.00    +0.000 A 
ATOM     28  C   UNL     1       6.932   5.341  17.442  0.00  0.00    +0.000 A 
ATOM     29  C   UNL     1       6.678   6.674  17.185  0.00  0.00    +0.000 A 
ATOM     30  C   UNL     1       5.389   7.169  17.364  0.00  0.00    +0.000 A 
ATOM     31  C   UNL     1       4.323   6.353  17.827  0.00  0.00    +0.000 A 
BRANCH  26  37
ATOM     32  C   UNL     1       1.823   5.324  20.723  0.00  0.00    +0.000 C 
ATOM     33  C   UNL     1       2.074   3.833  20.463  0.00  0.00    +0.000 C 
ATOM     34  C   UNL     1       1.035   3.220  19.523  0.00  0.00    +0.000 C 
ATOM     35  C   UNL     1       1.213   3.712  18.089  0.00  0.00    +0.000 C 
ATOM     36  C   UNL     1       2.641   3.463  17.599  0.00  0.00    +0.000 C 
ATOM     37  N   UNL     1       3.620   4.051  18.531  0.00  0.00    +0.000 N 
ATOM     38  C   UNL     1       3.495   3.618  19.924  0.00  0.00    +0.000 C 
ENDBRANCH  26  37
ENDBRANCH  25  31
ENDBRANCH   1  25
TORSDOF 10
ENDMDL
MODEL 3
REMARK VINA RESULT:      -8.4      1.412      2.062
REMARK  Name = 
REMARK  11 active torsions:
REMARK  status: ('A' for Active; 'I' for Inactive)
REMARK    1  A    between atoms: C_1  and  C_2
REMARK    2  A    between atoms: N_6  and  C_7
REMARK    3  A    between atoms: C_12  and  C_13
REMARK    4  A    between atoms: C_13  and  N_14
REMARK    5  A    between atoms: N_17  and  C_18
REMARK    6  A    between atoms: C_18  and  C_20
REMARK    7  A    between atoms: C_23  and  C_24
REMARK    8  A    between atoms: C_24  and  CA_25
REMARK    9  A    between atoms: CA_25  and  N_26
REMARK   10  A    between atoms: CA_25  and  C_27
REMARK   11  A    between atoms: C_27  and  OXT_29
REMARK                            x       y       z     vdW  Elec       q    Type
REMARK                         _______ _______ _______ _____ _____    ______ ____
ROOT
ATOM      1  N   UNL     1       2.011   8.202  19.328  0.00  0.00    +0.000 N 
ATOM      2  C   UNL     1       1.251   9.322  19.479  0.00  0.00    +0.000 C 
ATOM      3  N   UNL     1       0.879   9.424  20.789  0.00  0.00    +0.000 N 
ATOM      4  N   UNL     1       0.969  10.156  18.525  0.00  0.00    +0.000 NA
ATOM      5  H   UNL     1       2.112   7.602  20.131  0.00  0.00    +0.000 HD
ATOM      6  H   UNL     1       0.536   8.562  21.180  0.00  0.00    +0.000 HD
ATOM      7  H   UNL     1       0.164  10.148  20.914  0.00  0.00    +0.000 HD
ENDROOT
BRANCH   4   8
ATOM      8  C   UNL     1       0.136  11.217  18.807  0.00  0.00    +0.000 C 
ATOM      9  O   UNL     1       0.505  12.258  19.352  0.00  0.00    +0.000 OA
BRANCH   8  10
ATOM     10  C   UNL     1      -1.320  11.090  18.470  0.00  0.00    +0.000 A 
ATOM     11  C   UNL     1      -2.220  11.959  19.111  0.00  0.00    +0.000 A 
ATOM     12  C   UNL     1      -3.597  11.870  18.889  0.00  0.00    +0.000 A 
ATOM     13  C   UNL     1      -4.107  10.920  17.999  0.00  0.00    +0.000 A 
ATOM     14  C   UNL     1      -3.206  10.065  17.338  0.00  0.00    +0.000 A 
ATOM     15  C   UNL     1      -1.822  10.146  17.573  0.00  0.00    +0.000 A 
BRANCH  13  16
ATOM     16  C   UNL     1      -5.604  10.762  17.809  0.00  0.00    +0.000 C 
BRANCH  16  17
ATOM     17  CA  UNL     1      -6.463  11.027  19.056  0.00  0.00    +0.000 C 
BRANCH  17  18
ATOM     18  N   UNL     1      -7.357   9.862  19.298  0.00  0.00    +0.000 NA
ATOM     19  H1  UNL     1      -7.207   9.559  20.269  0.00  0.00    +0.000 HD
ATOM     20  H2  UNL     1      -7.013   9.068  18.754  0.00  0.00    +0.000 HD
ENDBRANCH  17  18
BRANCH  17  21
ATOM     21  C   UNL     1      -7.322  12.286  18.871  0.00  0.00    +0.000 C 
ATOM     22  O   UNL     1      -7.585  12.774  17.779  0.00  0.00    +0.000 OA
BRANCH  21  23
ATOM     23  OXT UNL     1      -7.804  12.803  20.023  0.00  0.00    +0.000 OA
ATOM     24  HXT UNL     1      -7.545  13.730  20.188  0.00  0.00    +0.000 HD
ENDBRANCH  21  23
ENDBRANCH  17  21
ENDBRANCH  16  17
ENDBRANCH  13  16
ENDBRANCH   8  10
ENDBRANCH   4   8
BRANCH   1  25
ATOM     25  C   UNL     1       2.228   7.545  18.049  0.00  0.00    +0.000 C 
BRANCH  25  31
ATOM     26  C   UNL     1       3.482   5.357  18.635  0.00  0.00    +0.000 A 
ATOM     27  C   UNL     1       4.687   4.621  18.514  0.00  0.00    +0.000 A 
ATOM     28  C   UNL     1       5.808   5.091  17.826  0.00  0.00    +0.000 A 
ATOM     29  C   UNL     1       5.759   6.324  17.205  0.00  0.00    +0.000 A 
ATOM     30  C   UNL     1       4.590   7.076  17.277  0.00  0.00    +0.000 A 
ATOM     31  C   UNL     1       3.446   6.632  17.992  0.00  0.00    +0.000 A 
BRANCH  26  37
ATOM     32  C   UNL     1       2.416   1.703  18.957  0.00  0.00    +0.000 C 
ATOM     33  C   UNL     1       1.251   2.601  19.393  0.00  0.00    +0.000 C 
ATOM     34  C   UNL     1       1.142   2.722  20.914  0.00  0.00    +0.000 C 
ATOM     35  C   UNL     1       2.277   3.561  21.495  0.00  0.00    +0.000 C 
ATOM     36  C   UNL     1       2.345   4.932  20.818  0.00  0.00    +0.000 C 
ATOM     37  N   UNL     1       2.434   4.785  19.354  0.00  0.00    +0.000 N 
ATOM     38  C   UNL     1       1.372   3.985  18.741  0.00  0.00    +0.000 C 
ENDBRANCH  26  37
ENDBRANCH  25  31
ENDBRANCH   1  25
TORSDOF 10
ENDMDL
MODEL 4
REMARK VINA RESULT:      -8.4      2.648      3.477
REMARK  Name = 
REMARK  11 active torsions:
REMARK  status: ('A' for Active; 'I' for Inactive)
REMARK    1  A    between atoms: C_1  and  C_2
REMARK    2  A    between atoms: N_6  and  C_7
REMARK    3  A    between atoms: C_12  and  C_13
REMARK    4  A    between atoms: C_13  and  N_14
REMARK    5  A    between atoms: N_17  and  C_18
REMARK    6  A    between atoms: C_18  and  C_20
REMARK    7  A    between atoms: C_23  and  C_24
REMARK    8  A    between atoms: C_24  and  CA_25
REMARK    9  A    between atoms: CA_25  and  N_26
REMARK   10  A    between atoms: CA_25  and  C_27
REMARK   11  A    between atoms: C_27  and  OXT_29
REMARK                            x       y       z     vdW  Elec       q    Type
REMARK                         _______ _______ _______ _____ _____    ______ ____
ROOT
ATOM      1  N   UNL     1       2.293   9.153  18.035  0.00  0.00    +0.000 N 
ATOM      2  C   UNL     1       1.307  10.087  18.134  0.00  0.00    +0.000 C 
ATOM      3  N   UNL     1       1.834  11.311  17.836  0.00  0.00    +0.000 N 
ATOM      4  N   UNL     1       0.071   9.826  18.433  0.00  0.00    +0.000 NA
ATOM      5  H   UNL     1       3.227   9.486  17.852  0.00  0.00    +0.000 HD
ATOM      6  H   UNL     1       2.711  11.497  18.295  0.00  0.00    +0.000 HD
ATOM      7  H   UNL     1       1.177  12.062  18.070  0.00  0.00    +0.000 HD
ENDROOT
BRANCH   4   8
ATOM      8  C   UNL     1      -0.809  10.878  18.560  0.00  0.00    +0.000 C 
ATOM      9  O   UNL     1      -1.271  11.510  17.609  0.00  0.00    +0.000 OA
BRANCH   8  10
ATOM     10  C   UNL     1      -1.203  11.316  19.939  0.00  0.00    +0.000 A 
ATOM     11  C   UNL     1      -2.186  12.314  20.055  0.00  0.00    +0.000 A 
ATOM     12  C   UNL     1      -2.571  12.812  21.303  0.00  0.00    +0.000 A 
ATOM     13  C   UNL     1      -1.996  12.304  22.472  0.00  0.00    +0.000 A 
ATOM     14  C   UNL     1      -1.030  11.287  22.360  0.00  0.00    +0.000 A 
ATOM     15  C   UNL     1      -0.632  10.797  21.103  0.00  0.00    +0.000 A 
BRANCH  13  16
ATOM     16  C   UNL     1      -2.349  12.889  23.826  0.00  0.00    +0.000 C 
BRANCH  16  17
ATOM     17  CA  UNL     1      -3.684  13.649  23.895  0.00  0.00    +0.000 C 
BRANCH  17  18
ATOM     18  N   UNL     1      -3.664  14.582  25.053  0.00  0.00    +0.000 NA
ATOM     19  H1  UNL     1      -2.680  14.811  25.243  0.00  0.00    +0.000 HD
ATOM     20  H2  UNL     1      -3.947  14.069  25.891  0.00  0.00    +0.000 HD
ENDBRANCH  17  18
BRANCH  17  21
ATOM     21  C   UNL     1      -4.860  12.675  24.056  0.00  0.00    +0.000 C 
ATOM     22  O   UNL     1      -5.735  12.522  23.213  0.00  0.00    +0.000 OA
BRANCH  21  23
ATOM     23  OXT UNL     1      -4.834  11.959  25.202  0.00  0.00    +0.000 OA
ATOM     24  HXT UNL     1      -5.702  11.607  25.477  0.00  0.00    +0.000 HD
ENDBRANCH  21  23
ENDBRANCH  17  21
ENDBRANCH  16  17
ENDBRANCH  13  16
ENDBRANCH   8  10
ENDBRANCH   4   8
BRANCH   1  25
ATOM     25  C   UNL     1       2.229   7.846  18.668  0.00  0.00    +0.000 C 
BRANCH  25  31
ATOM     26  C   UNL     1       3.160   5.437  18.488  0.00  0.00    +0.000 A 
ATOM     27  C   UNL     1       4.151   4.596  17.923  0.00  0.00    +0.000 A 
ATOM     28  C   UNL     1       5.156   5.058  17.070  0.00  0.00    +0.000 A 
ATOM     29  C   UNL     1       5.195   6.395  16.725  0.00  0.00    +0.000 A 
ATOM     30  C   UNL     1       4.230   7.259  17.237  0.00  0.00    +0.000 A 
ATOM     31  C   UNL     1       3.215   6.817  18.127  0.00  0.00    +0.000 A 
BRANCH  26  37
ATOM     32  C   UNL     1       2.248   1.767  19.029  0.00  0.00    +0.000 C 
ATOM     33  C   UNL     1       1.110   2.647  19.564  0.00  0.00    +0.000 C 
ATOM     34  C   UNL     1       1.163   2.812  21.084  0.00  0.00    +0.000 C 
ATOM     35  C   UNL     1       2.328   3.701  21.512  0.00  0.00    +0.000 C 
ATOM     36  C   UNL     1       2.280   5.051  20.794  0.00  0.00    +0.000 C 
ATOM     37  N   UNL     1       2.214   4.860  19.333  0.00  0.00    +0.000 N 
ATOM     38  C   UNL     1       1.117   4.012  18.863  0.00  0.00    +0.000 C 
ENDBRANCH  26  37
ENDBRANCH  25  31
ENDBRANCH   1  25
TORSDOF 10
ENDMDL
MODEL 5
REMARK VINA RESULT:      -8.4      1.424      1.864
REMARK  Name = 
REMARK  11 active torsions:
REMARK  status: ('A' for Active; 'I' for Inactive)
REMARK    1  A    between atoms: C_1  and  C_2
REMARK    2  A    between atoms: N_6  and  C_7
REMARK    3  A    between atoms: C_12  and  C_13
REMARK    4  A    between atoms: C_13  and  N_14
REMARK    5  A    between atoms: N_17  and  C_18
REMARK    6  A    between atoms: C_18  and  C_20
REMARK    7  A    between atoms: C_23  and  C_24
REMARK    8  A    between atoms: C_24  and  CA_25
REMARK    9  A    between atoms: CA_25  and  N_26
REMARK   10  A    between atoms: CA_25  and  C_27
REMARK   11  A    between atoms: C_27  and  OXT_29
REMARK                            x       y       z     vdW  Elec       q    Type
REMARK                         _______ _______ _______ _____ _____    ______ ____
ROOT
ATOM      1  N   UNL     1       2.184   7.252  19.521  0.00  0.00    +0.000 N 
ATOM      2  C   UNL     1       1.629   8.492  19.620  0.00  0.00    +0.000 C 
ATOM      3  N   UNL     1       1.391   8.760  20.937  0.00  0.00    +0.000 N 
ATOM      4  N   UNL     1       1.402   9.281  18.614  0.00  0.00    +0.000 NA
ATOM      5  H   UNL     1       2.257   6.711  20.368  0.00  0.00    +0.000 HD
ATOM      6  H   UNL     1       0.949   8.002  21.431  0.00  0.00    +0.000 HD
ATOM      7  H   UNL     1       0.813   9.600  21.044  0.00  0.00    +0.000 HD
ENDROOT
BRANCH   4   8
ATOM      8  C   UNL     1       0.776  10.484  18.852  0.00  0.00    +0.000 C 
ATOM      9  O   UNL     1       1.330  11.464  19.351  0.00  0.00    +0.000 OA
BRANCH   8  10
ATOM     10  C   UNL     1      -0.684  10.606  18.527  0.00  0.00    +0.000 A 
ATOM     11  C   UNL     1      -1.202   9.780  17.515  0.00  0.00    +0.000 A 
ATOM     12  C   UNL     1      -2.539   9.870  17.120  0.00  0.00    +0.000 A 
ATOM     13  C   UNL     1      -3.400  10.776  17.746  0.00  0.00    +0.000 A 
ATOM     14  C   UNL     1      -2.890  11.587  18.776  0.00  0.00    +0.000 A 
ATOM     15  C   UNL     1      -1.540  11.507  19.164  0.00  0.00    +0.000 A 
BRANCH  13  16
ATOM     16  C   UNL     1      -4.832  10.938  17.273  0.00  0.00    +0.000 C 
BRANCH  16  17
ATOM     17  CA  UNL     1      -5.844  11.361  18.351  0.00  0.00    +0.000 C 
BRANCH  17  18
ATOM     18  N   UNL     1      -6.792  10.243  18.607  0.00  0.00    +0.000 NA
ATOM     19  H1  UNL     1      -6.233   9.386  18.702  0.00  0.00    +0.000 HD
ATOM     20  H2  UNL     1      -7.333  10.073  17.757  0.00  0.00    +0.000 HD
ENDBRANCH  17  18
BRANCH  17  21
ATOM     21  C   UNL     1      -6.637  12.597  17.901  0.00  0.00    +0.000 C 
ATOM     22  O   UNL     1      -7.737  12.897  18.348  0.00  0.00    +0.000 OA
BRANCH  21  23
ATOM     23  OXT UNL     1      -6.000  13.361  16.987  0.00  0.00    +0.000 OA
ATOM     24  HXT UNL     1      -6.550  14.069  16.599  0.00  0.00    +0.000 HD
ENDBRANCH  21  23
ENDBRANCH  17  21
ENDBRANCH  16  17
ENDBRANCH  13  16
ENDBRANCH   8  10
ENDBRANCH   4   8
BRANCH   1  25
ATOM     25  C   UNL     1       2.185   6.466  18.298  0.00  0.00    +0.000 C 
BRANCH  25  31
ATOM     26  C   UNL     1       4.060   4.727  17.900  0.00  0.00    +0.000 A 
ATOM     27  C   UNL     1       5.367   4.496  17.403  0.00  0.00    +0.000 A 
ATOM     28  C   UNL     1       6.165   5.498  16.846  0.00  0.00    +0.000 A 
ATOM     29  C   UNL     1       5.671   6.784  16.742  0.00  0.00    +0.000 A 
ATOM     30  C   UNL     1       4.384   7.057  17.198  0.00  0.00    +0.000 A 
ATOM     31  C   UNL     1       3.563   6.061  17.792  0.00  0.00    +0.000 A 
BRANCH  26  37
ATOM     32  C   UNL     1       2.250   4.384  21.247  0.00  0.00    +0.000 C 
ATOM     33  C   UNL     1       2.515   2.984  20.679  0.00  0.00    +0.000 C 
ATOM     34  C   UNL     1       1.282   2.384  20.000  0.00  0.00    +0.000 C 
ATOM     35  C   UNL     1       0.970   3.085  18.681  0.00  0.00    +0.000 C 
ATOM     36  C   UNL     1       2.188   3.079  17.756  0.00  0.00    +0.000 C 
ATOM     37  N   UNL     1       3.364   3.648  18.441  0.00  0.00    +0.000 N 
ATOM     38  C   UNL     1       3.709   3.016  19.716  0.00  0.00    +0.000 C 
ENDBRANCH  26  37
ENDBRANCH  25  31
ENDBRANCH   1  25
TORSDOF 10
ENDMDL
MODEL 6
REMARK VINA RESULT:      -8.3      1.268      1.603
REMARK  Name = 
REMARK  11 active torsions:
REMARK  status: ('A' for Active; 'I' for Inactive)
REMARK    1  A    between atoms: C_1  and  C_2
REMARK    2  A    between atoms: N_6  and  C_7
REMARK    3  A    between atoms: C_12  and  C_13
REMARK    4  A    between atoms: C_13  and  N_14
REMARK    5  A    between atoms: N_17  and  C_18
REMARK    6  A    between atoms: C_18  and  C_20
REMARK    7  A    between atoms: C_23  and  C_24
REMARK    8  A    between atoms: C_24  and  CA_25
REMARK    9  A    between atoms: CA_25  and  N_26
REMARK   10  A    between atoms: CA_25  and  C_27
REMARK   11  A    between atoms: C_27  and  OXT_29
REMARK                            x       y       z     vdW  Elec       q    Type
REMARK                         _______ _______ _______ _____ _____    ______ ____
ROOT
ATOM      1  N   UNL     1       2.309   6.994  19.965  0.00  0.00    +0.000 N 
ATOM      2  C   UNL     1       1.746   8.207  20.226  0.00  0.00    +0.000 C 
ATOM      3  N   UNL     1       1.661   8.368  21.579  0.00  0.00    +0.000 N 
ATOM      4  N   UNL     1       1.387   9.064  19.318  0.00  0.00    +0.000 NA
ATOM      5  H   UNL     1       2.491   6.392  20.753  0.00  0.00    +0.000 HD
ATOM      6  H   UNL     1       1.295   7.562  22.060  0.00  0.00    +0.000 HD
ATOM      7  H   UNL     1       1.085   9.181  21.818  0.00  0.00    +0.000 HD
ENDROOT
BRANCH   4   8
ATOM      8  C   UNL     1       0.772  10.228  19.723  0.00  0.00    +0.000 C 
ATOM      9  O   UNL     1       1.210  10.971  20.602  0.00  0.00    +0.000 OA
BRANCH   8  10
ATOM     10  C   UNL     1      -0.535  10.602  19.089  0.00  0.00    +0.000 A 
ATOM     11  C   UNL     1      -1.308  11.595  19.715  0.00  0.00    +0.000 A 
ATOM     12  C   UNL     1      -2.560  11.963  19.214  0.00  0.00    +0.000 A 
ATOM     13  C   UNL     1      -3.062  11.359  18.058  0.00  0.00    +0.000 A 
ATOM     14  C   UNL     1      -2.280  10.381  17.416  0.00  0.00    +0.000 A 
ATOM     15  C   UNL     1      -1.026  10.001  17.928  0.00  0.00    +0.000 A 
BRANCH  13  16
ATOM     16  C   UNL     1      -4.451  11.693  17.549  0.00  0.00    +0.000 C 
BRANCH  16  17
ATOM     17  CA  UNL     1      -5.601  11.425  18.534  0.00  0.00    +0.000 C 
BRANCH  17  18
ATOM     18  N   UNL     1      -6.868  11.237  17.777  0.00  0.00    +0.000 NA
ATOM     19  H1  UNL     1      -7.231  12.171  17.554  0.00  0.00    +0.000 HD
ATOM     20  H2  UNL     1      -7.575  10.860  18.412  0.00  0.00    +0.000 HD
ENDBRANCH  17  18
BRANCH  17  21
ATOM     21  C   UNL     1      -5.770  12.599  19.510  0.00  0.00    +0.000 C 
ATOM     22  O   UNL     1      -5.955  12.460  20.713  0.00  0.00    +0.000 OA
BRANCH  21  23
ATOM     23  OXT UNL     1      -5.660  13.817  18.936  0.00  0.00    +0.000 OA
ATOM     24  HXT UNL     1      -6.405  14.057  18.352  0.00  0.00    +0.000 HD
ENDBRANCH  21  23
ENDBRANCH  17  21
ENDBRANCH  16  17
ENDBRANCH  13  16
ENDBRANCH   8  10
ENDBRANCH   4   8
BRANCH   1  25
ATOM     25  C   UNL     1       2.178   6.304  18.693  0.00  0.00    +0.000 C 
BRANCH  25  31
ATOM     26  C   UNL     1       4.003   4.623  17.957  0.00  0.00    +0.000 A 
ATOM     27  C   UNL     1       5.249   4.446  17.304  0.00  0.00    +0.000 A 
ATOM     28  C   UNL     1       5.979   5.498  16.746  0.00  0.00    +0.000 A 
ATOM     29  C   UNL     1       5.474   6.782  16.800  0.00  0.00    +0.000 A 
ATOM     30  C   UNL     1       4.243   7.004  17.412  0.00  0.00    +0.000 A 
ATOM     31  C   UNL     1       3.495   5.956  18.010  0.00  0.00    +0.000 A 
BRANCH  26  37
ATOM     32  C   UNL     1       2.286   4.101  21.330  0.00  0.00    +0.000 C 
ATOM     33  C   UNL     1       2.607   2.731  20.717  0.00  0.00    +0.000 C 
ATOM     34  C   UNL     1       1.390   2.090  20.048  0.00  0.00    +0.000 C 
ATOM     35  C   UNL     1       1.014   2.810  18.755  0.00  0.00    +0.000 C 
ATOM     36  C   UNL     1       2.212   2.889  17.805  0.00  0.00    +0.000 C 
ATOM     37  N   UNL     1       3.373   3.496  18.482  0.00  0.00    +0.000 N 
ATOM     38  C   UNL     1       3.776   2.848  19.731  0.00  0.00    +0.000 C 
ENDBRANCH  26  37
ENDBRANCH  25  31
ENDBRANCH   1  25
TORSDOF 10
ENDMDL
MODEL 7
REMARK VINA RESULT:      -8.2      1.634      3.581
REMARK  Name = 
REMARK  11 active torsions:
REMARK  status: ('A' for Active; 'I' for Inactive)
REMARK    1  A    between atoms: C_1  and  C_2
REMARK    2  A    between atoms: N_6  and  C_7
REMARK    3  A    between atoms: C_12  and  C_13
REMARK    4  A    between atoms: C_13  and  N_14
REMARK    5  A    between atoms: N_17  and  C_18
REMARK    6  A    between atoms: C_18  and  C_20
REMARK    7  A    between atoms: C_23  and  C_24
REMARK    8  A    between atoms: C_24  and  CA_25
REMARK    9  A    between atoms: CA_25  and  N_26
REMARK   10  A    between atoms: CA_25  and  C_27
REMARK   11  A    between atoms: C_27  and  OXT_29
REMARK                            x       y       z     vdW  Elec       q    Type
REMARK                         _______ _______ _______ _____ _____    ______ ____
ROOT
ATOM      1  N   UNL     1       2.362   7.081  20.248  0.00  0.00    +0.000 N 
ATOM      2  C   UNL     1       1.747   8.292  20.344  0.00  0.00    +0.000 C 
ATOM      3  N   UNL     1       1.410   8.509  21.649  0.00  0.00    +0.000 N 
ATOM      4  N   UNL     1       1.553   9.102  19.348  0.00  0.00    +0.000 NA
ATOM      5  H   UNL     1       2.401   6.517  21.083  0.00  0.00    +0.000 HD
ATOM      6  H   UNL     1       0.970   7.718  22.090  0.00  0.00    +0.000 HD
ATOM      7  H   UNL     1       0.790   9.321  21.740  0.00  0.00    +0.000 HD
ENDROOT
BRANCH   4   8
ATOM      8  C   UNL     1       0.860  10.270  19.577  0.00  0.00    +0.000 C 
ATOM      9  O   UNL     1       1.257  11.175  20.312  0.00  0.00    +0.000 OA
BRANCH   8  10
ATOM     10  C   UNL     1      -0.482  10.443  18.930  0.00  0.00    +0.000 A 
ATOM     11  C   UNL     1      -1.401  11.309  19.546  0.00  0.00    +0.000 A 
ATOM     12  C   UNL     1      -2.689  11.485  19.033  0.00  0.00    +0.000 A 
ATOM     13  C   UNL     1      -3.083  10.812  17.872  0.00  0.00    +0.000 A 
ATOM     14  C   UNL     1      -2.156   9.962  17.240  0.00  0.00    +0.000 A 
ATOM     15  C   UNL     1      -0.865   9.775  17.765  0.00  0.00    +0.000 A 
BRANCH  13  16
ATOM     16  C   UNL     1      -4.501  10.933  17.349  0.00  0.00    +0.000 C 
BRANCH  16  17
ATOM     17  CA  UNL     1      -5.530  11.498  18.343  0.00  0.00    +0.000 C 
BRANCH  17  18
ATOM     18  N   UNL     1      -6.712  10.597  18.399  0.00  0.00    +0.000 NA
ATOM     19  H1  UNL     1      -7.530  11.149  18.113  0.00  0.00    +0.000 HD
ATOM     20  H2  UNL     1      -6.911  10.381  19.379  0.00  0.00    +0.000 HD
ENDBRANCH  17  18
BRANCH  17  21
ATOM     21  C   UNL     1      -5.989  12.901  17.916  0.00  0.00    +0.000 C 
ATOM     22  O   UNL     1      -6.598  13.128  16.879  0.00  0.00    +0.000 OA
BRANCH  21  23
ATOM     23  OXT UNL     1      -5.696  13.875  18.806  0.00  0.00    +0.000 OA
ATOM     24  HXT UNL     1      -5.561  14.756  18.409  0.00  0.00    +0.000 HD
ENDBRANCH  21  23
ENDBRANCH  17  21
ENDBRANCH  16  17
ENDBRANCH  13  16
ENDBRANCH   8  10
ENDBRANCH   4   8
BRANCH   1  25
ATOM     25  C   UNL     1       2.478   6.334  19.006  0.00  0.00    +0.000 C 
BRANCH  25  31
ATOM     26  C   UNL     1       3.286   3.896  18.689  0.00  0.00    +0.000 A 
ATOM     27  C   UNL     1       2.983   2.522  18.862  0.00  0.00    +0.000 A 
ATOM     28  C   UNL     1       1.789   2.063  19.423  0.00  0.00    +0.000 A 
ATOM     29  C   UNL     1       0.847   2.975  19.860  0.00  0.00    +0.000 A 
ATOM     30  C   UNL     1       1.107   4.337  19.732  0.00  0.00    +0.000 A 
ATOM     31  C   UNL     1       2.302   4.827  19.141  0.00  0.00    +0.000 A 
BRANCH  26  37
ATOM     32  C   UNL     1       4.298   6.973  16.664  0.00  0.00    +0.000 C 
ATOM     33  C   UNL     1       5.320   5.855  16.416  0.00  0.00    +0.000 C 
ATOM     34  C   UNL     1       6.595   6.034  17.243  0.00  0.00    +0.000 C 
ATOM     35  C   UNL     1       6.348   5.761  18.724  0.00  0.00    +0.000 C 
ATOM     36  C   UNL     1       5.725   4.378  18.929  0.00  0.00    +0.000 C 
ATOM     37  N   UNL     1       4.508   4.229  18.109  0.00  0.00    +0.000 N 
ATOM     38  C   UNL     1       4.684   4.483  16.678  0.00  0.00    +0.000 C 
ENDBRANCH  26  37
ENDBRANCH  25  31
ENDBRANCH   1  25
TORSDOF 10
ENDMDL
MODEL 8
REMARK VINA RESULT:      -8.2      2.721      3.338
REMARK  Name = 
REMARK  11 active torsions:
REMARK  status: ('A' for Active; 'I' for Inactive)
REMARK    1  A    between atoms: C_1  and  C_2
REMARK    2  A    between atoms: N_6  and  C_7
REMARK    3  A    between atoms: C_12  and  C_13
REMARK    4  A    between atoms: C_13  and  N_14
REMARK    5  A    between atoms: N_17  and  C_18
REMARK    6  A    between atoms: C_18  and  C_20
REMARK    7  A    between atoms: C_23  and  C_24
REMARK    8  A    between atoms: C_24  and  CA_25
REMARK    9  A    between atoms: CA_25  and  N_26
REMARK   10  A    between atoms: CA_25  and  C_27
REMARK   11  A    between atoms: C_27  and  OXT_29
REMARK                            x       y       z     vdW  Elec       q    Type
REMARK                         _______ _______ _______ _____ _____    ______ ____
ROOT
ATOM      1  N   UNL     1       2.061   9.119  17.845  0.00  0.00    +0.000 N 
ATOM      2  C   UNL     1       1.693  10.279  18.457  0.00  0.00    +0.000 C 
ATOM      3  N   UNL     1       2.136  11.329  17.706  0.00  0.00    +0.000 N 
ATOM      4  N   UNL     1       1.007  10.347  19.558  0.00  0.00    +0.000 NA
ATOM      5  H   UNL     1       2.642   9.195  17.025  0.00  0.00    +0.000 HD
ATOM      6  H   UNL     1       3.092  11.235  17.403  0.00  0.00    +0.000 HD
ATOM      7  H   UNL     1       2.040  12.214  18.215  0.00  0.00    +0.000 HD
ENDROOT
BRANCH   4   8
ATOM      8  C   UNL     1       0.759  11.589  20.100  0.00  0.00    +0.000 C 
ATOM      9  O   UNL     1       1.426  12.595  19.855  0.00  0.00    +0.000 OA
BRANCH   8  10
ATOM     10  C   UNL     1      -0.364  11.726  21.085  0.00  0.00    +0.000 A 
ATOM     11  C   UNL     1      -1.361  12.679  20.814  0.00  0.00    +0.000 A 
ATOM     12  C   UNL     1      -2.413  12.902  21.707  0.00  0.00    +0.000 A 
ATOM     13  C   UNL     1      -2.505  12.158  22.887  0.00  0.00    +0.000 A 
ATOM     14  C   UNL     1      -1.521  11.187  23.149  0.00  0.00    +0.000 A 
ATOM     15  C   UNL     1      -0.455  10.973  22.257  0.00  0.00    +0.000 A 
BRANCH  13  16
ATOM     16  C   UNL     1      -3.597  12.445  23.900  0.00  0.00    +0.000 C 
BRANCH  16  17
ATOM     17  CA  UNL     1      -4.408  13.729  23.658  0.00  0.00    +0.000 C 
BRANCH  17  18
ATOM     18  N   UNL     1      -4.188  14.674  24.785  0.00  0.00    +0.000 NA
ATOM     19  H1  UNL     1      -4.876  15.431  24.686  0.00  0.00    +0.000 HD
ATOM     20  H2  UNL     1      -3.296  15.152  24.641  0.00  0.00    +0.000 HD
ENDBRANCH  17  18
BRANCH  17  21
ATOM     21  C   UNL     1      -5.908  13.416  23.551  0.00  0.00    +0.000 C 
ATOM     22  O   UNL     1      -6.788  14.166  23.956  0.00  0.00    +0.000 OA
BRANCH  21  23
ATOM     23  OXT UNL     1      -6.188  12.247  22.934  0.00  0.00    +0.000 OA
ATOM     24  HXT UNL     1      -5.405  11.699  22.732  0.00  0.00    +0.000 HD
ENDBRANCH  21  23
ENDBRANCH  17  21
ENDBRANCH  16  17
ENDBRANCH  13  16
ENDBRANCH   8  10
ENDBRANCH   4   8
BRANCH   1  25
ATOM     25  C   UNL     1       2.143   7.840  18.530  0.00  0.00    +0.000 C 
BRANCH  25  31
ATOM     26  C   UNL     1       3.143   5.468  18.253  0.00  0.00    +0.000 A 
ATOM     27  C   UNL     1       4.163   4.681  17.661  0.00  0.00    +0.000 A 
ATOM     28  C   UNL     1       5.162   5.209  16.840  0.00  0.00    +0.000 A 
ATOM     29  C   UNL     1       5.167   6.560  16.556  0.00  0.00    +0.000 A 
ATOM     30  C   UNL     1       4.173   7.373  17.096  0.00  0.00    +0.000 A 
ATOM     31  C   UNL     1       3.163   6.864  17.955  0.00  0.00    +0.000 A 
BRANCH  26  37
ATOM     32  C   UNL     1       2.571   1.746  18.893  0.00  0.00    +0.000 C 
ATOM     33  C   UNL     1       1.317   2.522  19.317  0.00  0.00    +0.000 C 
ATOM     34  C   UNL     1       1.252   2.748  20.828  0.00  0.00    +0.000 C 
ATOM     35  C   UNL     1       2.290   3.766  21.291  0.00  0.00    +0.000 C 
ATOM     36  C   UNL     1       2.155   5.077  20.513  0.00  0.00    +0.000 C 
ATOM     37  N   UNL     1       2.206   4.827  19.061  0.00  0.00    +0.000 N 
ATOM     38  C   UNL     1       1.233   3.855  18.560  0.00  0.00    +0.000 C 
ENDBRANCH  26  37
ENDBRANCH  25  31
ENDBRANCH   1  25
TORSDOF 10
ENDMDL
MODEL 9
REMARK VINA RESULT:      -8.1      1.510      2.194
REMARK  Name = 
REMARK  11 active torsions:
REMARK  status: ('A' for Active; 'I' for Inactive)
REMARK    1  A    between atoms: C_1  and  C_2
REMARK    2  A    between atoms: N_6  and  C_7
REMARK    3  A    between atoms: C_12  and  C_13
REMARK    4  A    between atoms: C_13  and  N_14
REMARK    5  A    between atoms: N_17  and  C_18
REMARK    6  A    between atoms: C_18  and  C_20
REMARK    7  A    between atoms: C_23  and  C_24
REMARK    8  A    between atoms: C_24  and  CA_25
REMARK    9  A    between atoms: CA_25  and  N_26
REMARK   10  A    between atoms: CA_25  and  C_27
REMARK   11  A    between atoms: C_27  and  OXT_29
REMARK                            x       y       z     vdW  Elec       q    Type
REMARK                         _______ _______ _______ _____ _____    ______ ____
ROOT
ATOM      1  N   UNL     1       2.383   8.782  17.484  0.00  0.00    +0.000 N 
ATOM      2  C   UNL     1       1.698   9.795  18.084  0.00  0.00    +0.000 C 
ATOM      3  N   UNL     1       2.378  10.961  17.881  0.00  0.00    +0.000 N 
ATOM      4  N   UNL     1       0.570   9.652  18.711  0.00  0.00    +0.000 NA
ATOM      5  H   UNL     1       3.278   9.008  17.078  0.00  0.00    +0.000 HD
ATOM      6  H   UNL     1       3.367  10.889  18.057  0.00  0.00    +0.000 HD
ATOM      7  H   UNL     1       1.997  11.716  18.462  0.00  0.00    +0.000 HD
ENDROOT
BRANCH   4   8
ATOM      8  C   UNL     1       0.018  10.754  19.326  0.00  0.00    +0.000 C 
ATOM      9  O   UNL     1       0.627  11.487  20.105  0.00  0.00    +0.000 OA
BRANCH   8  10
ATOM     10  C   UNL     1      -1.426  11.066  19.069  0.00  0.00    +0.000 A 
ATOM     11  C   UNL     1      -2.094  10.319  18.083  0.00  0.00    +0.000 A 
ATOM     12  C   UNL     1      -3.425  10.583  17.750  0.00  0.00    +0.000 A 
ATOM     13  C   UNL     1      -4.131  11.591  18.414  0.00  0.00    +0.000 A 
ATOM     14  C   UNL     1      -3.473  12.324  19.418  0.00  0.00    +0.000 A 
ATOM     15  C   UNL     1      -2.129  12.068  19.743  0.00  0.00    +0.000 A 
BRANCH  13  16
ATOM     16  C   UNL     1      -5.551  11.938  18.008  0.00  0.00    +0.000 C 
BRANCH  16  17
ATOM     17  CA  UNL     1      -6.462  12.440  19.141  0.00  0.00    +0.000 C 
BRANCH  17  18
ATOM     18  N   UNL     1      -7.608  11.506  19.306  0.00  0.00    +0.000 NA
ATOM     19  H1  UNL     1      -8.016  11.685  20.232  0.00  0.00    +0.000 HD
ATOM     20  H2  UNL     1      -7.243  10.554  19.395  0.00  0.00    +0.000 HD
ENDBRANCH  17  18
BRANCH  17  21
ATOM     21  C   UNL     1      -7.001  13.844  18.828  0.00  0.00    +0.000 C 
ATOM     22  O   UNL     1      -7.915  14.373  19.448  0.00  0.00    +0.000 OA
BRANCH  21  23
ATOM     23  OXT UNL     1      -6.353  14.475  17.825  0.00  0.00    +0.000 OA
ATOM     24  HXT UNL     1      -6.522  15.436  17.777  0.00  0.00    +0.000 HD
ENDBRANCH  21  23
ENDBRANCH  17  21
ENDBRANCH  16  17
ENDBRANCH  13  16
ENDBRANCH   8  10
ENDBRANCH   4   8
BRANCH   1  25
ATOM     25  C   UNL     1       2.212   7.380  17.829  0.00  0.00    +0.000 C 
BRANCH  25  31
ATOM     26  C   UNL     1       3.577   5.404  18.794  0.00  0.00    +0.000 A 
ATOM     27  C   UNL     1       4.850   4.789  18.894  0.00  0.00    +0.000 A 
ATOM     28  C   UNL     1       6.001   5.302  18.292  0.00  0.00    +0.000 A 
ATOM     29  C   UNL     1       5.917   6.456  17.536  0.00  0.00    +0.000 A 
ATOM     30  C   UNL     1       4.685   7.086  17.390  0.00  0.00    +0.000 A 
ATOM     31  C   UNL     1       3.506   6.598  18.014  0.00  0.00    +0.000 A 
BRANCH  26  37
ATOM     32  C   UNL     1       2.608   1.718  19.060  0.00  0.00    +0.000 C 
ATOM     33  C   UNL     1       1.391   2.580  19.419  0.00  0.00    +0.000 C 
ATOM     34  C   UNL     1       1.182   2.699  20.930  0.00  0.00    +0.000 C 
ATOM     35  C   UNL     1       2.251   3.575  21.578  0.00  0.00    +0.000 C 
ATOM     36  C   UNL     1       2.319   4.946  20.903  0.00  0.00    +0.000 C 
ATOM     37  N   UNL     1       2.504   4.800  19.447  0.00  0.00    +0.000 N 
ATOM     38  C   UNL     1       1.509   3.966  18.771  0.00  0.00    +0.000 C 
ENDBRANCH  26  37
ENDBRANCH  25  31
ENDBRANCH   1  25
TORSDOF 10
ENDMDL
