MODEL 1
REMARK VINA RESULT:      -7.5      0.000      0.000
REMARK  Name = 
REMARK  3 active torsions:
REMARK  status: ('A' for Active; 'I' for Inactive)
REMARK    1  A    between atoms: N_6  and  C_7
REMARK    2  A    between atoms: C_7  and  C_8
REMARK    3  A    between atoms: N_12  and  C_13
REMARK                            x       y       z     vdW  Elec       q    Type
REMARK                         _______ _______ _______ _____ _____    ______ ____
ROOT
ATOM      1  C   UNL     1       6.425   4.907  16.464  0.00  0.00    +0.000 A 
ATOM      2  N   UNL     1       7.712   4.854  16.779  0.00  0.00    +0.000 NA
ATOM      3  C   UNL     1       7.701   4.552  18.103  0.00  0.00    +0.000 A 
ATOM      4  N   UNL     1       6.494   4.428  18.649  0.00  0.00    +0.000 NA
ATOM      5  N   UNL     1       5.672   4.535  17.573  0.00  0.00    +0.000 N 
ENDROOT
BRANCH   5   6
ATOM      6  C   UNL     1       4.274   4.336  17.704  0.00  0.00    +0.000 A 
ATOM      7  C   UNL     1       3.460   5.423  18.052  0.00  0.00    +0.000 A 
ATOM      8  C   UNL     1       2.074   5.265  18.118  0.00  0.00    +0.000 A 
ATOM      9  C   UNL     1       1.498   4.019  17.872  0.00  0.00    +0.000 A 
ATOM     10  C   UNL     1       2.308   2.923  17.582  0.00  0.00    +0.000 A 
ATOM     11  C   UNL     1       3.693   3.078  17.505  0.00  0.00    +0.000 A 
ENDBRANCH   5   6
BRANCH   1  12
ATOM     12  C   UNL     1       5.822   5.448  15.207  0.00  0.00    +0.000 C 
BRANCH  12  18
ATOM     13  O   UNL     1       8.215   5.723  13.570  0.00  0.00    +0.000 OA
ATOM     14  C   UNL     1       7.316   4.948  13.283  0.00  0.00    +0.000 C 
ATOM     15  C   UNL     1       7.224   4.142  12.014  0.00  0.00    +0.000 C 
ATOM     16  C   UNL     1       6.188   3.078  12.363  0.00  0.00    +0.000 C 
ATOM     17  C   UNL     1       5.288   3.768  13.370  0.00  0.00    +0.000 C 
ATOM     18  N   UNL     1       6.185   4.678  14.035  0.00  0.00    +0.000 N 
ENDBRANCH  12  18
ENDBRANCH   1  12
TORSDOF 3
ENDMDL
MODEL 2
REMARK VINA RESULT:      -7.3      2.322      3.311
REMARK  Name = 
REMARK  3 active torsions:
REMARK  status: ('A' for Active; 'I' for Inactive)
REMARK    1  A    between atoms: N_6  and  C_7
REMARK    2  A    between atoms: C_7  and  C_8
REMARK    3  A    between atoms: N_12  and  C_13
REMARK                            x       y       z     vdW  Elec       q    Type
REMARK                         _______ _______ _______ _____ _____    ______ ____
ROOT
ATOM      1  C   UNL     1       4.298   5.802  17.964  0.00  0.00    +0.000 A 
ATOM      2  N   UNL     1       4.534   7.006  17.462  0.00  0.00    +0.000 NA
ATOM      3  C   UNL     1       3.365   7.667  17.663  0.00  0.00    +0.000 A 
ATOM      4  N   UNL     1       2.402   6.958  18.244  0.00  0.00    +0.000 NA
ATOM      5  N   UNL     1       3.036   5.796  18.549  0.00  0.00    +0.000 N 
ENDROOT
BRANCH   5   6
ATOM      6  C   UNL     1       2.382   4.787  19.301  0.00  0.00    +0.000 A 
ATOM      7  C   UNL     1       1.545   3.877  18.640  0.00  0.00    +0.000 A 
ATOM      8  C   UNL     1       0.947   2.834  19.351  0.00  0.00    +0.000 A 
ATOM      9  C   UNL     1       1.153   2.713  20.724  0.00  0.00    +0.000 A 
ATOM     10  C   UNL     1       1.937   3.649  21.395  0.00  0.00    +0.000 A 
ATOM     11  C   UNL     1       2.545   4.688  20.689  0.00  0.00    +0.000 A 
ENDBRANCH   5   6
BRANCH   1  12
ATOM     12  C   UNL     1       5.130   4.571  17.795  0.00  0.00    +0.000 C 
BRANCH  12  18
ATOM     13  O   UNL     1       7.934   4.527  17.009  0.00  0.00    +0.000 OA
ATOM     14  C   UNL     1       7.029   4.514  16.189  0.00  0.00    +0.000 C 
ATOM     15  C   UNL     1       7.195   4.615  14.696  0.00  0.00    +0.000 C 
ATOM     16  C   UNL     1       5.848   4.127  14.171  0.00  0.00    +0.000 C 
ATOM     17  C   UNL     1       4.871   4.523  15.261  0.00  0.00    +0.000 C 
ATOM     18  N   UNL     1       5.672   4.442  16.457  0.00  0.00    +0.000 N 
ENDBRANCH  12  18
ENDBRANCH   1  12
TORSDOF 3
ENDMDL
MODEL 3
REMARK VINA RESULT:      -7.2      2.349      3.230
REMARK  Name = 
REMARK  3 active torsions:
REMARK  status: ('A' for Active; 'I' for Inactive)
REMARK    1  A    between atoms: N_6  and  C_7
REMARK    2  A    between atoms: C_7  and  C_8
REMARK    3  A    between atoms: N_12  and  C_13
REMARK                            x       y       z     vdW  Elec       q    Type
REMARK                         _______ _______ _______ _____ _____    ______ ____
ROOT
ATOM      1  C   UNL     1       4.279   5.707  17.951  0.00  0.00    +0.000 A 
ATOM      2  N   UNL     1       4.514   6.909  17.444  0.00  0.00    +0.000 NA
ATOM      3  C   UNL     1       3.361   7.585  17.688  0.00  0.00    +0.000 A 
ATOM      4  N   UNL     1       2.409   6.887  18.300  0.00  0.00    +0.000 NA
ATOM      5  N   UNL     1       3.038   5.715  18.579  0.00  0.00    +0.000 N 
ENDROOT
BRANCH   5   6
ATOM      6  C   UNL     1       2.398   4.713  19.351  0.00  0.00    +0.000 A 
ATOM      7  C   UNL     1       2.716   4.591  20.711  0.00  0.00    +0.000 A 
ATOM      8  C   UNL     1       2.046   3.657  21.504  0.00  0.00    +0.000 A 
ATOM      9  C   UNL     1       1.084   2.820  20.940  0.00  0.00    +0.000 A 
ATOM     10  C   UNL     1       0.806   2.897  19.577  0.00  0.00    +0.000 A 
ATOM     11  C   UNL     1       1.465   3.836  18.781  0.00  0.00    +0.000 A 
ENDBRANCH   5   6
BRANCH   1  12
ATOM     12  C   UNL     1       5.088   4.465  17.749  0.00  0.00    +0.000 C 
BRANCH  12  18
ATOM     13  O   UNL     1       7.907   4.649  17.041  0.00  0.00    +0.000 OA
ATOM     14  C   UNL     1       7.029   4.570  16.197  0.00  0.00    +0.000 C 
ATOM     15  C   UNL     1       7.228   4.694  14.710  0.00  0.00    +0.000 C 
ATOM     16  C   UNL     1       5.939   4.105  14.145  0.00  0.00    +0.000 C 
ATOM     17  C   UNL     1       4.904   4.416  15.210  0.00  0.00    +0.000 C 
ATOM     18  N   UNL     1       5.675   4.389  16.426  0.00  0.00    +0.000 N 
ENDBRANCH  12  18
ENDBRANCH   1  12
TORSDOF 3
ENDMDL
MODEL 4
REMARK VINA RESULT:      -7.2      3.014      4.600
REMARK  Name = 
REMARK  3 active torsions:
REMARK  status: ('A' for Active; 'I' for Inactive)
REMARK    1  A    between atoms: N_6  and  C_7
REMARK    2  A    between atoms: C_7  and  C_8
REMARK    3  A    between atoms: N_12  and  C_13
REMARK                            x       y       z     vdW  Elec       q    Type
REMARK                         _______ _______ _______ _____ _____    ______ ____
ROOT
ATOM      1  C   UNL     1       3.903   3.528  18.438  0.00  0.00    +0.000 A 
ATOM      2  N   UNL     1       3.708   2.388  17.790  0.00  0.00    +0.000 NA
ATOM      3  C   UNL     1       2.373   2.391  17.539  0.00  0.00    +0.000 A 
ATOM      4  N   UNL     1       1.710   3.448  17.999  0.00  0.00    +0.000 NA
ATOM      5  N   UNL     1       2.709   4.239  18.471  0.00  0.00    +0.000 N 
ENDROOT
BRANCH   5   6
ATOM      6  C   UNL     1       2.435   5.545  18.952  0.00  0.00    +0.000 A 
ATOM      7  C   UNL     1       2.621   6.640  18.095  0.00  0.00    +0.000 A 
ATOM      8  C   UNL     1       2.291   7.927  18.526  0.00  0.00    +0.000 A 
ATOM      9  C   UNL     1       1.810   8.132  19.818  0.00  0.00    +0.000 A 
ATOM     10  C   UNL     1       1.680   7.055  20.692  0.00  0.00    +0.000 A 
ATOM     11  C   UNL     1       1.998   5.765  20.264  0.00  0.00    +0.000 A 
ENDBRANCH   5   6
BRANCH   1  12
ATOM     12  C   UNL     1       5.127   3.944  19.190  0.00  0.00    +0.000 C 
BRANCH  12  18
ATOM     13  O   UNL     1       7.414   5.487  20.125  0.00  0.00    +0.000 OA
ATOM     14  C   UNL     1       7.018   5.545  18.971  0.00  0.00    +0.000 C 
ATOM     15  C   UNL     1       7.529   6.489  17.915  0.00  0.00    +0.000 C 
ATOM     16  C   UNL     1       7.022   5.857  16.622  0.00  0.00    +0.000 C 
ATOM     17  C   UNL     1       5.739   5.163  17.039  0.00  0.00    +0.000 C 
ATOM     18  N   UNL     1       6.004   4.790  18.406  0.00  0.00    +0.000 N 
ENDBRANCH  12  18
ENDBRANCH   1  12
TORSDOF 3
ENDMDL
MODEL 5
REMARK VINA RESULT:      -7.1      2.554      4.124
REMARK  Name = 
REMARK  3 active torsions:
REMARK  status: ('A' for Active; 'I' for Inactive)
REMARK    1  A    between atoms: N_6  and  C_7
REMARK    2  A    between atoms: C_7  and  C_8
REMARK    3  A    between atoms: N_12  and  C_13
REMARK                            x       y       z     vdW  Elec       q    Type
REMARK                         _______ _______ _______ _____ _____    ______ ____
ROOT
ATOM      1  C   UNL     1       3.719   3.461  18.743  0.00  0.00    +0.000 A 
ATOM      2  N   UNL     1       3.415   2.181  18.580  0.00  0.00    +0.000 NA
ATOM      3  C   UNL     1       2.096   2.126  18.899  0.00  0.00    +0.000 A 
ATOM      4  N   UNL     1       1.550   3.281  19.268  0.00  0.00    +0.000 NA
ATOM      5  N   UNL     1       2.560   4.164  19.053  0.00  0.00    +0.000 N 
ENDROOT
BRANCH   5   6
ATOM      6  C   UNL     1       2.352   5.558  19.213  0.00  0.00    +0.000 A 
ATOM      7  C   UNL     1       2.567   6.410  18.120  0.00  0.00    +0.000 A 
ATOM      8  C   UNL     1       2.301   7.776  18.236  0.00  0.00    +0.000 A 
ATOM      9  C   UNL     1       1.854   8.302  19.447  0.00  0.00    +0.000 A 
ATOM     10  C   UNL     1       1.695   7.469  20.553  0.00  0.00    +0.000 A 
ATOM     11  C   UNL     1       1.950   6.101  20.439  0.00  0.00    +0.000 A 
ENDBRANCH   5   6
BRANCH   1  12
ATOM     12  C   UNL     1       5.084   4.069  18.787  0.00  0.00    +0.000 C 
BRANCH  12  18
ATOM     13  O   UNL     1       7.891   4.510  18.147  0.00  0.00    +0.000 OA
ATOM     14  C   UNL     1       7.026   4.480  17.287  0.00  0.00    +0.000 C 
ATOM     15  C   UNL     1       7.227   4.795  15.828  0.00  0.00    +0.000 C 
ATOM     16  C   UNL     1       5.981   4.201  15.178  0.00  0.00    +0.000 C 
ATOM     17  C   UNL     1       4.922   4.316  16.257  0.00  0.00    +0.000 C 
ATOM     18  N   UNL     1       5.684   4.190  17.473  0.00  0.00    +0.000 N 
ENDBRANCH  12  18
ENDBRANCH   1  12
TORSDOF 3
ENDMDL
MODEL 6
REMARK VINA RESULT:      -7.0      2.046      5.268
REMARK  Name = 
REMARK  3 active torsions:
REMARK  status: ('A' for Active; 'I' for Inactive)
REMARK    1  A    between atoms: N_6  and  C_7
REMARK    2  A    between atoms: C_7  and  C_8
REMARK    3  A    between atoms: N_12  and  C_13
REMARK                            x       y       z     vdW  Elec       q    Type
REMARK                         _______ _______ _______ _____ _____    ______ ____
ROOT
ATOM      1  C   UNL     1       6.160   5.653  17.013  0.00  0.00    +0.000 A 
ATOM      2  N   UNL     1       6.688   5.684  18.229  0.00  0.00    +0.000 NA
ATOM      3  C   UNL     1       7.766   4.865  18.126  0.00  0.00    +0.000 A 
ATOM      4  N   UNL     1       7.946   4.306  16.932  0.00  0.00    +0.000 NA
ATOM      5  N   UNL     1       6.985   4.905  16.181  0.00  0.00    +0.000 N 
ENDROOT
BRANCH   5   6
ATOM      6  C   UNL     1       6.906   4.673  14.784  0.00  0.00    +0.000 A 
ATOM      7  C   UNL     1       7.741   5.399  13.923  0.00  0.00    +0.000 A 
ATOM      8  C   UNL     1       7.729   5.136  12.551  0.00  0.00    +0.000 A 
ATOM      9  C   UNL     1       6.863   4.176  12.030  0.00  0.00    +0.000 A 
ATOM     10  C   UNL     1       5.990   3.494  12.874  0.00  0.00    +0.000 A 
ATOM     11  C   UNL     1       6.005   3.745  14.247  0.00  0.00    +0.000 A 
ENDBRANCH   5   6
BRANCH   1  12
ATOM     12  C   UNL     1       4.816   6.159  16.597  0.00  0.00    +0.000 C 
BRANCH  12  18
ATOM     13  O   UNL     1       2.836   7.210  18.456  0.00  0.00    +0.000 OA
ATOM     14  C   UNL     1       2.889   6.026  18.165  0.00  0.00    +0.000 C 
ATOM     15  C   UNL     1       2.074   4.928  18.797  0.00  0.00    +0.000 C 
ATOM     16  C   UNL     1       2.218   3.782  17.801  0.00  0.00    +0.000 C 
ATOM     17  C   UNL     1       3.587   4.008  17.187  0.00  0.00    +0.000 C 
ATOM     18  N   UNL     1       3.728   5.441  17.231  0.00  0.00    +0.000 N 
ENDBRANCH  12  18
ENDBRANCH   1  12
TORSDOF 3
ENDMDL
MODEL 7
REMARK VINA RESULT:      -7.0      3.161      5.557
REMARK  Name = 
REMARK  3 active torsions:
REMARK  status: ('A' for Active; 'I' for Inactive)
REMARK    1  A    between atoms: N_6  and  C_7
REMARK    2  A    between atoms: C_7  and  C_8
REMARK    3  A    between atoms: N_12  and  C_13
REMARK                            x       y       z     vdW  Elec       q    Type
REMARK                         _______ _______ _______ _____ _____    ______ ____
ROOT
ATOM      1  C   UNL     1       3.032   6.283  18.990  0.00  0.00    +0.000 A 
ATOM      2  N   UNL     1       2.102   7.224  19.083  0.00  0.00    +0.000 NA
ATOM      3  C   UNL     1       2.486   8.140  18.156  0.00  0.00    +0.000 A 
ATOM      4  N   UNL     1       3.603   7.848  17.496  0.00  0.00    +0.000 NA
ATOM      5  N   UNL     1       3.891   6.598  17.943  0.00  0.00    +0.000 N 
ENDROOT
BRANCH   5   6
ATOM      6  C   UNL     1       4.966   5.858  17.388  0.00  0.00    +0.000 A 
ATOM      7  C   UNL     1       6.253   6.020  17.920  0.00  0.00    +0.000 A 
ATOM      8  C   UNL     1       7.312   5.249  17.435  0.00  0.00    +0.000 A 
ATOM      9  C   UNL     1       7.100   4.342  16.398  0.00  0.00    +0.000 A 
ATOM     10  C   UNL     1       5.835   4.219  15.827  0.00  0.00    +0.000 A 
ATOM     11  C   UNL     1       4.771   4.979  16.315  0.00  0.00    +0.000 A 
ENDBRANCH   5   6
BRANCH   1  12
ATOM     12  C   UNL     1       3.275   5.154  19.940  0.00  0.00    +0.000 C 
BRANCH  12  18
ATOM     13  O   UNL     1       5.091   2.886  19.741  0.00  0.00    +0.000 OA
ATOM     14  C   UNL     1       3.980   2.875  19.236  0.00  0.00    +0.000 C 
ATOM     15  C   UNL     1       3.434   1.794  18.340  0.00  0.00    +0.000 C 
ATOM     16  C   UNL     1       1.932   2.064  18.360  0.00  0.00    +0.000 C 
ATOM     17  C   UNL     1       1.838   3.564  18.563  0.00  0.00    +0.000 C 
ATOM     18  N   UNL     1       3.011   3.858  19.347  0.00  0.00    +0.000 N 
ENDBRANCH  12  18
ENDBRANCH   1  12
TORSDOF 3
ENDMDL
MODEL 8
REMARK VINA RESULT:      -7.0      3.164      5.665
REMARK  Name = 
REMARK  3 active torsions:
REMARK  status: ('A' for Active; 'I' for Inactive)
REMARK    1  A    between atoms: N_6  and  C_7
REMARK    2  A    between atoms: C_7  and  C_8
REMARK    3  A    between atoms: N_12  and  C_13
REMARK                            x       y       z     vdW  Elec       q    Type
REMARK                         _______ _______ _______ _____ _____    ______ ____
ROOT
ATOM      1  C   UNL     1       3.013   6.284  19.001  0.00  0.00    +0.000 A 
ATOM      2  N   UNL     1       2.091   7.234  19.051  0.00  0.00    +0.000 NA
ATOM      3  C   UNL     1       2.505   8.127  18.115  0.00  0.00    +0.000 A 
ATOM      4  N   UNL     1       3.635   7.812  17.488  0.00  0.00    +0.000 NA
ATOM      5  N   UNL     1       3.901   6.569  17.969  0.00  0.00    +0.000 N 
ENDROOT
BRANCH   5   6
ATOM      6  C   UNL     1       4.981   5.808  17.456  0.00  0.00    +0.000 A 
ATOM      7  C   UNL     1       4.756   4.945  16.374  0.00  0.00    +0.000 A 
ATOM      8  C   UNL     1       5.820   4.239  15.809  0.00  0.00    +0.000 A 
ATOM      9  C   UNL     1       7.103   4.363  16.340  0.00  0.00    +0.000 A 
ATOM     10  C   UNL     1       7.322   5.173  17.452  0.00  0.00    +0.000 A 
ATOM     11  C   UNL     1       6.263   5.890  18.014  0.00  0.00    +0.000 A 
ENDBRANCH   5   6
BRANCH   1  12
ATOM     12  C   UNL     1       3.224   5.173  19.980  0.00  0.00    +0.000 C 
BRANCH  12  18
ATOM     13  O   UNL     1       5.004   2.880  19.746  0.00  0.00    +0.000 OA
ATOM     14  C   UNL     1       3.873   2.874  19.288  0.00  0.00    +0.000 C 
ATOM     15  C   UNL     1       3.277   1.785  18.435  0.00  0.00    +0.000 C 
ATOM     16  C   UNL     1       1.781   2.073  18.513  0.00  0.00    +0.000 C 
ATOM     17  C   UNL     1       1.713   3.578  18.693  0.00  0.00    +0.000 C 
ATOM     18  N   UNL     1       2.920   3.871  19.422  0.00  0.00    +0.000 N 
ENDBRANCH  12  18
ENDBRANCH   1  12
TORSDOF 3
ENDMDL
MODEL 9
REMARK VINA RESULT:      -7.0      2.621      4.402
REMARK  Name = 
REMARK  3 active torsions:
REMARK  status: ('A' for Active; 'I' for Inactive)
REMARK    1  A    between atoms: N_6  and  C_7
REMARK    2  A    between atoms: C_7  and  C_8
REMARK    3  A    between atoms: N_12  and  C_13
REMARK                            x       y       z     vdW  Elec       q    Type
REMARK                         _______ _______ _______ _____ _____    ______ ____
ROOT
ATOM      1  C   UNL     1       3.540   6.327  17.847  0.00  0.00    +0.000 A 
ATOM      2  N   UNL     1       3.617   7.608  17.512  0.00  0.00    +0.000 NA
ATOM      3  C   UNL     1       2.554   8.165  18.149  0.00  0.00    +0.000 A 
ATOM      4  N   UNL     1       1.803   7.320  18.849  0.00  0.00    +0.000 NA
ATOM      5  N   UNL     1       2.503   6.159  18.757  0.00  0.00    +0.000 N 
ENDROOT
BRANCH   5   6
ATOM      6  C   UNL     1       2.098   5.008  19.480  0.00  0.00    +0.000 A 
ATOM      7  C   UNL     1       1.354   4.017  18.823  0.00  0.00    +0.000 A 
ATOM      8  C   UNL     1       1.006   2.844  19.497  0.00  0.00    +0.000 A 
ATOM      9  C   UNL     1       1.367   2.669  20.832  0.00  0.00    +0.000 A 
ATOM     10  C   UNL     1       2.055   3.676  21.505  0.00  0.00    +0.000 A 
ATOM     11  C   UNL     1       2.415   4.847  20.834  0.00  0.00    +0.000 A 
ENDBRANCH   5   6
BRANCH   1  12
ATOM     12  C   UNL     1       4.292   5.186  17.239  0.00  0.00    +0.000 C 
BRANCH  12  18
ATOM     13  O   UNL     1       6.558   4.167  15.720  0.00  0.00    +0.000 OA
ATOM     14  C   UNL     1       6.673   4.572  16.865  0.00  0.00    +0.000 C 
ATOM     15  C   UNL     1       7.920   4.486  17.706  0.00  0.00    +0.000 C 
ATOM     16  C   UNL     1       7.644   5.486  18.825  0.00  0.00    +0.000 C 
ATOM     17  C   UNL     1       6.135   5.452  18.976  0.00  0.00    +0.000 C 
ATOM     18  N   UNL     1       5.684   5.156  17.639  0.00  0.00    +0.000 N 
ENDBRANCH  12  18
ENDBRANCH   1  12
TORSDOF 3
ENDMDL
