MODEL 1
REMARK VINA RESULT:      -8.1      0.000      0.000
REMARK  Name = 
REMARK  4 active torsions:
REMARK  status: ('A' for Active; 'I' for Inactive)
REMARK    1  A    between atoms: C_2  and  C_4
REMARK    2  A    between atoms: C_8  and  O_9
REMARK    3  A    between atoms: O_9  and  C_10
REMARK    4  A    between atoms: C_10  and  C_11
REMARK                            x       y       z     vdW  Elec       q    Type
REMARK                         _______ _______ _______ _____ _____    ______ ____
ROOT
ATOM      1  C   UNL     1       6.478   4.400  13.922  0.00  0.00    +0.000 A 
ATOM      2  C   UNL     1       5.316   4.292  14.659  0.00  0.00    +0.000 A 
ATOM      3  C   UNL     1       5.530   4.912  15.911  0.00  0.00    +0.000 A 
ATOM      4  C   UNL     1       4.719   5.062  17.044  0.00  0.00    +0.000 A 
ATOM      5  C   UNL     1       5.248   5.655  18.191  0.00  0.00    +0.000 A 
ATOM      6  C   UNL     1       6.535   6.194  18.170  0.00  0.00    +0.000 A 
ATOM      7  C   UNL     1       7.351   6.087  17.033  0.00  0.00    +0.000 A 
ATOM      8  C   UNL     1       6.825   5.414  15.924  0.00  0.00    +0.000 A 
ATOM      9  N   UNL     1       7.378   5.100  14.703  0.00  0.00    +0.000 N 
ATOM     10  H   UNL     1       8.322   5.320  14.413  0.00  0.00    +0.000 HD
ENDROOT
BRANCH   1  12
ATOM     11  N   UNL     1       6.325   2.672  12.306  0.00  0.00    +0.000 N 
ATOM     12  C   UNL     1       6.805   3.910  12.610  0.00  0.00    +0.000 C 
ATOM     13  O   UNL     1       7.468   4.544  11.796  0.00  0.00    +0.000 OA
ATOM     14  H   UNL     1       6.510   2.307  11.383  0.00  0.00    +0.000 HD
ATOM     15  H   UNL     1       5.704   2.161  12.913  0.00  0.00    +0.000 HD
ENDBRANCH   1  12
BRANCH   5  16
ATOM     16  O   UNL     1       4.571   5.733  19.381  0.00  0.00    +0.000 OA
BRANCH  16  17
ATOM     17  C   UNL     1       3.172   5.996  19.237  0.00  0.00    +0.000 C 
BRANCH  17  18
ATOM     18  C   UNL     1       2.396   4.793  19.691  0.00  0.00    +0.000 A 
ATOM     19  C   UNL     1       1.654   4.036  18.779  0.00  0.00    +0.000 A 
ATOM     20  C   UNL     1       0.928   2.928  19.215  0.00  0.00    +0.000 A 
ATOM     21  C   UNL     1       0.939   2.574  20.564  0.00  0.00    +0.000 A 
ATOM     22  C   UNL     1       1.673   3.324  21.480  0.00  0.00    +0.000 A 
ATOM     23  C   UNL     1       2.398   4.432  21.046  0.00  0.00    +0.000 A 
ENDBRANCH  17  18
ENDBRANCH  16  17
ENDBRANCH   5  16
TORSDOF 4
ENDMDL
MODEL 2
REMARK VINA RESULT:      -8.1      0.211      1.095
REMARK  Name = 
REMARK  4 active torsions:
REMARK  status: ('A' for Active; 'I' for Inactive)
REMARK    1  A    between atoms: C_2  and  C_4
REMARK    2  A    between atoms: C_8  and  O_9
REMARK    3  A    between atoms: O_9  and  C_10
REMARK    4  A    between atoms: C_10  and  C_11
REMARK                            x       y       z     vdW  Elec       q    Type
REMARK                         _______ _______ _______ _____ _____    ______ ____
ROOT
ATOM      1  C   UNL     1       6.493   4.371  13.914  0.00  0.00    +0.000 A 
ATOM      2  C   UNL     1       5.379   4.149  14.697  0.00  0.00    +0.000 A 
ATOM      3  C   UNL     1       5.583   4.787  15.942  0.00  0.00    +0.000 A 
ATOM      4  C   UNL     1       4.808   4.857  17.107  0.00  0.00    +0.000 A 
ATOM      5  C   UNL     1       5.323   5.499  18.234  0.00  0.00    +0.000 A 
ATOM      6  C   UNL     1       6.549   6.161  18.163  0.00  0.00    +0.000 A 
ATOM      7  C   UNL     1       7.325   6.135  16.993  0.00  0.00    +0.000 A 
ATOM      8  C   UNL     1       6.822   5.413  15.904  0.00  0.00    +0.000 A 
ATOM      9  N   UNL     1       7.353   5.155  14.660  0.00  0.00    +0.000 N 
ATOM     10  H   UNL     1       8.258   5.466  14.333  0.00  0.00    +0.000 HD
ENDROOT
BRANCH   1  12
ATOM     11  N   UNL     1       6.332   2.685  12.254  0.00  0.00    +0.000 N 
ATOM     12  C   UNL     1       6.814   3.915  12.587  0.00  0.00    +0.000 C 
ATOM     13  O   UNL     1       7.471   4.571  11.786  0.00  0.00    +0.000 OA
ATOM     14  H   UNL     1       6.511   2.345  11.320  0.00  0.00    +0.000 HD
ATOM     15  H   UNL     1       5.715   2.158  12.851  0.00  0.00    +0.000 HD
ENDBRANCH   1  12
BRANCH   5  16
ATOM     16  O   UNL     1       4.691   5.510  19.451  0.00  0.00    +0.000 OA
BRANCH  16  17
ATOM     17  C   UNL     1       3.331   5.951  19.395  0.00  0.00    +0.000 C 
BRANCH  17  18
ATOM     18  C   UNL     1       2.424   4.785  19.669  0.00  0.00    +0.000 A 
ATOM     19  C   UNL     1       2.229   4.324  20.975  0.00  0.00    +0.000 A 
ATOM     20  C   UNL     1       1.393   3.234  21.214  0.00  0.00    +0.000 A 
ATOM     21  C   UNL     1       0.753   2.598  20.150  0.00  0.00    +0.000 A 
ATOM     22  C   UNL     1       0.945   3.050  18.846  0.00  0.00    +0.000 A 
ATOM     23  C   UNL     1       1.780   4.139  18.606  0.00  0.00    +0.000 A 
ENDBRANCH  17  18
ENDBRANCH  16  17
ENDBRANCH   5  16
TORSDOF 4
ENDMDL
MODEL 3
REMARK VINA RESULT:      -8.0      1.003      1.501
REMARK  Name = 
REMARK  4 active torsions:
REMARK  status: ('A' for Active; 'I' for Inactive)
REMARK    1  A    between atoms: C_2  and  C_4
REMARK    2  A    between atoms: C_8  and  O_9
REMARK    3  A    between atoms: O_9  and  C_10
REMARK    4  A    between atoms: C_10  and  C_11
REMARK                            x       y       z     vdW  Elec       q    Type
REMARK                         _______ _______ _______ _____ _____    ______ ____
ROOT
ATOM      1  C   UNL     1       6.657   4.950  14.650  0.00  0.00    +0.000 A 
ATOM      2  C   UNL     1       5.517   5.608  15.062  0.00  0.00    +0.000 A 
ATOM      3  C   UNL     1       5.485   5.591  16.475  0.00  0.00    +0.000 A 
ATOM      4  C   UNL     1       4.555   6.071  17.407  0.00  0.00    +0.000 A 
ATOM      5  C   UNL     1       4.755   5.820  18.765  0.00  0.00    +0.000 A 
ATOM      6  C   UNL     1       5.927   5.198  19.197  0.00  0.00    +0.000 A 
ATOM      7  C   UNL     1       6.889   4.743  18.282  0.00  0.00    +0.000 A 
ATOM      8  C   UNL     1       6.623   4.933  16.921  0.00  0.00    +0.000 A 
ATOM      9  N   UNL     1       7.325   4.561  15.796  0.00  0.00    +0.000 N 
ATOM     10  H   UNL     1       8.198   4.048  15.792  0.00  0.00    +0.000 HD
ENDROOT
BRANCH   1  12
ATOM     11  N   UNL     1       6.659   3.514  12.763  0.00  0.00    +0.000 N 
ATOM     12  C   UNL     1       7.145   4.655  13.330  0.00  0.00    +0.000 C 
ATOM     13  O   UNL     1       7.942   5.366  12.727  0.00  0.00    +0.000 OA
ATOM     14  H   UNL     1       6.956   3.290  11.824  0.00  0.00    +0.000 HD
ATOM     15  H   UNL     1       5.938   2.955  13.190  0.00  0.00    +0.000 HD
ENDBRANCH   1  12
BRANCH   5  16
ATOM     16  O   UNL     1       3.840   6.142  19.735  0.00  0.00    +0.000 OA
BRANCH  16  17
ATOM     17  C   UNL     1       2.484   6.129  19.281  0.00  0.00    +0.000 C 
BRANCH  17  18
ATOM     18  C   UNL     1       1.914   4.752  19.472  0.00  0.00    +0.000 A 
ATOM     19  C   UNL     1       1.747   4.220  20.755  0.00  0.00    +0.000 A 
ATOM     20  C   UNL     1       1.228   2.936  20.918  0.00  0.00    +0.000 A 
ATOM     21  C   UNL     1       0.878   2.178  19.801  0.00  0.00    +0.000 A 
ATOM     22  C   UNL     1       1.044   2.699  18.520  0.00  0.00    +0.000 A 
ATOM     23  C   UNL     1       1.564   3.982  18.355  0.00  0.00    +0.000 A 
ENDBRANCH  17  18
ENDBRANCH  16  17
ENDBRANCH   5  16
TORSDOF 4
ENDMDL
MODEL 4
REMARK VINA RESULT:      -7.8      0.992      1.067
REMARK  Name = 
REMARK  4 active torsions:
REMARK  status: ('A' for Active; 'I' for Inactive)
REMARK    1  A    between atoms: C_2  and  C_4
REMARK    2  A    between atoms: C_8  and  O_9
REMARK    3  A    between atoms: O_9  and  C_10
REMARK    4  A    between atoms: C_10  and  C_11
REMARK                            x       y       z     vdW  Elec       q    Type
REMARK                         _______ _______ _______ _____ _____    ______ ____
ROOT
ATOM      1  C   UNL     1       6.612   4.324  13.729  0.00  0.00    +0.000 A 
ATOM      2  C   UNL     1       5.616   3.861  14.564  0.00  0.00    +0.000 A 
ATOM      3  C   UNL     1       5.780   4.475  15.827  0.00  0.00    +0.000 A 
ATOM      4  C   UNL     1       5.086   4.348  17.037  0.00  0.00    +0.000 A 
ATOM      5  C   UNL     1       5.547   5.030  18.164  0.00  0.00    +0.000 A 
ATOM      6  C   UNL     1       6.618   5.917  18.056  0.00  0.00    +0.000 A 
ATOM      7  C   UNL     1       7.303   6.088  16.843  0.00  0.00    +0.000 A 
ATOM      8  C   UNL     1       6.872   5.328  15.749  0.00  0.00    +0.000 A 
ATOM      9  N   UNL     1       7.357   5.227  14.464  0.00  0.00    +0.000 N 
ATOM     10  H   UNL     1       8.163   5.719  14.100  0.00  0.00    +0.000 HD
ENDROOT
BRANCH   1  12
ATOM     11  N   UNL     1       6.598   2.727  11.976  0.00  0.00    +0.000 N 
ATOM     12  C   UNL     1       6.922   3.992  12.364  0.00  0.00    +0.000 C 
ATOM     13  O   UNL     1       7.440   4.777  11.577  0.00  0.00    +0.000 OA
ATOM     14  H   UNL     1       6.772   2.468  11.016  0.00  0.00    +0.000 HD
ATOM     15  H   UNL     1       6.091   2.086  12.566  0.00  0.00    +0.000 HD
ENDBRANCH   1  12
BRANCH   5  16
ATOM     16  O   UNL     1       5.008   4.870  19.416  0.00  0.00    +0.000 OA
BRANCH  16  17
ATOM     17  C   UNL     1       4.690   3.515  19.742  0.00  0.00    +0.000 C 
BRANCH  17  18
ATOM     18  C   UNL     1       3.197   3.345  19.739  0.00  0.00    +0.000 A 
ATOM     19  C   UNL     1       2.594   2.337  18.979  0.00  0.00    +0.000 A 
ATOM     20  C   UNL     1       1.207   2.198  18.976  0.00  0.00    +0.000 A 
ATOM     21  C   UNL     1       0.417   3.066  19.729  0.00  0.00    +0.000 A 
ATOM     22  C   UNL     1       1.009   4.074  20.486  0.00  0.00    +0.000 A 
ATOM     23  C   UNL     1       2.395   4.215  20.490  0.00  0.00    +0.000 A 
ENDBRANCH  17  18
ENDBRANCH  16  17
ENDBRANCH   5  16
TORSDOF 4
ENDMDL
MODEL 5
REMARK VINA RESULT:      -7.7      1.362      1.788
REMARK  Name = 
REMARK  4 active torsions:
REMARK  status: ('A' for Active; 'I' for Inactive)
REMARK    1  A    between atoms: C_2  and  C_4
REMARK    2  A    between atoms: C_8  and  O_9
REMARK    3  A    between atoms: O_9  and  C_10
REMARK    4  A    between atoms: C_10  and  C_11
REMARK                            x       y       z     vdW  Elec       q    Type
REMARK                         _______ _______ _______ _____ _____    ______ ____
ROOT
ATOM      1  C   UNL     1       6.973   4.851  14.209  0.00  0.00    +0.000 A 
ATOM      2  C   UNL     1       6.044   4.083  14.882  0.00  0.00    +0.000 A 
ATOM      3  C   UNL     1       6.106   4.421  16.254  0.00  0.00    +0.000 A 
ATOM      4  C   UNL     1       5.425   3.936  17.379  0.00  0.00    +0.000 A 
ATOM      5  C   UNL     1       5.772   4.411  18.645  0.00  0.00    +0.000 A 
ATOM      6  C   UNL     1       6.706   5.439  18.776  0.00  0.00    +0.000 A 
ATOM      7  C   UNL     1       7.372   5.964  17.657  0.00  0.00    +0.000 A 
ATOM      8  C   UNL     1       7.066   5.412  16.408  0.00  0.00    +0.000 A 
ATOM      9  N   UNL     1       7.573   5.664  15.153  0.00  0.00    +0.000 N 
ATOM     10  H   UNL     1       8.303   6.330  14.938  0.00  0.00    +0.000 HD
ENDROOT
BRANCH   1  12
ATOM     11  N   UNL     1       6.847   3.853  12.062  0.00  0.00    +0.000 N 
ATOM     12  C   UNL     1       7.340   4.873  12.819  0.00  0.00    +0.000 C 
ATOM     13  O   UNL     1       8.046   5.743  12.319  0.00  0.00    +0.000 OA
ATOM     14  H   UNL     1       7.059   3.853  11.075  0.00  0.00    +0.000 HD
ATOM     15  H   UNL     1       6.193   3.174  12.417  0.00  0.00    +0.000 HD
ENDBRANCH   1  12
BRANCH   5  16
ATOM     16  O   UNL     1       5.249   3.907  19.809  0.00  0.00    +0.000 OA
BRANCH  16  17
ATOM     17  C   UNL     1       4.647   2.618  19.665  0.00  0.00    +0.000 C 
BRANCH  17  18
ATOM     18  C   UNL     1       3.162   2.744  19.850  0.00  0.00    +0.000 A 
ATOM     19  C   UNL     1       2.600   2.758  21.131  0.00  0.00    +0.000 A 
ATOM     20  C   UNL     1       1.219   2.865  21.288  0.00  0.00    +0.000 A 
ATOM     21  C   UNL     1       0.394   2.955  20.167  0.00  0.00    +0.000 A 
ATOM     22  C   UNL     1       0.945   2.940  18.888  0.00  0.00    +0.000 A 
ATOM     23  C   UNL     1       2.325   2.832  18.729  0.00  0.00    +0.000 A 
ENDBRANCH  17  18
ENDBRANCH  16  17
ENDBRANCH   5  16
TORSDOF 4
ENDMDL
MODEL 6
REMARK VINA RESULT:      -7.7      1.646      2.604
REMARK  Name = 
REMARK  4 active torsions:
REMARK  status: ('A' for Active; 'I' for Inactive)
REMARK    1  A    between atoms: C_2  and  C_4
REMARK    2  A    between atoms: C_8  and  O_9
REMARK    3  A    between atoms: O_9  and  C_10
REMARK    4  A    between atoms: C_10  and  C_11
REMARK                            x       y       z     vdW  Elec       q    Type
REMARK                         _______ _______ _______ _____ _____    ______ ____
ROOT
ATOM      1  C   UNL     1       6.984   4.853  14.174  0.00  0.00    +0.000 A 
ATOM      2  C   UNL     1       5.772   4.255  14.454  0.00  0.00    +0.000 A 
ATOM      3  C   UNL     1       5.571   4.303  15.853  0.00  0.00    +0.000 A 
ATOM      4  C   UNL     1       4.547   3.821  16.679  0.00  0.00    +0.000 A 
ATOM      5  C   UNL     1       4.671   3.940  18.063  0.00  0.00    +0.000 A 
ATOM      6  C   UNL     1       5.751   4.634  18.612  0.00  0.00    +0.000 A 
ATOM      7  C   UNL     1       6.769   5.157  17.800  0.00  0.00    +0.000 A 
ATOM      8  C   UNL     1       6.661   4.950  16.420  0.00  0.00    +0.000 A 
ATOM      9  N   UNL     1       7.502   5.283  15.381  0.00  0.00    +0.000 N 
ATOM     10  H   UNL     1       8.393   5.754  15.475  0.00  0.00    +0.000 HD
ENDROOT
BRANCH   1  12
ATOM     11  N   UNL     1       8.711   5.917  12.946  0.00  0.00    +0.000 N 
ATOM     12  C   UNL     1       7.675   5.033  12.925  0.00  0.00    +0.000 C 
ATOM     13  O   UNL     1       7.376   4.440  11.894  0.00  0.00    +0.000 OA
ATOM     14  H   UNL     1       9.239   6.046  12.095  0.00  0.00    +0.000 HD
ATOM     15  H   UNL     1       9.042   6.353  13.792  0.00  0.00    +0.000 HD
ENDBRANCH   1  12
BRANCH   5  16
ATOM     16  O   UNL     1       3.782   3.391  18.951  0.00  0.00    +0.000 OA
BRANCH  16  17
ATOM     17  C   UNL     1       2.425   3.789  18.735  0.00  0.00    +0.000 C 
BRANCH  17  18
ATOM     18  C   UNL     1       2.261   5.223  19.148  0.00  0.00    +0.000 A 
ATOM     19  C   UNL     1       1.903   5.552  20.460  0.00  0.00    +0.000 A 
ATOM     20  C   UNL     1       1.743   6.888  20.827  0.00  0.00    +0.000 A 
ATOM     21  C   UNL     1       1.936   7.899  19.886  0.00  0.00    +0.000 A 
ATOM     22  C   UNL     1       2.290   7.579  18.577  0.00  0.00    +0.000 A 
ATOM     23  C   UNL     1       2.450   6.245  18.208  0.00  0.00    +0.000 A 
ENDBRANCH  17  18
ENDBRANCH  16  17
ENDBRANCH   5  16
TORSDOF 4
ENDMDL
MODEL 7
REMARK VINA RESULT:      -7.7      3.136      7.168
REMARK  Name = 
REMARK  4 active torsions:
REMARK  status: ('A' for Active; 'I' for Inactive)
REMARK    1  A    between atoms: C_2  and  C_4
REMARK    2  A    between atoms: C_8  and  O_9
REMARK    3  A    between atoms: O_9  and  C_10
REMARK    4  A    between atoms: C_10  and  C_11
REMARK                            x       y       z     vdW  Elec       q    Type
REMARK                         _______ _______ _______ _____ _____    ______ ____
ROOT
ATOM      1  C   UNL     1       2.786   3.841  20.188  0.00  0.00    +0.000 A 
ATOM      2  C   UNL     1       4.022   3.625  19.615  0.00  0.00    +0.000 A 
ATOM      3  C   UNL     1       4.289   4.692  18.727  0.00  0.00    +0.000 A 
ATOM      4  C   UNL     1       5.363   4.963  17.868  0.00  0.00    +0.000 A 
ATOM      5  C   UNL     1       5.302   6.074  17.027  0.00  0.00    +0.000 A 
ATOM      6  C   UNL     1       4.235   6.968  17.123  0.00  0.00    +0.000 A 
ATOM      7  C   UNL     1       3.167   6.735  18.004  0.00  0.00    +0.000 A 
ATOM      8  C   UNL     1       3.213   5.568  18.777  0.00  0.00    +0.000 A 
ATOM      9  N   UNL     1       2.317   5.037  19.676  0.00  0.00    +0.000 N 
ATOM     10  H   UNL     1       1.421   5.440  19.920  0.00  0.00    +0.000 HD
ENDROOT
BRANCH   1  12
ATOM     11  N   UNL     1       0.712   2.882  20.824  0.00  0.00    +0.000 N 
ATOM     12  C   UNL     1       2.032   3.048  21.121  0.00  0.00    +0.000 C 
ATOM     13  O   UNL     1       2.519   2.537  22.124  0.00  0.00    +0.000 OA
ATOM     14  H   UNL     1       0.158   2.306  21.440  0.00  0.00    +0.000 HD
ATOM     15  H   UNL     1       0.299   3.209  19.965  0.00  0.00    +0.000 HD
ENDBRANCH   1  12
BRANCH   5  16
ATOM     16  O   UNL     1       6.245   6.348  16.069  0.00  0.00    +0.000 OA
BRANCH  16  17
ATOM     17  C   UNL     1       7.144   5.265  15.813  0.00  0.00    +0.000 C 
BRANCH  17  18
ATOM     18  C   UNL     1       6.873   4.715  14.442  0.00  0.00    +0.000 A 
ATOM     19  C   UNL     1       7.664   5.093  13.351  0.00  0.00    +0.000 A 
ATOM     20  C   UNL     1       7.395   4.583  12.082  0.00  0.00    +0.000 A 
ATOM     21  C   UNL     1       6.333   3.698  11.896  0.00  0.00    +0.000 A 
ATOM     22  C   UNL     1       5.539   3.319  12.975  0.00  0.00    +0.000 A 
ATOM     23  C   UNL     1       5.806   3.828  14.245  0.00  0.00    +0.000 A 
ENDBRANCH  17  18
ENDBRANCH  16  17
ENDBRANCH   5  16
TORSDOF 4
ENDMDL
MODEL 8
REMARK VINA RESULT:      -7.6      3.134      7.192
REMARK  Name = 
REMARK  4 active torsions:
REMARK  status: ('A' for Active; 'I' for Inactive)
REMARK    1  A    between atoms: C_2  and  C_4
REMARK    2  A    between atoms: C_8  and  O_9
REMARK    3  A    between atoms: O_9  and  C_10
REMARK    4  A    between atoms: C_10  and  C_11
REMARK                            x       y       z     vdW  Elec       q    Type
REMARK                         _______ _______ _______ _____ _____    ______ ____
ROOT
ATOM      1  C   UNL     1       2.874   3.888  20.259  0.00  0.00    +0.000 A 
ATOM      2  C   UNL     1       4.127   3.701  19.712  0.00  0.00    +0.000 A 
ATOM      3  C   UNL     1       4.383   4.770  18.823  0.00  0.00    +0.000 A 
ATOM      4  C   UNL     1       5.465   5.065  17.984  0.00  0.00    +0.000 A 
ATOM      5  C   UNL     1       5.392   6.170  17.135  0.00  0.00    +0.000 A 
ATOM      6  C   UNL     1       4.300   7.036  17.206  0.00  0.00    +0.000 A 
ATOM      7  C   UNL     1       3.222   6.780  18.068  0.00  0.00    +0.000 A 
ATOM      8  C   UNL     1       3.284   5.618  18.847  0.00  0.00    +0.000 A 
ATOM      9  N   UNL     1       2.384   5.068  19.732  0.00  0.00    +0.000 N 
ATOM     10  H   UNL     1       1.474   5.448  19.957  0.00  0.00    +0.000 HD
ENDROOT
BRANCH   1  12
ATOM     11  N   UNL     1       0.779   3.029  20.964  0.00  0.00    +0.000 N 
ATOM     12  C   UNL     1       2.123   3.079  21.182  0.00  0.00    +0.000 C 
ATOM     13  O   UNL     1       2.633   2.461  22.111  0.00  0.00    +0.000 OA
ATOM     14  H   UNL     1       0.224   2.446  21.574  0.00  0.00    +0.000 HD
ATOM     15  H   UNL     1       0.338   3.448  20.161  0.00  0.00    +0.000 HD
ENDBRANCH   1  12
BRANCH   5  16
ATOM     16  O   UNL     1       6.346   6.464  16.194  0.00  0.00    +0.000 OA
BRANCH  16  17
ATOM     17  C   UNL     1       7.260   5.393  15.941  0.00  0.00    +0.000 C 
BRANCH  17  18
ATOM     18  C   UNL     1       7.019   4.857  14.558  0.00  0.00    +0.000 A 
ATOM     19  C   UNL     1       6.003   3.924  14.321  0.00  0.00    +0.000 A 
ATOM     20  C   UNL     1       5.797   3.426  13.036  0.00  0.00    +0.000 A 
ATOM     21  C   UNL     1       6.606   3.855  11.983  0.00  0.00    +0.000 A 
ATOM     22  C   UNL     1       7.620   4.782  12.211  0.00  0.00    +0.000 A 
ATOM     23  C   UNL     1       7.828   5.280  13.496  0.00  0.00    +0.000 A 
ENDBRANCH  17  18
ENDBRANCH  16  17
ENDBRANCH   5  16
TORSDOF 4
ENDMDL
MODEL 9
REMARK VINA RESULT:      -7.6      1.557      2.656
REMARK  Name = 
REMARK  4 active torsions:
REMARK  status: ('A' for Active; 'I' for Inactive)
REMARK    1  A    between atoms: C_2  and  C_4
REMARK    2  A    between atoms: C_8  and  O_9
REMARK    3  A    between atoms: O_9  and  C_10
REMARK    4  A    between atoms: C_10  and  C_11
REMARK                            x       y       z     vdW  Elec       q    Type
REMARK                         _______ _______ _______ _____ _____    ______ ____
ROOT
ATOM      1  C   UNL     1       6.416   4.306  13.879  0.00  0.00    +0.000 A 
ATOM      2  C   UNL     1       5.293   4.100  14.655  0.00  0.00    +0.000 A 
ATOM      3  C   UNL     1       5.475   4.781  15.881  0.00  0.00    +0.000 A 
ATOM      4  C   UNL     1       4.684   4.882  17.033  0.00  0.00    +0.000 A 
ATOM      5  C   UNL     1       5.178   5.566  18.144  0.00  0.00    +0.000 A 
ATOM      6  C   UNL     1       6.399   6.237  18.067  0.00  0.00    +0.000 A 
ATOM      7  C   UNL     1       7.190   6.179  16.909  0.00  0.00    +0.000 A 
ATOM      8  C   UNL     1       6.708   5.417  15.838  0.00  0.00    +0.000 A 
ATOM      9  N   UNL     1       7.258   5.123  14.610  0.00  0.00    +0.000 N 
ATOM     10  H   UNL     1       8.164   5.432  14.284  0.00  0.00    +0.000 HD
ENDROOT
BRANCH   1  12
ATOM     11  N   UNL     1       6.241   2.591  12.251  0.00  0.00    +0.000 N 
ATOM     12  C   UNL     1       6.757   3.810  12.573  0.00  0.00    +0.000 C 
ATOM     13  O   UNL     1       7.462   4.424  11.778  0.00  0.00    +0.000 OA
ATOM     14  H   UNL     1       6.435   2.224  11.331  0.00  0.00    +0.000 HD
ATOM     15  H   UNL     1       5.588   2.100  12.840  0.00  0.00    +0.000 HD
ENDBRANCH   1  12
BRANCH   5  16
ATOM     16  O   UNL     1       4.530   5.611  19.352  0.00  0.00    +0.000 OA
BRANCH  16  17
ATOM     17  C   UNL     1       3.112   5.455  19.256  0.00  0.00    +0.000 C 
BRANCH  17  18
ATOM     18  C   UNL     1       2.467   6.812  19.251  0.00  0.00    +0.000 A 
ATOM     19  C   UNL     1       2.434   7.582  18.083  0.00  0.00    +0.000 A 
ATOM     20  C   UNL     1       1.842   8.844  18.095  0.00  0.00    +0.000 A 
ATOM     21  C   UNL     1       1.284   9.343  19.272  0.00  0.00    +0.000 A 
ATOM     22  C   UNL     1       1.315   8.584  20.439  0.00  0.00    +0.000 A 
ATOM     23  C   UNL     1       1.907   7.322  20.430  0.00  0.00    +0.000 A 
ENDBRANCH  17  18
ENDBRANCH  16  17
ENDBRANCH   5  16
TORSDOF 4
ENDMDL
