MODEL 1
REMARK VINA RESULT:      -9.1      0.000      0.000
REMARK  Name = 
REMARK  7 active torsions:
REMARK  status: ('A' for Active; 'I' for Inactive)
REMARK    1  A    between atoms: C_1  and  O_2
REMARK    2  A    between atoms: O_2  and  C_3
REMARK    3  A    between atoms: C_6  and  C_7
REMARK    4  A    between atoms: C_17  and  N_18
REMARK    5  A    between atoms: C_19  and  C_21
REMARK    6  A    between atoms: C_21  and  S_22
REMARK    7  A    between atoms: S_22  and  C_23
REMARK                            x       y       z     vdW  Elec       q    Type
REMARK                         _______ _______ _______ _____ _____    ______ ____
ROOT
ATOM      1  C   UNL     1       6.936   5.184  15.400  0.00  0.00    +0.000 A 
ATOM      2  C   UNL     1       6.296   3.944  15.241  0.00  0.00    +0.000 A 
ATOM      3  C   UNL     1       5.337   3.523  16.158  0.00  0.00    +0.000 A 
ATOM      4  C   UNL     1       4.974   4.337  17.233  0.00  0.00    +0.000 A 
ATOM      5  C   UNL     1       5.584   5.591  17.363  0.00  0.00    +0.000 A 
ATOM      6  C   UNL     1       6.561   6.035  16.462  0.00  0.00    +0.000 A 
ENDROOT
BRANCH   4   7
ATOM      7  C   UNL     1       3.952   3.885  18.165  0.00  0.00    +0.000 A 
ATOM      8  N   UNL     1       2.637   3.948  18.036  0.00  0.00    +0.000 NA
ATOM      9  C   UNL     1       2.174   3.469  19.232  0.00  0.00    +0.000 A 
ATOM     10  C   UNL     1       0.872   3.325  19.721  0.00  0.00    +0.000 A 
ATOM     11  C   UNL     1       0.705   2.833  21.020  0.00  0.00    +0.000 A 
ATOM     12  C   UNL     1       1.812   2.483  21.810  0.00  0.00    +0.000 A 
ATOM     13  C   UNL     1       3.121   2.605  21.330  0.00  0.00    +0.000 A 
ATOM     14  C   UNL     1       3.238   3.110  20.044  0.00  0.00    +0.000 A 
ATOM     15  O   UNL     1       4.385   3.364  19.358  0.00  0.00    +0.000 OA
ENDBRANCH   4   7
BRANCH   6  16
ATOM     16  N   UNL     1       7.147   7.321  16.578  0.00  0.00    +0.000 N 
ATOM     17  C   UNL     1       7.836   7.810  17.688  0.00  0.00    +0.000 C 
ATOM     18  O   UNL     1       8.193   7.143  18.657  0.00  0.00    +0.000 OA
ATOM     19  H   UNL     1       7.063   7.907  15.757  0.00  0.00    +0.000 HD
BRANCH  17  20
ATOM     20  C   UNL     1       8.229   9.277  17.606  0.00  0.00    +0.000 C 
BRANCH  20  21
ATOM     21  S   UNL     1       9.104   9.799  19.117  0.00  0.00    +0.000 S 
BRANCH  21  22
ATOM     22  C   UNL     1       9.913  11.325  18.632  0.00  0.00    +0.000 A 
ATOM     23  C   UNL     1       9.304  12.382  17.945  0.00  0.00    +0.000 A 
ATOM     24  C   UNL     1      10.027  13.542  17.634  0.00  0.00    +0.000 A 
ATOM     25  C   UNL     1      11.365  13.652  18.003  0.00  0.00    +0.000 A 
ATOM     26 CL   UNL     1      12.246  15.079  17.627  0.00  0.00    +0.000 Cl
ATOM     27  C   UNL     1      11.989  12.610  18.678  0.00  0.00    +0.000 A 
ATOM     28  C   UNL     1      11.265  11.452  18.988  0.00  0.00    +0.000 A 
ENDBRANCH  21  22
ENDBRANCH  20  21
ENDBRANCH  17  20
ENDBRANCH   6  16
BRANCH   1  30
ATOM     29  C   UNL     1       7.866   5.086  13.232  0.00  0.00    +0.000 C 
ATOM     30  O   UNL     1       7.939   5.616  14.560  0.00  0.00    +0.000 OA
ENDBRANCH   1  30
TORSDOF 6
ENDMDL
MODEL 2
REMARK VINA RESULT:      -8.7      5.254      7.666
REMARK  Name = 
REMARK  7 active torsions:
REMARK  status: ('A' for Active; 'I' for Inactive)
REMARK    1  A    between atoms: C_1  and  O_2
REMARK    2  A    between atoms: O_2  and  C_3
REMARK    3  A    between atoms: C_6  and  C_7
REMARK    4  A    between atoms: C_17  and  N_18
REMARK    5  A    between atoms: C_19  and  C_21
REMARK    6  A    between atoms: C_21  and  S_22
REMARK    7  A    between atoms: S_22  and  C_23
REMARK                            x       y       z     vdW  Elec       q    Type
REMARK                         _______ _______ _______ _____ _____    ______ ____
ROOT
ATOM      1  C   UNL     1       3.315   3.747  19.683  0.00  0.00    +0.000 A 
ATOM      2  C   UNL     1       2.125   3.828  20.422  0.00  0.00    +0.000 A 
ATOM      3  C   UNL     1       1.544   5.064  20.690  0.00  0.00    +0.000 A 
ATOM      4  C   UNL     1       2.118   6.241  20.202  0.00  0.00    +0.000 A 
ATOM      5  C   UNL     1       3.282   6.151  19.429  0.00  0.00    +0.000 A 
ATOM      6  C   UNL     1       3.894   4.921  19.155  0.00  0.00    +0.000 A 
ENDROOT
BRANCH   4   7
ATOM      7  C   UNL     1       1.478   7.519  20.475  0.00  0.00    +0.000 A 
ATOM      8  N   UNL     1       1.513   8.626  19.752  0.00  0.00    +0.000 NA
ATOM      9  C   UNL     1       0.824   9.530  20.515  0.00  0.00    +0.000 A 
ATOM     10  C   UNL     1       0.552  10.886  20.310  0.00  0.00    +0.000 A 
ATOM     11  C   UNL     1      -0.158  11.574  21.301  0.00  0.00    +0.000 A 
ATOM     12  C   UNL     1      -0.595  10.922  22.464  0.00  0.00    +0.000 A 
ATOM     13  C   UNL     1      -0.346   9.561  22.677  0.00  0.00    +0.000 A 
ATOM     14  C   UNL     1       0.373   8.924  21.676  0.00  0.00    +0.000 A 
ATOM     15  O   UNL     1       0.780   7.627  21.652  0.00  0.00    +0.000 OA
ENDBRANCH   4   7
BRANCH   6  16
ATOM     16  N   UNL     1       5.052   4.834  18.340  0.00  0.00    +0.000 N 
ATOM     17  C   UNL     1       6.370   4.987  18.770  0.00  0.00    +0.000 C 
ATOM     18  O   UNL     1       6.736   5.040  19.942  0.00  0.00    +0.000 OA
ATOM     19  H   UNL     1       4.876   4.618  17.368  0.00  0.00    +0.000 HD
BRANCH  17  20
ATOM     20  C   UNL     1       7.412   4.999  17.662  0.00  0.00    +0.000 C 
BRANCH  20  21
ATOM     21  S   UNL     1       6.966   6.199  16.366  0.00  0.00    +0.000 S 
BRANCH  21  22
ATOM     22  C   UNL     1       6.655   5.175  14.927  0.00  0.00    +0.000 A 
ATOM     23  C   UNL     1       7.496   5.066  13.813  0.00  0.00    +0.000 A 
ATOM     24  C   UNL     1       7.164   4.217  12.749  0.00  0.00    +0.000 A 
ATOM     25  C   UNL     1       5.987   3.472  12.788  0.00  0.00    +0.000 A 
ATOM     26 CL   UNL     1       5.588   2.425  11.485  0.00  0.00    +0.000 Cl
ATOM     27  C   UNL     1       5.136   3.574  13.882  0.00  0.00    +0.000 A 
ATOM     28  C   UNL     1       5.470   4.424  14.944  0.00  0.00    +0.000 A 
ENDBRANCH  21  22
ENDBRANCH  20  21
ENDBRANCH  17  20
ENDBRANCH   6  16
BRANCH   1  30
ATOM     29  C   UNL     1       3.247   1.643  18.612  0.00  0.00    +0.000 C 
ATOM     30  O   UNL     1       3.966   2.555  19.450  0.00  0.00    +0.000 OA
ENDBRANCH   1  30
TORSDOF 6
ENDMDL
MODEL 3
REMARK VINA RESULT:      -8.6      0.857      1.275
REMARK  Name = 
REMARK  7 active torsions:
REMARK  status: ('A' for Active; 'I' for Inactive)
REMARK    1  A    between atoms: C_1  and  O_2
REMARK    2  A    between atoms: O_2  and  C_3
REMARK    3  A    between atoms: C_6  and  C_7
REMARK    4  A    between atoms: C_17  and  N_18
REMARK    5  A    between atoms: C_19  and  C_21
REMARK    6  A    between atoms: C_21  and  S_22
REMARK    7  A    between atoms: S_22  and  C_23
REMARK                            x       y       z     vdW  Elec       q    Type
REMARK                         _______ _______ _______ _____ _____    ______ ____
ROOT
ATOM      1  C   UNL     1       6.906   5.241  15.542  0.00  0.00    +0.000 A 
ATOM      2  C   UNL     1       6.205   4.028  15.453  0.00  0.00    +0.000 A 
ATOM      3  C   UNL     1       5.344   3.635  16.474  0.00  0.00    +0.000 A 
ATOM      4  C   UNL     1       5.140   4.453  17.587  0.00  0.00    +0.000 A 
ATOM      5  C   UNL     1       5.809   5.682  17.651  0.00  0.00    +0.000 A 
ATOM      6  C   UNL     1       6.691   6.096  16.644  0.00  0.00    +0.000 A 
ENDROOT
BRANCH   4   7
ATOM      7  C   UNL     1       4.216   4.032  18.630  0.00  0.00    +0.000 A 
ATOM      8  N   UNL     1       4.486   3.407  19.763  0.00  0.00    +0.000 NA
ATOM      9  C   UNL     1       3.250   3.181  20.307  0.00  0.00    +0.000 A 
ATOM     10  C   UNL     1       2.870   2.524  21.482  0.00  0.00    +0.000 A 
ATOM     11  C   UNL     1       1.504   2.414  21.765  0.00  0.00    +0.000 A 
ATOM     12  C   UNL     1       0.539   2.956  20.901  0.00  0.00    +0.000 A 
ATOM     13  C   UNL     1       0.903   3.631  19.730  0.00  0.00    +0.000 A 
ATOM     14  C   UNL     1       2.266   3.702  19.484  0.00  0.00    +0.000 A 
ATOM     15  O   UNL     1       2.881   4.262  18.407  0.00  0.00    +0.000 OA
ENDBRANCH   4   7
BRANCH   6  16
ATOM     16  N   UNL     1       7.336   7.358  16.696  0.00  0.00    +0.000 N 
ATOM     17  C   UNL     1       8.013   7.887  17.795  0.00  0.00    +0.000 C 
ATOM     18  O   UNL     1       8.306   7.270  18.817  0.00  0.00    +0.000 OA
ATOM     19  H   UNL     1       7.307   7.891  15.837  0.00  0.00    +0.000 HD
BRANCH  17  20
ATOM     20  C   UNL     1       8.480   9.326  17.632  0.00  0.00    +0.000 C 
BRANCH  20  21
ATOM     21  S   UNL     1       9.108   9.987  19.209  0.00  0.00    +0.000 S 
BRANCH  21  22
ATOM     22  C   UNL     1       9.719  11.616  18.774  0.00  0.00    +0.000 A 
ATOM     23  C   UNL     1       9.395  12.805  19.436  0.00  0.00    +0.000 A 
ATOM     24  C   UNL     1       9.947  14.025  19.022  0.00  0.00    +0.000 A 
ATOM     25  C   UNL     1      10.825  14.066  17.941  0.00  0.00    +0.000 A 
ATOM     26 CL   UNL     1      11.506  15.562  17.442  0.00  0.00    +0.000 Cl
ATOM     27  C   UNL     1      11.151  12.895  17.266  0.00  0.00    +0.000 A 
ATOM     28  C   UNL     1      10.597  11.678  17.681  0.00  0.00    +0.000 A 
ENDBRANCH  21  22
ENDBRANCH  20  21
ENDBRANCH  17  20
ENDBRANCH   6  16
BRANCH   1  30
ATOM     29  C   UNL     1       7.667   5.006  13.318  0.00  0.00    +0.000 C 
ATOM     30  O   UNL     1       7.821   5.642  14.592  0.00  0.00    +0.000 OA
ENDBRANCH   1  30
TORSDOF 6
ENDMDL
MODEL 4
REMARK VINA RESULT:      -8.6      0.642      1.094
REMARK  Name = 
REMARK  7 active torsions:
REMARK  status: ('A' for Active; 'I' for Inactive)
REMARK    1  A    between atoms: C_1  and  O_2
REMARK    2  A    between atoms: O_2  and  C_3
REMARK    3  A    between atoms: C_6  and  C_7
REMARK    4  A    between atoms: C_17  and  N_18
REMARK    5  A    between atoms: C_19  and  C_21
REMARK    6  A    between atoms: C_21  and  S_22
REMARK    7  A    between atoms: S_22  and  C_23
REMARK                            x       y       z     vdW  Elec       q    Type
REMARK                         _______ _______ _______ _____ _____    ______ ____
ROOT
ATOM      1  C   UNL     1       7.085   5.280  15.282  0.00  0.00    +0.000 A 
ATOM      2  C   UNL     1       6.479   4.028  15.093  0.00  0.00    +0.000 A 
ATOM      3  C   UNL     1       5.553   3.546  16.014  0.00  0.00    +0.000 A 
ATOM      4  C   UNL     1       5.189   4.312  17.124  0.00  0.00    +0.000 A 
ATOM      5  C   UNL     1       5.763   5.579  17.285  0.00  0.00    +0.000 A 
ATOM      6  C   UNL     1       6.707   6.083  16.380  0.00  0.00    +0.000 A 
ENDROOT
BRANCH   4   7
ATOM      7  C   UNL     1       4.200   3.798  18.059  0.00  0.00    +0.000 A 
ATOM      8  N   UNL     1       3.347   2.801  17.888  0.00  0.00    +0.000 NA
ATOM      9  C   UNL     1       2.606   2.813  19.039  0.00  0.00    +0.000 A 
ATOM     10  C   UNL     1       1.521   2.025  19.439  0.00  0.00    +0.000 A 
ATOM     11  C   UNL     1       0.931   2.297  20.679  0.00  0.00    +0.000 A 
ATOM     12  C   UNL     1       1.417   3.324  21.504  0.00  0.00    +0.000 A 
ATOM     13  C   UNL     1       2.512   4.110  21.125  0.00  0.00    +0.000 A 
ATOM     14  C   UNL     1       3.055   3.814  19.884  0.00  0.00    +0.000 A 
ATOM     15  O   UNL     1       4.089   4.445  19.265  0.00  0.00    +0.000 OA
ENDBRANCH   4   7
BRANCH   6  16
ATOM     16  N   UNL     1       7.257   7.382  16.529  0.00  0.00    +0.000 N 
ATOM     17  C   UNL     1       7.886   7.880  17.670  0.00  0.00    +0.000 C 
ATOM     18  O   UNL     1       8.216   7.215  18.650  0.00  0.00    +0.000 OA
ATOM     19  H   UNL     1       7.195   7.971  15.709  0.00  0.00    +0.000 HD
BRANCH  17  20
ATOM     20  C   UNL     1       8.246   9.357  17.615  0.00  0.00    +0.000 C 
BRANCH  20  21
ATOM     21  S   UNL     1       9.143   9.863  19.118  0.00  0.00    +0.000 S 
BRANCH  21  22
ATOM     22  C   UNL     1      10.030  11.335  18.607  0.00  0.00    +0.000 A 
ATOM     23  C   UNL     1      11.416  11.512  18.681  0.00  0.00    +0.000 A 
ATOM     24  C   UNL     1      12.009  12.701  18.233  0.00  0.00    +0.000 A 
ATOM     25  C   UNL     1      11.220  13.724  17.712  0.00  0.00    +0.000 A 
ATOM     26 CL   UNL     1      11.951  15.176  17.157  0.00  0.00    +0.000 Cl
ATOM     27  C   UNL     1       9.840  13.569  17.640  0.00  0.00    +0.000 A 
ATOM     28  C   UNL     1       9.251  12.381  18.088  0.00  0.00    +0.000 A 
ENDBRANCH  21  22
ENDBRANCH  20  21
ENDBRANCH  17  20
ENDBRANCH   6  16
BRANCH   1  30
ATOM     29  C   UNL     1       7.981   5.274  13.097  0.00  0.00    +0.000 C 
ATOM     30  O   UNL     1       8.057   5.771  14.438  0.00  0.00    +0.000 OA
ENDBRANCH   1  30
TORSDOF 6
ENDMDL
MODEL 5
REMARK VINA RESULT:      -8.1      5.290      7.929
REMARK  Name = 
REMARK  7 active torsions:
REMARK  status: ('A' for Active; 'I' for Inactive)
REMARK    1  A    between atoms: C_1  and  O_2
REMARK    2  A    between atoms: O_2  and  C_3
REMARK    3  A    between atoms: C_6  and  C_7
REMARK    4  A    between atoms: C_17  and  N_18
REMARK    5  A    between atoms: C_19  and  C_21
REMARK    6  A    between atoms: C_21  and  S_22
REMARK    7  A    between atoms: S_22  and  C_23
REMARK                            x       y       z     vdW  Elec       q    Type
REMARK                         _______ _______ _______ _____ _____    ______ ____
ROOT
ATOM      1  C   UNL     1       3.274   4.132  19.871  0.00  0.00    +0.000 A 
ATOM      2  C   UNL     1       2.110   4.358  20.623  0.00  0.00    +0.000 A 
ATOM      3  C   UNL     1       1.590   5.643  20.749  0.00  0.00    +0.000 A 
ATOM      4  C   UNL     1       2.198   6.723  20.105  0.00  0.00    +0.000 A 
ATOM      5  C   UNL     1       3.333   6.486  19.320  0.00  0.00    +0.000 A 
ATOM      6  C   UNL     1       3.885   5.205  19.187  0.00  0.00    +0.000 A 
ENDROOT
BRANCH   4   7
ATOM      7  C   UNL     1       1.621   8.053  20.231  0.00  0.00    +0.000 A 
ATOM      8  N   UNL     1       1.087   8.619  21.300  0.00  0.00    +0.000 NA
ATOM      9  C   UNL     1       0.628   9.821  20.832  0.00  0.00    +0.000 A 
ATOM     10  C   UNL     1      -0.067  10.851  21.473  0.00  0.00    +0.000 A 
ATOM     11  C   UNL     1      -0.443  11.965  20.714  0.00  0.00    +0.000 A 
ATOM     12  C   UNL     1      -0.125  12.054  19.350  0.00  0.00    +0.000 A 
ATOM     13  C   UNL     1       0.585  11.040  18.697  0.00  0.00    +0.000 A 
ATOM     14  C   UNL     1       0.924   9.950  19.485  0.00  0.00    +0.000 A 
ATOM     15  O   UNL     1       1.574   8.820  19.094  0.00  0.00    +0.000 OA
ENDBRANCH   4   7
BRANCH   6  16
ATOM     16  N   UNL     1       5.013   4.965  18.361  0.00  0.00    +0.000 N 
ATOM     17  C   UNL     1       6.349   5.105  18.737  0.00  0.00    +0.000 C 
ATOM     18  O   UNL     1       6.752   5.282  19.885  0.00  0.00    +0.000 OA
ATOM     19  H   UNL     1       4.799   4.642  17.426  0.00  0.00    +0.000 HD
BRANCH  17  20
ATOM     20  C   UNL     1       7.357   4.934  17.611  0.00  0.00    +0.000 C 
BRANCH  20  21
ATOM     21  S   UNL     1       7.067   6.155  16.290  0.00  0.00    +0.000 S 
BRANCH  21  22
ATOM     22  C   UNL     1       6.702   5.147  14.852  0.00  0.00    +0.000 A 
ATOM     23  C   UNL     1       7.508   5.038  13.714  0.00  0.00    +0.000 A 
ATOM     24  C   UNL     1       7.135   4.201  12.652  0.00  0.00    +0.000 A 
ATOM     25  C   UNL     1       5.951   3.471  12.720  0.00  0.00    +0.000 A 
ATOM     26 CL   UNL     1       5.502   2.440  11.420  0.00  0.00    +0.000 Cl
ATOM     27  C   UNL     1       5.134   3.573  13.839  0.00  0.00    +0.000 A 
ATOM     28  C   UNL     1       5.509   4.410  14.898  0.00  0.00    +0.000 A 
ENDBRANCH  21  22
ENDBRANCH  20  21
ENDBRANCH  17  20
ENDBRANCH   6  16
BRANCH   1  30
ATOM     29  C   UNL     1       3.766   2.094  20.958  0.00  0.00    +0.000 C 
ATOM     30  O   UNL     1       3.867   2.892  19.773  0.00  0.00    +0.000 OA
ENDBRANCH   1  30
TORSDOF 6
ENDMDL
MODEL 6
REMARK VINA RESULT:      -8.0      7.656      9.833
REMARK  Name = 
REMARK  7 active torsions:
REMARK  status: ('A' for Active; 'I' for Inactive)
REMARK    1  A    between atoms: C_1  and  O_2
REMARK    2  A    between atoms: O_2  and  C_3
REMARK    3  A    between atoms: C_6  and  C_7
REMARK    4  A    between atoms: C_17  and  N_18
REMARK    5  A    between atoms: C_19  and  C_21
REMARK    6  A    between atoms: C_21  and  S_22
REMARK    7  A    between atoms: S_22  and  C_23
REMARK                            x       y       z     vdW  Elec       q    Type
REMARK                         _______ _______ _______ _____ _____    ______ ____
ROOT
ATOM      1  C   UNL     1       0.488   9.038  20.899  0.00  0.00    +0.000 A 
ATOM      2  C   UNL     1       1.113   7.846  21.296  0.00  0.00    +0.000 A 
ATOM      3  C   UNL     1       1.964   7.172  20.426  0.00  0.00    +0.000 A 
ATOM      4  C   UNL     1       2.235   7.686  19.155  0.00  0.00    +0.000 A 
ATOM      5  C   UNL     1       1.643   8.898  18.780  0.00  0.00    +0.000 A 
ATOM      6  C   UNL     1       0.772   9.590  19.631  0.00  0.00    +0.000 A 
ENDROOT
BRANCH   4   7
ATOM      7  C   UNL     1       3.148   6.976  18.272  0.00  0.00    +0.000 A 
ATOM      8  N   UNL     1       3.920   7.470  17.318  0.00  0.00    +0.000 NA
ATOM      9  C   UNL     1       4.488   6.358  16.757  0.00  0.00    +0.000 A 
ATOM     10  C   UNL     1       5.366   6.222  15.677  0.00  0.00    +0.000 A 
ATOM     11  C   UNL     1       5.755   4.931  15.301  0.00  0.00    +0.000 A 
ATOM     12  C   UNL     1       5.286   3.803  15.993  0.00  0.00    +0.000 A 
ATOM     13  C   UNL     1       4.420   3.922  17.086  0.00  0.00    +0.000 A 
ATOM     14  C   UNL     1       4.051   5.219  17.413  0.00  0.00    +0.000 A 
ATOM     15  O   UNL     1       3.198   5.610  18.397  0.00  0.00    +0.000 OA
ENDBRANCH   4   7
BRANCH   6  16
ATOM     16  N   UNL     1       0.205  10.836  19.259  0.00  0.00    +0.000 N 
ATOM     17  C   UNL     1      -0.984  11.017  18.552  0.00  0.00    +0.000 C 
ATOM     18  O   UNL     1      -1.806  10.137  18.304  0.00  0.00    +0.000 OA
ATOM     19  H   UNL     1       0.719  11.651  19.568  0.00  0.00    +0.000 HD
BRANCH  17  20
ATOM     20  C   UNL     1      -1.282  12.453  18.151  0.00  0.00    +0.000 C 
BRANCH  20  21
ATOM     21  S   UNL     1      -0.592  13.623  19.365  0.00  0.00    +0.000 S 
BRANCH  21  22
ATOM     22  C   UNL     1      -1.500  13.260  20.868  0.00  0.00    +0.000 A 
ATOM     23  C   UNL     1      -0.948  13.192  22.152  0.00  0.00    +0.000 A 
ATOM     24  C   UNL     1      -1.757  12.920  23.264  0.00  0.00    +0.000 A 
ATOM     25  C   UNL     1      -3.124  12.709  23.100  0.00  0.00    +0.000 A 
ATOM     26 CL   UNL     1      -4.114  12.384  24.467  0.00  0.00    +0.000 Cl
ATOM     27  C   UNL     1      -3.689  12.764  21.831  0.00  0.00    +0.000 A 
ATOM     28  C   UNL     1      -2.878  13.036  20.722  0.00  0.00    +0.000 A 
ENDBRANCH  21  22
ENDBRANCH  20  21
ENDBRANCH  17  20
ENDBRANCH   6  16
BRANCH   1  30
ATOM     29  C   UNL     1      -0.175   9.572  23.102  0.00  0.00    +0.000 C 
ATOM     30  O   UNL     1      -0.416   9.706  21.697  0.00  0.00    +0.000 OA
ENDBRANCH   1  30
TORSDOF 6
ENDMDL
MODEL 7
REMARK VINA RESULT:      -8.0      6.598      9.010
REMARK  Name = 
REMARK  7 active torsions:
REMARK  status: ('A' for Active; 'I' for Inactive)
REMARK    1  A    between atoms: C_1  and  O_2
REMARK    2  A    between atoms: O_2  and  C_3
REMARK    3  A    between atoms: C_6  and  C_7
REMARK    4  A    between atoms: C_17  and  N_18
REMARK    5  A    between atoms: C_19  and  C_21
REMARK    6  A    between atoms: C_21  and  S_22
REMARK    7  A    between atoms: S_22  and  C_23
REMARK                            x       y       z     vdW  Elec       q    Type
REMARK                         _______ _______ _______ _____ _____    ______ ____
ROOT
ATOM      1  C   UNL     1       2.516   7.763  18.447  0.00  0.00    +0.000 A 
ATOM      2  C   UNL     1       2.147   8.981  17.855  0.00  0.00    +0.000 A 
ATOM      3  C   UNL     1       1.345   9.886  18.544  0.00  0.00    +0.000 A 
ATOM      4  C   UNL     1       0.920   9.612  19.846  0.00  0.00    +0.000 A 
ATOM      5  C   UNL     1       1.326   8.415  20.448  0.00  0.00    +0.000 A 
ATOM      6  C   UNL     1       2.122   7.481  19.772  0.00  0.00    +0.000 A 
ENDROOT
BRANCH   4   7
ATOM      7  C   UNL     1       0.102  10.584  20.555  0.00  0.00    +0.000 A 
ATOM      8  N   UNL     1       0.224  11.006  21.803  0.00  0.00    +0.000 NA
ATOM      9  C   UNL     1      -0.852  11.838  21.966  0.00  0.00    +0.000 A 
ATOM     10  C   UNL     1      -1.294  12.557  23.082  0.00  0.00    +0.000 A 
ATOM     11  C   UNL     1      -2.470  13.306  22.959  0.00  0.00    +0.000 A 
ATOM     12  C   UNL     1      -3.181  13.346  21.749  0.00  0.00    +0.000 A 
ATOM     13  C   UNL     1      -2.743  12.646  20.620  0.00  0.00    +0.000 A 
ATOM     14  C   UNL     1      -1.582  11.906  20.792  0.00  0.00    +0.000 A 
ATOM     15  O   UNL     1      -0.968  11.111  19.875  0.00  0.00    +0.000 OA
ENDBRANCH   4   7
BRANCH   6  16
ATOM     16  N   UNL     1       2.562   6.287  20.401  0.00  0.00    +0.000 N 
ATOM     17  C   UNL     1       1.952   5.037  20.302  0.00  0.00    +0.000 C 
ATOM     18  O   UNL     1       1.053   4.742  19.517  0.00  0.00    +0.000 OA
ATOM     19  H   UNL     1       3.410   6.376  20.945  0.00  0.00    +0.000 HD
BRANCH  17  20
ATOM     20  C   UNL     1       2.540   3.960  21.202  0.00  0.00    +0.000 C 
BRANCH  20  21
ATOM     21  S   UNL     1       3.129   2.544  20.219  0.00  0.00    +0.000 S 
BRANCH  21  22
ATOM     22  C   UNL     1       4.208   3.294  18.998  0.00  0.00    +0.000 A 
ATOM     23  C   UNL     1       5.347   4.055  19.283  0.00  0.00    +0.000 A 
ATOM     24  C   UNL     1       6.133   4.579  18.247  0.00  0.00    +0.000 A 
ATOM     25  C   UNL     1       5.783   4.349  16.918  0.00  0.00    +0.000 A 
ATOM     26 CL   UNL     1       6.754   4.986  15.652  0.00  0.00    +0.000 Cl
ATOM     27  C   UNL     1       4.650   3.603  16.617  0.00  0.00    +0.000 A 
ATOM     28  C   UNL     1       3.867   3.081  17.653  0.00  0.00    +0.000 A 
ENDBRANCH  21  22
ENDBRANCH  20  21
ENDBRANCH  17  20
ENDBRANCH   6  16
BRANCH   1  30
ATOM     29  C   UNL     1       4.191   7.331  16.839  0.00  0.00    +0.000 C 
ATOM     30  O   UNL     1       3.250   6.805  17.781  0.00  0.00    +0.000 OA
ENDBRANCH   1  30
TORSDOF 6
ENDMDL
MODEL 8
REMARK VINA RESULT:      -8.0      6.857      9.384
REMARK  Name = 
REMARK  7 active torsions:
REMARK  status: ('A' for Active; 'I' for Inactive)
REMARK    1  A    between atoms: C_1  and  O_2
REMARK    2  A    between atoms: O_2  and  C_3
REMARK    3  A    between atoms: C_6  and  C_7
REMARK    4  A    between atoms: C_17  and  N_18
REMARK    5  A    between atoms: C_19  and  C_21
REMARK    6  A    between atoms: C_21  and  S_22
REMARK    7  A    between atoms: S_22  and  C_23
REMARK                            x       y       z     vdW  Elec       q    Type
REMARK                         _______ _______ _______ _____ _____    ______ ____
ROOT
ATOM      1  C   UNL     1       2.137   7.779  18.969  0.00  0.00    +0.000 A 
ATOM      2  C   UNL     1       1.766   9.041  18.479  0.00  0.00    +0.000 A 
ATOM      3  C   UNL     1       1.053   9.927  19.282  0.00  0.00    +0.000 A 
ATOM      4  C   UNL     1       0.723   9.589  20.596  0.00  0.00    +0.000 A 
ATOM      5  C   UNL     1       1.133   8.347  21.094  0.00  0.00    +0.000 A 
ATOM      6  C   UNL     1       1.840   7.431  20.305  0.00  0.00    +0.000 A 
ENDROOT
BRANCH   4   7
ATOM      7  C   UNL     1      -0.001  10.543  21.424  0.00  0.00    +0.000 A 
ATOM      8  N   UNL     1      -1.082  10.339  22.158  0.00  0.00    +0.000 NA
ATOM      9  C   UNL     1      -1.380  11.585  22.643  0.00  0.00    +0.000 A 
ATOM     10  C   UNL     1      -2.433  12.027  23.449  0.00  0.00    +0.000 A 
ATOM     11  C   UNL     1      -2.500  13.391  23.757  0.00  0.00    +0.000 A 
ATOM     12  C   UNL     1      -1.532  14.290  23.281  0.00  0.00    +0.000 A 
ATOM     13  C   UNL     1      -0.462  13.860  22.487  0.00  0.00    +0.000 A 
ATOM     14  C   UNL     1      -0.446  12.504  22.196  0.00  0.00    +0.000 A 
ATOM     15  O   UNL     1       0.452  11.839  21.419  0.00  0.00    +0.000 OA
ENDBRANCH   4   7
BRANCH   6  16
ATOM     16  N   UNL     1       2.285   6.189  20.827  0.00  0.00    +0.000 N 
ATOM     17  C   UNL     1       1.600   4.976  20.752  0.00  0.00    +0.000 C 
ATOM     18  O   UNL     1       0.600   4.763  20.071  0.00  0.00    +0.000 OA
ATOM     19  H   UNL     1       3.195   6.211  21.267  0.00  0.00    +0.000 HD
BRANCH  17  20
ATOM     20  C   UNL     1       2.232   3.832  21.530  0.00  0.00    +0.000 C 
BRANCH  20  21
ATOM     21  S   UNL     1       2.501   2.387  20.453  0.00  0.00    +0.000 S 
BRANCH  21  22
ATOM     22  C   UNL     1       3.441   3.051  19.078  0.00  0.00    +0.000 A 
ATOM     23  C   UNL     1       3.023   3.063  17.742  0.00  0.00    +0.000 A 
ATOM     24  C   UNL     1       3.831   3.629  16.747  0.00  0.00    +0.000 A 
ATOM     25  C   UNL     1       5.066   4.183  17.078  0.00  0.00    +0.000 A 
ATOM     26 CL   UNL     1       6.050   4.883  15.856  0.00  0.00    +0.000 Cl
ATOM     27  C   UNL     1       5.501   4.172  18.398  0.00  0.00    +0.000 A 
ATOM     28  C   UNL     1       4.691   3.606  19.391  0.00  0.00    +0.000 A 
ENDBRANCH  21  22
ENDBRANCH  20  21
ENDBRANCH  17  20
ENDBRANCH   6  16
BRANCH   1  30
ATOM     29  C   UNL     1       3.832   7.370  17.377  0.00  0.00    +0.000 C 
ATOM     30  O   UNL     1       2.782   6.840  18.193  0.00  0.00    +0.000 OA
ENDBRANCH   1  30
TORSDOF 6
ENDMDL
MODEL 9
REMARK VINA RESULT:      -8.0      8.339     10.486
REMARK  Name = 
REMARK  7 active torsions:
REMARK  status: ('A' for Active; 'I' for Inactive)
REMARK    1  A    between atoms: C_1  and  O_2
REMARK    2  A    between atoms: O_2  and  C_3
REMARK    3  A    between atoms: C_6  and  C_7
REMARK    4  A    between atoms: C_17  and  N_18
REMARK    5  A    between atoms: C_19  and  C_21
REMARK    6  A    between atoms: C_21  and  S_22
REMARK    7  A    between atoms: S_22  and  C_23
REMARK                            x       y       z     vdW  Elec       q    Type
REMARK                         _______ _______ _______ _____ _____    ______ ____
ROOT
ATOM      1  C   UNL     1       0.963  10.338  18.857  0.00  0.00    +0.000 A 
ATOM      2  C   UNL     1       1.737   9.685  17.885  0.00  0.00    +0.000 A 
ATOM      3  C   UNL     1       2.288   8.434  18.145  0.00  0.00    +0.000 A 
ATOM      4  C   UNL     1       2.054   7.793  19.364  0.00  0.00    +0.000 A 
ATOM      5  C   UNL     1       1.246   8.429  20.314  0.00  0.00    +0.000 A 
ATOM      6  C   UNL     1       0.690   9.695  20.084  0.00  0.00    +0.000 A 
ENDROOT
BRANCH   4   7
ATOM      7  C   UNL     1       2.620   6.474  19.603  0.00  0.00    +0.000 A 
ATOM      8  N   UNL     1       3.660   5.907  19.015  0.00  0.00    +0.000 NA
ATOM      9  C   UNL     1       3.687   4.649  19.555  0.00  0.00    +0.000 A 
ATOM     10  C   UNL     1       4.531   3.562  19.305  0.00  0.00    +0.000 A 
ATOM     11  C   UNL     1       4.290   2.368  19.995  0.00  0.00    +0.000 A 
ATOM     12  C   UNL     1       3.239   2.265  20.920  0.00  0.00    +0.000 A 
ATOM     13  C   UNL     1       2.397   3.349  21.194  0.00  0.00    +0.000 A 
ATOM     14  C   UNL     1       2.664   4.505  20.477  0.00  0.00    +0.000 A 
ATOM     15  O   UNL     1       1.980   5.680  20.522  0.00  0.00    +0.000 OA
ENDBRANCH   4   7
BRANCH   6  16
ATOM     16  N   UNL     1      -0.159  10.317  21.035  0.00  0.00    +0.000 N 
ATOM     17  C   UNL     1      -0.066  10.192  22.421  0.00  0.00    +0.000 C 
ATOM     18  O   UNL     1       0.869   9.674  23.029  0.00  0.00    +0.000 OA
ATOM     19  H   UNL     1      -0.873  10.918  20.645  0.00  0.00    +0.000 HD
BRANCH  17  20
ATOM     20  C   UNL     1      -1.197  10.841  23.204  0.00  0.00    +0.000 C 
BRANCH  20  21
ATOM     21  S   UNL     1      -1.757  12.370  22.386  0.00  0.00    +0.000 S 
BRANCH  21  22
ATOM     22  C   UNL     1      -3.445  12.564  22.961  0.00  0.00    +0.000 A 
ATOM     23  C   UNL     1      -3.874  12.402  24.283  0.00  0.00    +0.000 A 
ATOM     24  C   UNL     1      -5.218  12.599  24.627  0.00  0.00    +0.000 A 
ATOM     25  C   UNL     1      -6.146  12.955  23.650  0.00  0.00    +0.000 A 
ATOM     26 CL   UNL     1      -7.792  13.203  24.077  0.00  0.00    +0.000 Cl
ATOM     27  C   UNL     1      -5.739  13.111  22.330  0.00  0.00    +0.000 A 
ATOM     28  C   UNL     1      -4.396  12.914  21.989  0.00  0.00    +0.000 A 
ENDBRANCH  21  22
ENDBRANCH  20  21
ENDBRANCH  17  20
ENDBRANCH   6  16
BRANCH   1  30
ATOM     29  C   UNL     1      -0.898  11.637  18.204  0.00  0.00    +0.000 C 
ATOM     30  O   UNL     1       0.454  11.606  18.675  0.00  0.00    +0.000 OA
ENDBRANCH   1  30
TORSDOF 6
ENDMDL
