MODEL 1
REMARK VINA RESULT:      -8.8      0.000      0.000
REMARK  Name = 
REMARK  4 active torsions:
REMARK  status: ('A' for Active; 'I' for Inactive)
REMARK    1  A    between atoms: C_5  and  C_6
REMARK    2  A    between atoms: C_8  and  C_9
REMARK    3  A    between atoms: C_9  and  N_10
REMARK    4  A    between atoms: C_17  and  C_18
REMARK                            x       y       z     vdW  Elec       q    Type
REMARK                         _______ _______ _______ _____ _____    ______ ____
ROOT
ATOM      1  C   UNL     1       3.917   5.052  18.252  0.00  0.00    +0.000 A 
ATOM      2  N   UNL     1       4.992   4.537  17.543  0.00  0.00    +0.000 N 
ATOM      3  C   UNL     1       5.597   5.513  16.792  0.00  0.00    +0.000 A 
ATOM      4  C   UNL     1       4.904   6.682  17.012  0.00  0.00    +0.000 A 
ATOM      5  C   UNL     1       3.831   6.406  17.910  0.00  0.00    +0.000 A 
ATOM      6  H   UNL     1       5.292   3.574  17.560  0.00  0.00    +0.000 HD
ENDROOT
BRANCH   1  11
ATOM      7  F   UNL     1       0.672   2.310  21.904  0.00  0.00    +0.000 F 
ATOM      8  C   UNL     1       1.464   2.877  20.981  0.00  0.00    +0.000 A 
ATOM      9  C   UNL     1       2.830   2.943  21.200  0.00  0.00    +0.000 A 
ATOM     10  C   UNL     1       3.645   3.556  20.244  0.00  0.00    +0.000 A 
ATOM     11  C   UNL     1       3.093   4.192  19.121  0.00  0.00    +0.000 A 
ATOM     12  C   UNL     1       1.711   4.071  18.904  0.00  0.00    +0.000 A 
ATOM     13  C   UNL     1       0.895   3.410  19.828  0.00  0.00    +0.000 A 
ENDBRANCH   1  11
BRANCH   5  14
ATOM     14  C   UNL     1       2.840   7.369  18.400  0.00  0.00    +0.000 A 
ATOM     15  C   UNL     1       2.345   7.329  19.705  0.00  0.00    +0.000 A 
ATOM     16  C   UNL     1       1.519   8.355  20.141  0.00  0.00    +0.000 A 
ATOM     17  N   UNL     1       1.089   9.353  19.348  0.00  0.00    +0.000 NA
ATOM     18  C   UNL     1       1.506   9.328  18.066  0.00  0.00    +0.000 A 
ATOM     19  C   UNL     1       2.377   8.379  17.554  0.00  0.00    +0.000 A 
ENDBRANCH   5  14
BRANCH   3  20
ATOM     20  C   UNL     1       6.788   5.238  15.935  0.00  0.00    +0.000 C 
BRANCH  20  21
ATOM     21  N   UNL     1       6.450   5.136  14.498  0.00  0.00    +0.000 NA
ATOM     22  C   UNL     1       7.676   5.184  13.676  0.00  0.00    +0.000 C 
ATOM     23  C   UNL     1       7.421   4.898  12.193  0.00  0.00    +0.000 C 
ATOM     24  C   UNL     1       6.706   3.569  12.007  0.00  0.00    +0.000 C 
ATOM     25  C   UNL     1       5.418   3.575  12.816  0.00  0.00    +0.000 C 
ATOM     26  C   UNL     1       5.697   3.883  14.288  0.00  0.00    +0.000 C 
ENDBRANCH  20  21
ENDBRANCH   3  20
TORSDOF 4
ENDMDL
MODEL 2
REMARK VINA RESULT:      -8.7      2.071      4.072
REMARK  Name = 
REMARK  4 active torsions:
REMARK  status: ('A' for Active; 'I' for Inactive)
REMARK    1  A    between atoms: C_5  and  C_6
REMARK    2  A    between atoms: C_8  and  C_9
REMARK    3  A    between atoms: C_9  and  N_10
REMARK    4  A    between atoms: C_17  and  C_18
REMARK                            x       y       z     vdW  Elec       q    Type
REMARK                         _______ _______ _______ _____ _____    ______ ____
ROOT
ATOM      1  C   UNL     1       3.785   6.028  17.864  0.00  0.00    +0.000 A 
ATOM      2  N   UNL     1       4.871   6.349  17.062  0.00  0.00    +0.000 N 
ATOM      3  C   UNL     1       5.608   5.230  16.767  0.00  0.00    +0.000 A 
ATOM      4  C   UNL     1       4.996   4.165  17.387  0.00  0.00    +0.000 A 
ATOM      5  C   UNL     1       3.861   4.652  18.101  0.00  0.00    +0.000 A 
ATOM      6  H   UNL     1       5.103   7.276  16.741  0.00  0.00    +0.000 HD
ENDROOT
BRANCH   1  11
ATOM      7  F   UNL     1       0.746  10.298  19.846  0.00  0.00    +0.000 F 
ATOM      8  C   UNL     1       1.385   9.230  19.343  0.00  0.00    +0.000 A 
ATOM      9  C   UNL     1       1.645   8.142  20.161  0.00  0.00    +0.000 A 
ATOM     10  C   UNL     1       2.332   7.044  19.636  0.00  0.00    +0.000 A 
ATOM     11  C   UNL     1       2.849   7.068  18.332  0.00  0.00    +0.000 A 
ATOM     12  C   UNL     1       2.533   8.164  17.513  0.00  0.00    +0.000 A 
ATOM     13  C   UNL     1       1.798   9.243  18.014  0.00  0.00    +0.000 A 
ENDBRANCH   1  11
BRANCH   5  14
ATOM     14  C   UNL     1       2.936   3.853  18.909  0.00  0.00    +0.000 A 
ATOM     15  C   UNL     1       3.246   3.436  20.204  0.00  0.00    +0.000 A 
ATOM     16  C   UNL     1       2.269   2.805  20.959  0.00  0.00    +0.000 A 
ATOM     17  N   UNL     1       1.051   2.486  20.485  0.00  0.00    +0.000 NA
ATOM     18  C   UNL     1       0.797   2.817  19.203  0.00  0.00    +0.000 A 
ATOM     19  C   UNL     1       1.687   3.500  18.389  0.00  0.00    +0.000 A 
ENDBRANCH   5  14
BRANCH   3  20
ATOM     20  C   UNL     1       6.830   5.283  15.910  0.00  0.00    +0.000 C 
BRANCH  20  21
ATOM     21  N   UNL     1       6.524   5.173  14.467  0.00  0.00    +0.000 NA
ATOM     22  C   UNL     1       7.746   5.376  13.663  0.00  0.00    +0.000 C 
ATOM     23  C   UNL     1       7.544   5.093  12.173  0.00  0.00    +0.000 C 
ATOM     24  C   UNL     1       6.987   3.696  11.951  0.00  0.00    +0.000 C 
ATOM     25  C   UNL     1       5.697   3.539  12.741  0.00  0.00    +0.000 C 
ATOM     26  C   UNL     1       5.921   3.847  14.222  0.00  0.00    +0.000 C 
ENDBRANCH  20  21
ENDBRANCH   3  20
TORSDOF 4
ENDMDL
MODEL 3
REMARK VINA RESULT:      -8.6      2.052      4.178
REMARK  Name = 
REMARK  4 active torsions:
REMARK  status: ('A' for Active; 'I' for Inactive)
REMARK    1  A    between atoms: C_5  and  C_6
REMARK    2  A    between atoms: C_8  and  C_9
REMARK    3  A    between atoms: C_9  and  N_10
REMARK    4  A    between atoms: C_17  and  C_18
REMARK                            x       y       z     vdW  Elec       q    Type
REMARK                         _______ _______ _______ _____ _____    ______ ____
ROOT
ATOM      1  C   UNL     1       3.787   6.233  17.876  0.00  0.00    +0.000 A 
ATOM      2  N   UNL     1       4.911   6.485  17.102  0.00  0.00    +0.000 N 
ATOM      3  C   UNL     1       5.544   5.316  16.763  0.00  0.00    +0.000 A 
ATOM      4  C   UNL     1       4.824   4.287  17.325  0.00  0.00    +0.000 A 
ATOM      5  C   UNL     1       3.728   4.847  18.047  0.00  0.00    +0.000 A 
ATOM      6  H   UNL     1       5.235   7.400  16.828  0.00  0.00    +0.000 HD
ENDROOT
BRANCH   1  11
ATOM      7  F   UNL     1       0.086  10.070  19.599  0.00  0.00    +0.000 F 
ATOM      8  C   UNL     1       1.047   9.214  19.219  0.00  0.00    +0.000 A 
ATOM      9  C   UNL     1       1.573   9.302  17.940  0.00  0.00    +0.000 A 
ATOM     10  C   UNL     1       2.557   8.392  17.544  0.00  0.00    +0.000 A 
ATOM     11  C   UNL     1       2.946   7.334  18.381  0.00  0.00    +0.000 A 
ATOM     12  C   UNL     1       2.428   7.297  19.686  0.00  0.00    +0.000 A 
ATOM     13  C   UNL     1       1.483   8.237  20.109  0.00  0.00    +0.000 A 
ENDBRANCH   1  11
BRANCH   5  14
ATOM     14  C   UNL     1       2.719   4.103  18.806  0.00  0.00    +0.000 A 
ATOM     15  C   UNL     1       1.543   3.631  18.219  0.00  0.00    +0.000 A 
ATOM     16  C   UNL     1       0.702   2.815  18.960  0.00  0.00    +0.000 A 
ATOM     17  N   UNL     1       0.906   2.516  20.256  0.00  0.00    +0.000 NA
ATOM     18  C   UNL     1       2.001   3.051  20.834  0.00  0.00    +0.000 A 
ATOM     19  C   UNL     1       2.930   3.830  20.160  0.00  0.00    +0.000 A 
ENDBRANCH   5  14
BRANCH   3  20
ATOM     20  C   UNL     1       6.779   5.292  15.924  0.00  0.00    +0.000 C 
BRANCH  20  21
ATOM     21  N   UNL     1       6.487   5.181  14.477  0.00  0.00    +0.000 NA
ATOM     22  C   UNL     1       7.730   5.305  13.690  0.00  0.00    +0.000 C 
ATOM     23  C   UNL     1       7.534   5.016  12.200  0.00  0.00    +0.000 C 
ATOM     24  C   UNL     1       6.902   3.650  11.986  0.00  0.00    +0.000 C 
ATOM     25  C   UNL     1       5.594   3.576  12.758  0.00  0.00    +0.000 C 
ATOM     26  C   UNL     1       5.814   3.889  14.239  0.00  0.00    +0.000 C 
ENDBRANCH  20  21
ENDBRANCH   3  20
TORSDOF 4
ENDMDL
MODEL 4
REMARK VINA RESULT:      -8.4      1.982      6.655
REMARK  Name = 
REMARK  4 active torsions:
REMARK  status: ('A' for Active; 'I' for Inactive)
REMARK    1  A    between atoms: C_5  and  C_6
REMARK    2  A    between atoms: C_8  and  C_9
REMARK    3  A    between atoms: C_9  and  N_10
REMARK    4  A    between atoms: C_17  and  C_18
REMARK                            x       y       z     vdW  Elec       q    Type
REMARK                         _______ _______ _______ _____ _____    ______ ____
ROOT
ATOM      1  C   UNL     1       2.972   6.212  18.044  0.00  0.00    +0.000 A 
ATOM      2  N   UNL     1       2.107   7.285  18.201  0.00  0.00    +0.000 N 
ATOM      3  C   UNL     1       2.697   8.454  17.793  0.00  0.00    +0.000 A 
ATOM      4  C   UNL     1       3.967   8.139  17.364  0.00  0.00    +0.000 A 
ATOM      5  C   UNL     1       4.164   6.736  17.537  0.00  0.00    +0.000 A 
ATOM      6  H   UNL     1       1.171   7.229  18.575  0.00  0.00    +0.000 HD
ENDROOT
BRANCH   1  11
ATOM      7  F   UNL     1       0.889   1.147  19.226  0.00  0.00    +0.000 F 
ATOM      8  C   UNL     1       1.473   2.332  18.993  0.00  0.00    +0.000 A 
ATOM      9  C   UNL     1       1.313   3.364  19.904  0.00  0.00    +0.000 A 
ATOM     10  C   UNL     1       1.906   4.601  19.643  0.00  0.00    +0.000 A 
ATOM     11  C   UNL     1       2.571   4.846  18.431  0.00  0.00    +0.000 A 
ATOM     12  C   UNL     1       2.755   3.770  17.547  0.00  0.00    +0.000 A 
ATOM     13  C   UNL     1       2.212   2.512  17.827  0.00  0.00    +0.000 A 
ENDBRANCH   1  11
BRANCH   5  14
ATOM     14  C   UNL     1       5.382   5.986  17.217  0.00  0.00    +0.000 A 
ATOM     15  C   UNL     1       6.304   5.610  18.196  0.00  0.00    +0.000 A 
ATOM     16  C   UNL     1       7.358   4.781  17.842  0.00  0.00    +0.000 A 
ATOM     17  N   UNL     1       7.602   4.384  16.580  0.00  0.00    +0.000 NA
ATOM     18  C   UNL     1       6.753   4.828  15.632  0.00  0.00    +0.000 A 
ATOM     19  C   UNL     1       5.639   5.610  15.896  0.00  0.00    +0.000 A 
ENDBRANCH   5  14
BRANCH   3  20
ATOM     20  C   UNL     1       1.989   9.767  17.843  0.00  0.00    +0.000 C 
BRANCH  20  21
ATOM     21  N   UNL     1       0.768   9.728  18.678  0.00  0.00    +0.000 NA
ATOM     22  C   UNL     1       0.914  10.615  19.849  0.00  0.00    +0.000 C 
ATOM     23  C   UNL     1      -0.377  10.769  20.657  0.00  0.00    +0.000 C 
ATOM     24  C   UNL     1      -1.523  11.237  19.775  0.00  0.00    +0.000 C 
ATOM     25  C   UNL     1      -1.689  10.268  18.614  0.00  0.00    +0.000 C 
ATOM     26  C   UNL     1      -0.381  10.117  17.835  0.00  0.00    +0.000 C 
ENDBRANCH  20  21
ENDBRANCH   3  20
TORSDOF 4
ENDMDL
MODEL 5
REMARK VINA RESULT:      -8.4      1.866      6.668
REMARK  Name = 
REMARK  4 active torsions:
REMARK  status: ('A' for Active; 'I' for Inactive)
REMARK    1  A    between atoms: C_5  and  C_6
REMARK    2  A    between atoms: C_8  and  C_9
REMARK    3  A    between atoms: C_9  and  N_10
REMARK    4  A    between atoms: C_17  and  C_18
REMARK                            x       y       z     vdW  Elec       q    Type
REMARK                         _______ _______ _______ _____ _____    ______ ____
ROOT
ATOM      1  C   UNL     1       2.804   6.350  18.583  0.00  0.00    +0.000 A 
ATOM      2  N   UNL     1       1.976   7.461  18.645  0.00  0.00    +0.000 N 
ATOM      3  C   UNL     1       2.483   8.492  17.896  0.00  0.00    +0.000 A 
ATOM      4  C   UNL     1       3.660   8.048  17.338  0.00  0.00    +0.000 A 
ATOM      5  C   UNL     1       3.889   6.710  17.778  0.00  0.00    +0.000 A 
ATOM      6  H   UNL     1       1.120   7.520  19.176  0.00  0.00    +0.000 HD
ENDROOT
BRANCH   1  11
ATOM      7  F   UNL     1       1.033   1.952  21.569  0.00  0.00    +0.000 F 
ATOM      8  C   UNL     1       1.542   2.952  20.833  0.00  0.00    +0.000 A 
ATOM      9  C   UNL     1       2.335   3.913  21.440  0.00  0.00    +0.000 A 
ATOM     10  C   UNL     1       2.843   4.962  20.671  0.00  0.00    +0.000 A 
ATOM     11  C   UNL     1       2.482   5.115  19.323  0.00  0.00    +0.000 A 
ATOM     12  C   UNL     1       1.713   4.104  18.724  0.00  0.00    +0.000 A 
ATOM     13  C   UNL     1       1.247   3.020  19.474  0.00  0.00    +0.000 A 
ENDBRANCH   1  11
BRANCH   5  14
ATOM     14  C   UNL     1       5.036   5.866  17.428  0.00  0.00    +0.000 A 
ATOM     15  C   UNL     1       5.154   5.249  16.182  0.00  0.00    +0.000 A 
ATOM     16  C   UNL     1       6.330   4.583  15.872  0.00  0.00    +0.000 A 
ATOM     17  N   UNL     1       7.344   4.417  16.741  0.00  0.00    +0.000 NA
ATOM     18  C   UNL     1       7.178   4.944  17.970  0.00  0.00    +0.000 A 
ATOM     19  C   UNL     1       6.065   5.676  18.355  0.00  0.00    +0.000 A 
ENDBRANCH   5  14
BRANCH   3  20
ATOM     20  C   UNL     1       1.789   9.809  17.776  0.00  0.00    +0.000 C 
BRANCH  20  21
ATOM     21  N   UNL     1       0.602   9.913  18.654  0.00  0.00    +0.000 NA
ATOM     22  C   UNL     1       0.805  10.961  19.674  0.00  0.00    +0.000 C 
ATOM     23  C   UNL     1      -0.450  11.254  20.499  0.00  0.00    +0.000 C 
ATOM     24  C   UNL     1      -1.626  11.605  19.602  0.00  0.00    +0.000 C 
ATOM     25  C   UNL     1      -1.849  10.478  18.605  0.00  0.00    +0.000 C 
ATOM     26  C   UNL     1      -0.575  10.192  17.808  0.00  0.00    +0.000 C 
ENDBRANCH  20  21
ENDBRANCH   3  20
TORSDOF 4
ENDMDL
MODEL 6
REMARK VINA RESULT:      -8.4      1.955      6.754
REMARK  Name = 
REMARK  4 active torsions:
REMARK  status: ('A' for Active; 'I' for Inactive)
REMARK    1  A    between atoms: C_5  and  C_6
REMARK    2  A    between atoms: C_8  and  C_9
REMARK    3  A    between atoms: C_9  and  N_10
REMARK    4  A    between atoms: C_17  and  C_18
REMARK                            x       y       z     vdW  Elec       q    Type
REMARK                         _______ _______ _______ _____ _____    ______ ____
ROOT
ATOM      1  C   UNL     1       2.886   6.094  18.066  0.00  0.00    +0.000 A 
ATOM      2  N   UNL     1       2.032   7.173  18.248  0.00  0.00    +0.000 N 
ATOM      3  C   UNL     1       2.625   8.340  17.840  0.00  0.00    +0.000 A 
ATOM      4  C   UNL     1       3.884   8.020  17.386  0.00  0.00    +0.000 A 
ATOM      5  C   UNL     1       4.073   6.615  17.541  0.00  0.00    +0.000 A 
ATOM      6  H   UNL     1       1.104   7.119  18.638  0.00  0.00    +0.000 HD
ENDROOT
BRANCH   1  11
ATOM      7  F   UNL     1       0.804   1.017  19.197  0.00  0.00    +0.000 F 
ATOM      8  C   UNL     1       1.386   2.207  18.981  0.00  0.00    +0.000 A 
ATOM      9  C   UNL     1       1.167   3.246  19.870  0.00  0.00    +0.000 A 
ATOM     10  C   UNL     1       1.759   4.488  19.626  0.00  0.00    +0.000 A 
ATOM     11  C   UNL     1       2.482   4.728  18.447  0.00  0.00    +0.000 A 
ATOM     12  C   UNL     1       2.724   3.645  17.586  0.00  0.00    +0.000 A 
ATOM     13  C   UNL     1       2.182   2.384  17.852  0.00  0.00    +0.000 A 
ENDBRANCH   1  11
BRANCH   5  14
ATOM     14  C   UNL     1       5.279   5.858  17.193  0.00  0.00    +0.000 A 
ATOM     15  C   UNL     1       5.599   5.532  15.874  0.00  0.00    +0.000 A 
ATOM     16  C   UNL     1       6.824   4.939  15.606  0.00  0.00    +0.000 A 
ATOM     17  N   UNL     1       7.699   4.575  16.560  0.00  0.00    +0.000 NA
ATOM     18  C   UNL     1       7.337   4.817  17.836  0.00  0.00    +0.000 A 
ATOM     19  C   UNL     1       6.162   5.456  18.199  0.00  0.00    +0.000 A 
ENDBRANCH   5  14
BRANCH   3  20
ATOM     20  C   UNL     1       1.927   9.658  17.916  0.00  0.00    +0.000 C 
BRANCH  20  21
ATOM     21  N   UNL     1       0.745   9.631  18.805  0.00  0.00    +0.000 NA
ATOM     22  C   UNL     1       1.164   9.546  20.218  0.00  0.00    +0.000 C 
ATOM     23  C   UNL     1       0.003   9.700  21.204  0.00  0.00    +0.000 C 
ATOM     24  C   UNL     1      -0.762  10.990  20.952  0.00  0.00    +0.000 C 
ATOM     25  C   UNL     1      -1.234  11.019  19.506  0.00  0.00    +0.000 C 
ATOM     26  C   UNL     1      -0.059  10.842  18.543  0.00  0.00    +0.000 C 
ENDBRANCH  20  21
ENDBRANCH   3  20
TORSDOF 4
ENDMDL
MODEL 7
REMARK VINA RESULT:      -8.3      1.968      6.746
REMARK  Name = 
REMARK  4 active torsions:
REMARK  status: ('A' for Active; 'I' for Inactive)
REMARK    1  A    between atoms: C_5  and  C_6
REMARK    2  A    between atoms: C_8  and  C_9
REMARK    3  A    between atoms: C_9  and  N_10
REMARK    4  A    between atoms: C_17  and  C_18
REMARK                            x       y       z     vdW  Elec       q    Type
REMARK                         _______ _______ _______ _____ _____    ______ ____
ROOT
ATOM      1  C   UNL     1       2.766   6.287  18.193  0.00  0.00    +0.000 A 
ATOM      2  N   UNL     1       1.951   7.401  18.336  0.00  0.00    +0.000 N 
ATOM      3  C   UNL     1       2.577   8.529  17.870  0.00  0.00    +0.000 A 
ATOM      4  C   UNL     1       3.819   8.146  17.418  0.00  0.00    +0.000 A 
ATOM      5  C   UNL     1       3.964   6.743  17.634  0.00  0.00    +0.000 A 
ATOM      6  H   UNL     1       1.025   7.396  18.737  0.00  0.00    +0.000 HD
ENDROOT
BRANCH   1  11
ATOM      7  F   UNL     1       1.689   1.037  19.826  0.00  0.00    +0.000 F 
ATOM      8  C   UNL     1       1.847   2.314  19.446  0.00  0.00    +0.000 A 
ATOM      9  C   UNL     1       1.735   2.647  18.105  0.00  0.00    +0.000 A 
ATOM     10  C   UNL     1       1.922   3.975  17.715  0.00  0.00    +0.000 A 
ATOM     11  C   UNL     1       2.321   4.953  18.639  0.00  0.00    +0.000 A 
ATOM     12  C   UNL     1       2.385   4.596  19.996  0.00  0.00    +0.000 A 
ATOM     13  C   UNL     1       2.144   3.280  20.403  0.00  0.00    +0.000 A 
ENDBRANCH   1  11
BRANCH   5  14
ATOM     14  C   UNL     1       5.140   5.932  17.308  0.00  0.00    +0.000 A 
ATOM     15  C   UNL     1       5.265   5.256  16.093  0.00  0.00    +0.000 A 
ATOM     16  C   UNL     1       6.464   4.625  15.795  0.00  0.00    +0.000 A 
ATOM     17  N   UNL     1       7.498   4.548  16.653  0.00  0.00    +0.000 NA
ATOM     18  C   UNL     1       7.329   5.131  17.857  0.00  0.00    +0.000 A 
ATOM     19  C   UNL     1       6.191   5.834  18.223  0.00  0.00    +0.000 A 
ENDBRANCH   5  14
BRANCH   3  20
ATOM     20  C   UNL     1       1.924   9.871  17.894  0.00  0.00    +0.000 C 
BRANCH  20  21
ATOM     21  N   UNL     1       0.697   9.898  18.719  0.00  0.00    +0.000 NA
ATOM     22  C   UNL     1       0.815  10.909  19.788  0.00  0.00    +0.000 C 
ATOM     23  C   UNL     1      -0.486  11.123  20.566  0.00  0.00    +0.000 C 
ATOM     24  C   UNL     1      -1.633  11.469  19.630  0.00  0.00    +0.000 C 
ATOM     25  C   UNL     1      -1.770  10.377  18.580  0.00  0.00    +0.000 C 
ATOM     26  C   UNL     1      -0.452  10.169  17.831  0.00  0.00    +0.000 C 
ENDBRANCH  20  21
ENDBRANCH   3  20
TORSDOF 4
ENDMDL
MODEL 8
REMARK VINA RESULT:      -8.2      1.967      6.785
REMARK  Name = 
REMARK  4 active torsions:
REMARK  status: ('A' for Active; 'I' for Inactive)
REMARK    1  A    between atoms: C_5  and  C_6
REMARK    2  A    between atoms: C_8  and  C_9
REMARK    3  A    between atoms: C_9  and  N_10
REMARK    4  A    between atoms: C_17  and  C_18
REMARK                            x       y       z     vdW  Elec       q    Type
REMARK                         _______ _______ _______ _____ _____    ______ ____
ROOT
ATOM      1  C   UNL     1       2.707   6.315  18.052  0.00  0.00    +0.000 A 
ATOM      2  N   UNL     1       1.843   7.389  18.217  0.00  0.00    +0.000 N 
ATOM      3  C   UNL     1       2.455   8.566  17.867  0.00  0.00    +0.000 A 
ATOM      4  C   UNL     1       3.736   8.256  17.469  0.00  0.00    +0.000 A 
ATOM      5  C   UNL     1       3.918   6.847  17.601  0.00  0.00    +0.000 A 
ATOM      6  H   UNL     1       0.896   7.326  18.558  0.00  0.00    +0.000 HD
ENDROOT
BRANCH   1  11
ATOM      7  F   UNL     1       1.706   0.997  19.507  0.00  0.00    +0.000 F 
ATOM      8  C   UNL     1       1.848   2.276  19.126  0.00  0.00    +0.000 A 
ATOM      9  C   UNL     1       2.266   2.562  17.835  0.00  0.00    +0.000 A 
ATOM     10  C   UNL     1       2.433   3.896  17.454  0.00  0.00    +0.000 A 
ATOM     11  C   UNL     1       2.285   4.940  18.380  0.00  0.00    +0.000 A 
ATOM     12  C   UNL     1       1.820   4.623  19.666  0.00  0.00    +0.000 A 
ATOM     13  C   UNL     1       1.596   3.295  20.040  0.00  0.00    +0.000 A 
ENDBRANCH   1  11
BRANCH   5  14
ATOM     14  C   UNL     1       5.141   6.099  17.296  0.00  0.00    +0.000 A 
ATOM     15  C   UNL     1       6.020   5.669  18.292  0.00  0.00    +0.000 A 
ATOM     16  C   UNL     1       7.080   4.846  17.942  0.00  0.00    +0.000 A 
ATOM     17  N   UNL     1       7.371   4.504  16.675  0.00  0.00    +0.000 NA
ATOM     18  C   UNL     1       6.564   4.999  15.715  0.00  0.00    +0.000 A 
ATOM     19  C   UNL     1       5.447   5.781  15.970  0.00  0.00    +0.000 A 
ENDBRANCH   5  14
BRANCH   3  20
ATOM     20  C   UNL     1       1.753   9.882  17.939  0.00  0.00    +0.000 C 
BRANCH  20  21
ATOM     21  N   UNL     1       0.595   9.864  18.860  0.00  0.00    +0.000 NA
ATOM     22  C   UNL     1       1.038  10.094  20.249  0.00  0.00    +0.000 C 
ATOM     23  C   UNL     1      -0.123  10.275  21.232  0.00  0.00    +0.000 C 
ATOM     24  C   UNL     1      -1.056  11.387  20.780  0.00  0.00    +0.000 C 
ATOM     25  C   UNL     1      -1.544  11.088  19.370  0.00  0.00    +0.000 C 
ATOM     26  C   UNL     1      -0.367  10.893  18.413  0.00  0.00    +0.000 C 
ENDBRANCH  20  21
ENDBRANCH   3  20
TORSDOF 4
ENDMDL
MODEL 9
REMARK VINA RESULT:      -8.1      2.937      7.380
REMARK  Name = 
REMARK  4 active torsions:
REMARK  status: ('A' for Active; 'I' for Inactive)
REMARK    1  A    between atoms: C_5  and  C_6
REMARK    2  A    between atoms: C_8  and  C_9
REMARK    3  A    between atoms: C_9  and  N_10
REMARK    4  A    between atoms: C_17  and  C_18
REMARK                            x       y       z     vdW  Elec       q    Type
REMARK                         _______ _______ _______ _____ _____    ______ ____
ROOT
ATOM      1  C   UNL     1       3.364   6.739  18.073  0.00  0.00    +0.000 A 
ATOM      2  N   UNL     1       3.148   8.075  17.768  0.00  0.00    +0.000 N 
ATOM      3  C   UNL     1       2.043   8.555  18.426  0.00  0.00    +0.000 A 
ATOM      4  C   UNL     1       1.530   7.516  19.169  0.00  0.00    +0.000 A 
ATOM      5  C   UNL     1       2.335   6.360  18.941  0.00  0.00    +0.000 A 
ATOM      6  H   UNL     1       3.713   8.628  17.141  0.00  0.00    +0.000 HD
ENDROOT
BRANCH   1  11
ATOM      7  F   UNL     1       7.516   4.242  15.260  0.00  0.00    +0.000 F 
ATOM      8  C   UNL     1       6.545   4.779  16.013  0.00  0.00    +0.000 A 
ATOM      9  C   UNL     1       5.277   4.220  15.995  0.00  0.00    +0.000 A 
ATOM     10  C   UNL     1       4.265   4.800  16.765  0.00  0.00    +0.000 A 
ATOM     11  C   UNL     1       4.485   5.991  17.473  0.00  0.00    +0.000 A 
ATOM     12  C   UNL     1       5.789   6.510  17.508  0.00  0.00    +0.000 A 
ATOM     13  C   UNL     1       6.821   5.905  16.785  0.00  0.00    +0.000 A 
ENDBRANCH   1  11
BRANCH   5  14
ATOM     14  C   UNL     1       2.133   5.033  19.528  0.00  0.00    +0.000 A 
ATOM     15  C   UNL     1       2.498   4.735  20.842  0.00  0.00    +0.000 A 
ATOM     16  C   UNL     1       2.148   3.503  21.374  0.00  0.00    +0.000 A 
ATOM     17  N   UNL     1       1.547   2.530  20.666  0.00  0.00    +0.000 NA
ATOM     18  C   UNL     1       1.280   2.800  19.373  0.00  0.00    +0.000 A 
ATOM     19  C   UNL     1       1.539   4.021  18.768  0.00  0.00    +0.000 A 
ENDBRANCH   5  14
BRANCH   3  20
ATOM     20  C   UNL     1       1.584   9.969  18.288  0.00  0.00    +0.000 C 
BRANCH  20  21
ATOM     21  N   UNL     1       0.215  10.180  18.809  0.00  0.00    +0.000 NA
ATOM     22  C   UNL     1       0.080  11.539  19.370  0.00  0.00    +0.000 C 
ATOM     23  C   UNL     1      -1.358  11.894  19.758  0.00  0.00    +0.000 C 
ATOM     24  C   UNL     1      -2.304  11.706  18.583  0.00  0.00    +0.000 C 
ATOM     25  C   UNL     1      -2.188  10.280  18.068  0.00  0.00    +0.000 C 
ATOM     26  C   UNL     1      -0.740   9.944  17.707  0.00  0.00    +0.000 C 
ENDBRANCH  20  21
ENDBRANCH   3  20
TORSDOF 4
ENDMDL
