MODEL 1
REMARK VINA RESULT:      -6.1      0.000      0.000
REMARK  Name = 
REMARK  11 active torsions:
REMARK  status: ('A' for Active; 'I' for Inactive)
REMARK    1  A    between atoms: C_1  and  S_2
REMARK    2  A    between atoms: S_2  and  C_3
REMARK    3  A    between atoms: C_6  and  C_7
REMARK    4  A    between atoms: C_7  and  N_8
REMARK    5  A    between atoms: N_11  and  C_12
REMARK    6  A    between atoms: N_15  and  C_16
REMARK    7  A    between atoms: C_16  and  C_17
REMARK    8  A    between atoms: C_16  and  C_18
REMARK    9  A    between atoms: C_21  and  C_22
REMARK   10  A    between atoms: C_22  and  C_23
REMARK   11  A    between atoms: C_23  and  O_24
REMARK                            x       y       z     vdW  Elec       q    Type
REMARK                         _______ _______ _______ _____ _____    ______ ____
ROOT
ATOM      1  N   UNL     1      -0.762  10.693  19.856  0.00  0.00    +0.000 NA
ATOM      2  C   UNL     1      -1.477  11.879  20.357  0.00  0.00    +0.000 C 
ATOM      3  C   UNL     1      -2.392  12.668  19.373  0.00  0.00    +0.000 C 
ATOM      4  N   UNL     1      -3.169  11.888  18.372  0.00  0.00    +0.000 NA
ATOM      5  C   UNL     1      -2.280  10.858  17.802  0.00  0.00    +0.000 C 
ATOM      6  C   UNL     1      -1.537   9.971  18.850  0.00  0.00    +0.000 C 
ENDROOT
BRANCH   4   7
ATOM      7  C   UNL     1      -4.585  11.694  18.797  0.00  0.00    +0.000 C 
ATOM      8  C   UNL     1      -5.625  11.522  17.698  0.00  0.00    +0.000 C 
ATOM      9  C   UNL     1      -6.151  12.859  17.227  0.00  0.00    +0.000 C 
ATOM     10  N   UNL     1      -6.934  13.547  18.252  0.00  0.00    +0.000 NA
ATOM     11  C   UNL     1      -6.169  13.697  19.508  0.00  0.00    +0.000 C 
ATOM     12  C   UNL     1      -5.235  12.542  19.919  0.00  0.00    +0.000 C 
BRANCH  10  13
ATOM     13  C   UNL     1      -7.390  14.869  17.728  0.00  0.00    +0.000 C 
ATOM     14  C   UNL     1      -6.668  16.053  18.399  0.00  0.00    +0.000 C 
ATOM     15  C   UNL     1      -7.201  14.986  16.213  0.00  0.00    +0.000 C 
ENDBRANCH  10  13
ENDBRANCH   4   7
BRANCH   1  16
ATOM     16  C   UNL     1       0.628  10.924  19.453  0.00  0.00    +0.000 C 
BRANCH  16  20
ATOM     17  C   UNL     1       2.768   7.470  18.386  0.00  0.00    +0.000 A 
ATOM     18  N   UNL     1       2.241   7.507  19.621  0.00  0.00    +0.000 NA
ATOM     19  C   UNL     1       1.505   8.599  19.915  0.00  0.00    +0.000 A 
ATOM     20  C   UNL     1       1.296   9.645  19.044  0.00  0.00    +0.000 A 
ATOM     21  C   UNL     1       1.818   9.457  17.788  0.00  0.00    +0.000 A 
ATOM     22  N   UNL     1       2.560   8.392  17.436  0.00  0.00    +0.000 NA
BRANCH  17  24
ATOM     23  C   UNL     1       2.817   4.774  17.903  0.00  0.00    +0.000 C 
ATOM     24  S   UNL     1       3.933   6.189  17.991  0.00  0.00    +0.000 S 
ENDBRANCH  17  24
ENDBRANCH  16  20
ENDBRANCH   1  16
BRANCH   5  25
ATOM     25  C   UNL     1      -2.809  10.011  16.641  0.00  0.00    +0.000 C 
BRANCH  25  26
ATOM     26  C   UNL     1      -2.873  10.775  15.323  0.00  0.00    +0.000 C 
BRANCH  26  27
ATOM     27  O   UNL     1      -3.833  10.167  14.466  0.00  0.00    +0.000 OA
ATOM     28  H   UNL     1      -3.599   9.227  14.378  0.00  0.00    +0.000 HD
ENDBRANCH  26  27
ENDBRANCH  25  26
ENDBRANCH   5  25
TORSDOF 8
ENDMDL
MODEL 2
REMARK VINA RESULT:      -5.9      9.195     10.982
REMARK  Name = 
REMARK  11 active torsions:
REMARK  status: ('A' for Active; 'I' for Inactive)
REMARK    1  A    between atoms: C_1  and  S_2
REMARK    2  A    between atoms: S_2  and  C_3
REMARK    3  A    between atoms: C_6  and  C_7
REMARK    4  A    between atoms: C_7  and  N_8
REMARK    5  A    between atoms: N_11  and  C_12
REMARK    6  A    between atoms: N_15  and  C_16
REMARK    7  A    between atoms: C_16  and  C_17
REMARK    8  A    between atoms: C_16  and  C_18
REMARK    9  A    between atoms: C_21  and  C_22
REMARK   10  A    between atoms: C_22  and  C_23
REMARK   11  A    between atoms: C_23  and  O_24
REMARK                            x       y       z     vdW  Elec       q    Type
REMARK                         _______ _______ _______ _____ _____    ______ ____
ROOT
ATOM      1  N   UNL     1       6.481   6.466  17.655  0.00  0.00    +0.000 NA
ATOM      2  C   UNL     1       5.149   6.311  18.266  0.00  0.00    +0.000 C 
ATOM      3  C   UNL     1       4.065   5.503  17.493  0.00  0.00    +0.000 C 
ATOM      4  N   UNL     1       4.506   4.306  16.725  0.00  0.00    +0.000 NA
ATOM      5  C   UNL     1       5.744   4.656  16.003  0.00  0.00    +0.000 C 
ATOM      6  C   UNL     1       6.868   5.289  16.881  0.00  0.00    +0.000 C 
ENDROOT
BRANCH   4   7
ATOM      7  C   UNL     1       4.249   3.042  17.471  0.00  0.00    +0.000 C 
ATOM      8  C   UNL     1       2.882   2.394  17.293  0.00  0.00    +0.000 C 
ATOM      9  C   UNL     1       1.877   2.953  18.275  0.00  0.00    +0.000 C 
ATOM     10  N   UNL     1       2.182   2.592  19.658  0.00  0.00    +0.000 NA
ATOM     11  C   UNL     1       3.557   2.989  20.030  0.00  0.00    +0.000 C 
ATOM     12  C   UNL     1       4.655   2.861  18.956  0.00  0.00    +0.000 C 
BRANCH  10  13
ATOM     13  C   UNL     1       1.170   3.204  20.569  0.00  0.00    +0.000 C 
ATOM     14  C   UNL     1       1.290   2.693  22.017  0.00  0.00    +0.000 C 
ATOM     15  C   UNL     1       1.262   4.732  20.589  0.00  0.00    +0.000 C 
ENDBRANCH  10  13
ENDBRANCH   4   7
BRANCH   1  16
ATOM     16  C   UNL     1       6.697   7.724  16.936  0.00  0.00    +0.000 C 
BRANCH  16  20
ATOM     17  C   UNL     1       9.231  10.261  19.123  0.00  0.00    +0.000 A 
ATOM     18  N   UNL     1       9.193   8.969  19.488  0.00  0.00    +0.000 NA
ATOM     19  C   UNL     1       8.421   8.164  18.729  0.00  0.00    +0.000 A 
ATOM     20  C   UNL     1       7.683   8.598  17.650  0.00  0.00    +0.000 A 
ATOM     21  C   UNL     1       7.863   9.920  17.328  0.00  0.00    +0.000 A 
ATOM     22  N   UNL     1       8.618  10.772  18.046  0.00  0.00    +0.000 NA
BRANCH  17  24
ATOM     23  C   UNL     1      11.578  11.662  19.294  0.00  0.00    +0.000 C 
ATOM     24  S   UNL     1      10.032  11.430  20.194  0.00  0.00    +0.000 S 
ENDBRANCH  17  24
ENDBRANCH  16  20
ENDBRANCH   1  16
BRANCH   5  25
ATOM     25  C   UNL     1       6.322   3.629  15.025  0.00  0.00    +0.000 C 
BRANCH  25  26
ATOM     26  C   UNL     1       6.327   4.114  13.580  0.00  0.00    +0.000 C 
BRANCH  26  27
ATOM     27  O   UNL     1       6.077   3.017  12.708  0.00  0.00    +0.000 OA
ATOM     28  H   UNL     1       5.223   3.175  12.270  0.00  0.00    +0.000 HD
ENDBRANCH  26  27
ENDBRANCH  25  26
ENDBRANCH   5  25
TORSDOF 8
ENDMDL
MODEL 3
REMARK VINA RESULT:      -5.8      3.473      5.095
REMARK  Name = 
REMARK  11 active torsions:
REMARK  status: ('A' for Active; 'I' for Inactive)
REMARK    1  A    between atoms: C_1  and  S_2
REMARK    2  A    between atoms: S_2  and  C_3
REMARK    3  A    between atoms: C_6  and  C_7
REMARK    4  A    between atoms: C_7  and  N_8
REMARK    5  A    between atoms: N_11  and  C_12
REMARK    6  A    between atoms: N_15  and  C_16
REMARK    7  A    between atoms: C_16  and  C_17
REMARK    8  A    between atoms: C_16  and  C_18
REMARK    9  A    between atoms: C_21  and  C_22
REMARK   10  A    between atoms: C_22  and  C_23
REMARK   11  A    between atoms: C_23  and  O_24
REMARK                            x       y       z     vdW  Elec       q    Type
REMARK                         _______ _______ _______ _____ _____    ______ ____
ROOT
ATOM      1  N   UNL     1       1.459  10.076  18.975  0.00  0.00    +0.000 NA
ATOM      2  C   UNL     1       2.272  11.255  18.628  0.00  0.00    +0.000 C 
ATOM      3  C   UNL     1       1.561  12.495  18.010  0.00  0.00    +0.000 C 
ATOM      4  N   UNL     1       0.205  12.841  18.516  0.00  0.00    +0.000 NA
ATOM      5  C   UNL     1      -0.574  11.593  18.633  0.00  0.00    +0.000 C 
ATOM      6  C   UNL     1       0.123  10.449  19.434  0.00  0.00    +0.000 C 
ENDROOT
BRANCH   4   7
ATOM      7  C   UNL     1       0.250  13.948  19.514  0.00  0.00    +0.000 C 
ATOM      8  C   UNL     1      -0.792  15.050  19.380  0.00  0.00    +0.000 C 
ATOM      9  C   UNL     1      -0.324  16.137  18.439  0.00  0.00    +0.000 C 
ATOM     10  N   UNL     1       0.813  16.887  18.969  0.00  0.00    +0.000 NA
ATOM     11  C   UNL     1       1.931  15.990  19.332  0.00  0.00    +0.000 C 
ATOM     12  C   UNL     1       1.579  14.619  19.944  0.00  0.00    +0.000 C 
BRANCH  10  13
ATOM     13  C   UNL     1       1.240  17.916  17.974  0.00  0.00    +0.000 C 
ATOM     14  C   UNL     1       2.388  17.427  17.071  0.00  0.00    +0.000 C 
ATOM     15  C   UNL     1       0.082  18.367  17.079  0.00  0.00    +0.000 C 
ENDBRANCH  10  13
ENDBRANCH   4   7
BRANCH   1  16
ATOM     16  C   UNL     1       1.444   9.008  17.971  0.00  0.00    +0.000 C 
BRANCH  16  20
ATOM     17  C   UNL     1       4.022   5.789  18.767  0.00  0.00    +0.000 A 
ATOM     18  N   UNL     1       4.296   6.542  17.690  0.00  0.00    +0.000 NA
ATOM     19  C   UNL     1       3.491   7.607  17.494  0.00  0.00    +0.000 A 
ATOM     20  C   UNL     1       2.429   7.930  18.309  0.00  0.00    +0.000 A 
ATOM     21  C   UNL     1       2.296   7.134  19.419  0.00  0.00    +0.000 A 
ATOM     22  N   UNL     1       3.066   6.058  19.668  0.00  0.00    +0.000 NA
BRANCH  17  24
ATOM     23  C   UNL     1       6.363   4.588  18.008  0.00  0.00    +0.000 C 
ATOM     24  S   UNL     1       4.878   4.247  18.975  0.00  0.00    +0.000 S 
ENDBRANCH  17  24
ENDBRANCH  16  20
ENDBRANCH   1  16
BRANCH   5  25
ATOM     25  C   UNL     1      -2.056  11.701  19.003  0.00  0.00    +0.000 C 
BRANCH  25  26
ATOM     26  C   UNL     1      -2.984  11.592  17.798  0.00  0.00    +0.000 C 
BRANCH  26  27
ATOM     27  O   UNL     1      -2.233  11.758  16.600  0.00  0.00    +0.000 OA
ATOM     28  H   UNL     1      -1.768  10.922  16.423  0.00  0.00    +0.000 HD
ENDBRANCH  26  27
ENDBRANCH  25  26
ENDBRANCH   5  25
TORSDOF 8
ENDMDL
MODEL 4
REMARK VINA RESULT:      -5.8      3.042      4.518
REMARK  Name = 
REMARK  11 active torsions:
REMARK  status: ('A' for Active; 'I' for Inactive)
REMARK    1  A    between atoms: C_1  and  S_2
REMARK    2  A    between atoms: S_2  and  C_3
REMARK    3  A    between atoms: C_6  and  C_7
REMARK    4  A    between atoms: C_7  and  N_8
REMARK    5  A    between atoms: N_11  and  C_12
REMARK    6  A    between atoms: N_15  and  C_16
REMARK    7  A    between atoms: C_16  and  C_17
REMARK    8  A    between atoms: C_16  and  C_18
REMARK    9  A    between atoms: C_21  and  C_22
REMARK   10  A    between atoms: C_22  and  C_23
REMARK   11  A    between atoms: C_23  and  O_24
REMARK                            x       y       z     vdW  Elec       q    Type
REMARK                         _______ _______ _______ _____ _____    ______ ____
ROOT
ATOM      1  N   UNL     1       1.283  10.768  19.014  0.00  0.00    +0.000 NA
ATOM      2  C   UNL     1       1.940  12.087  19.001  0.00  0.00    +0.000 C 
ATOM      3  C   UNL     1       1.173  13.294  18.382  0.00  0.00    +0.000 C 
ATOM      4  N   UNL     1      -0.298  13.368  18.599  0.00  0.00    +0.000 NA
ATOM      5  C   UNL     1      -0.860  12.020  18.390  0.00  0.00    +0.000 C 
ATOM      6  C   UNL     1      -0.163  10.878  19.194  0.00  0.00    +0.000 C 
ENDROOT
BRANCH   4   7
ATOM      7  C   UNL     1      -0.649  14.309  19.701  0.00  0.00    +0.000 C 
ATOM      8  C   UNL     1       0.251  14.312  20.929  0.00  0.00    +0.000 C 
ATOM      9  C   UNL     1      -0.189  13.272  21.934  0.00  0.00    +0.000 C 
ATOM     10  N   UNL     1      -1.485  13.584  22.534  0.00  0.00    +0.000 NA
ATOM     11  C   UNL     1      -2.523  13.790  21.502  0.00  0.00    +0.000 C 
ATOM     12  C   UNL     1      -2.106  14.494  20.196  0.00  0.00    +0.000 C 
BRANCH  10  13
ATOM     13  C   UNL     1      -1.868  12.501  23.488  0.00  0.00    +0.000 C 
ATOM     14  C   UNL     1      -3.392  12.399  23.687  0.00  0.00    +0.000 C 
ATOM     15  C   UNL     1      -1.347  11.132  23.045  0.00  0.00    +0.000 C 
ENDBRANCH  10  13
ENDBRANCH   4   7
BRANCH   1  16
ATOM     16  C   UNL     1       1.659   9.870  17.919  0.00  0.00    +0.000 C 
BRANCH  16  20
ATOM     17  C   UNL     1       2.827   6.069  19.273  0.00  0.00    +0.000 A 
ATOM     18  N   UNL     1       3.266   6.451  18.063  0.00  0.00    +0.000 NA
ATOM     19  C   UNL     1       2.930   7.700  17.679  0.00  0.00    +0.000 A 
ATOM     20  C   UNL     1       2.169   8.560  18.439  0.00  0.00    +0.000 A 
ATOM     21  C   UNL     1       1.845   8.088  19.687  0.00  0.00    +0.000 A 
ATOM     22  N   UNL     1       2.151   6.853  20.125  0.00  0.00    +0.000 NA
BRANCH  17  24
ATOM     23  C   UNL     1       1.516   4.154  20.727  0.00  0.00    +0.000 C 
ATOM     24  S   UNL     1       3.024   4.373  19.760  0.00  0.00    +0.000 S 
ENDBRANCH  17  24
ENDBRANCH  16  20
ENDBRANCH   1  16
BRANCH   5  25
ATOM     25  C   UNL     1      -2.383  11.862  18.420  0.00  0.00    +0.000 C 
BRANCH  25  26
ATOM     26  C   UNL     1      -2.928  11.075  17.233  0.00  0.00    +0.000 C 
BRANCH  26  27
ATOM     27  O   UNL     1      -2.351  11.569  16.029  0.00  0.00    +0.000 OA
ATOM     28  H   UNL     1      -2.197  12.522  16.143  0.00  0.00    +0.000 HD
ENDBRANCH  26  27
ENDBRANCH  25  26
ENDBRANCH   5  25
TORSDOF 8
ENDMDL
MODEL 5
REMARK VINA RESULT:      -5.7      2.970      4.314
REMARK  Name = 
REMARK  11 active torsions:
REMARK  status: ('A' for Active; 'I' for Inactive)
REMARK    1  A    between atoms: C_1  and  S_2
REMARK    2  A    between atoms: S_2  and  C_3
REMARK    3  A    between atoms: C_6  and  C_7
REMARK    4  A    between atoms: C_7  and  N_8
REMARK    5  A    between atoms: N_11  and  C_12
REMARK    6  A    between atoms: N_15  and  C_16
REMARK    7  A    between atoms: C_16  and  C_17
REMARK    8  A    between atoms: C_16  and  C_18
REMARK    9  A    between atoms: C_21  and  C_22
REMARK   10  A    between atoms: C_22  and  C_23
REMARK   11  A    between atoms: C_23  and  O_24
REMARK                            x       y       z     vdW  Elec       q    Type
REMARK                         _______ _______ _______ _____ _____    ______ ____
ROOT
ATOM      1  N   UNL     1       0.639   9.625  19.315  0.00  0.00    +0.000 NA
ATOM      2  C   UNL     1       0.937  10.489  20.471  0.00  0.00    +0.000 C 
ATOM      3  C   UNL     1       0.464  11.973  20.432  0.00  0.00    +0.000 C 
ATOM      4  N   UNL     1      -0.849  12.267  19.797  0.00  0.00    +0.000 NA
ATOM      5  C   UNL     1      -0.939  11.488  18.547  0.00  0.00    +0.000 C 
ATOM      6  C   UNL     1      -0.639   9.963  18.694  0.00  0.00    +0.000 C 
ENDROOT
BRANCH   4   7
ATOM      7  C   UNL     1      -1.930  12.437  20.809  0.00  0.00    +0.000 C 
ATOM      8  C   UNL     1      -2.739  13.726  20.756  0.00  0.00    +0.000 C 
ATOM      9  C   UNL     1      -2.077  14.822  21.560  0.00  0.00    +0.000 C 
ATOM     10  N   UNL     1      -2.081  14.546  22.996  0.00  0.00    +0.000 NA
ATOM     11  C   UNL     1      -1.471  13.233  23.296  0.00  0.00    +0.000 C 
ATOM     12  C   UNL     1      -1.726  12.081  22.304  0.00  0.00    +0.000 C 
BRANCH  10  13
ATOM     13  C   UNL     1      -1.384  15.651  23.719  0.00  0.00    +0.000 C 
ATOM     14  C   UNL     1      -2.061  17.018  23.506  0.00  0.00    +0.000 C 
ATOM     15  C   UNL     1      -1.292  15.388  25.224  0.00  0.00    +0.000 C 
ENDBRANCH  10  13
ENDBRANCH   4   7
BRANCH   1  16
ATOM     16  C   UNL     1       1.729   9.480  18.346  0.00  0.00    +0.000 C 
BRANCH  16  20
ATOM     17  C   UNL     1       3.789   5.849  18.815  0.00  0.00    +0.000 A 
ATOM     18  N   UNL     1       2.845   6.141  19.725  0.00  0.00    +0.000 NA
ATOM     19  C   UNL     1       2.155   7.281  19.515  0.00  0.00    +0.000 A 
ATOM     20  C   UNL     1       2.382   8.135  18.459  0.00  0.00    +0.000 A 
ATOM     21  C   UNL     1       3.315   7.693  17.554  0.00  0.00    +0.000 A 
ATOM     22  N   UNL     1       4.036   6.566  17.709  0.00  0.00    +0.000 NA
BRANCH  17  24
ATOM     23  C   UNL     1       6.476   5.362  19.019  0.00  0.00    +0.000 C 
ATOM     24  S   UNL     1       4.897   4.497  19.132  0.00  0.00    +0.000 S 
ENDBRANCH  17  24
ENDBRANCH  16  20
ENDBRANCH   1  16
BRANCH   5  25
ATOM     25  C   UNL     1      -2.145  11.726  17.634  0.00  0.00    +0.000 C 
BRANCH  25  26
ATOM     26  C   UNL     1      -2.476  10.526  16.753  0.00  0.00    +0.000 C 
BRANCH  26  27
ATOM     27  O   UNL     1      -2.344  10.890  15.384  0.00  0.00    +0.000 OA
ATOM     28  H   UNL     1      -2.363  11.861  15.332  0.00  0.00    +0.000 HD
ENDBRANCH  26  27
ENDBRANCH  25  26
ENDBRANCH   5  25
TORSDOF 8
ENDMDL
MODEL 6
REMARK VINA RESULT:      -5.7      2.721      4.230
REMARK  Name = 
REMARK  11 active torsions:
REMARK  status: ('A' for Active; 'I' for Inactive)
REMARK    1  A    between atoms: C_1  and  S_2
REMARK    2  A    between atoms: S_2  and  C_3
REMARK    3  A    between atoms: C_6  and  C_7
REMARK    4  A    between atoms: C_7  and  N_8
REMARK    5  A    between atoms: N_11  and  C_12
REMARK    6  A    between atoms: N_15  and  C_16
REMARK    7  A    between atoms: C_16  and  C_17
REMARK    8  A    between atoms: C_16  and  C_18
REMARK    9  A    between atoms: C_21  and  C_22
REMARK   10  A    between atoms: C_22  and  C_23
REMARK   11  A    between atoms: C_23  and  O_24
REMARK                            x       y       z     vdW  Elec       q    Type
REMARK                         _______ _______ _______ _____ _____    ______ ____
ROOT
ATOM      1  N   UNL     1       0.333   9.887  19.375  0.00  0.00    +0.000 NA
ATOM      2  C   UNL     1       0.641  10.884  20.416  0.00  0.00    +0.000 C 
ATOM      3  C   UNL     1       0.048  12.317  20.273  0.00  0.00    +0.000 C 
ATOM      4  N   UNL     1      -1.327  12.447  19.718  0.00  0.00    +0.000 NA
ATOM      5  C   UNL     1      -1.442  11.541  18.560  0.00  0.00    +0.000 C 
ATOM      6  C   UNL     1      -1.010  10.065  18.827  0.00  0.00    +0.000 C 
ENDROOT
BRANCH   4   7
ATOM      7  C   UNL     1      -2.344  12.638  20.792  0.00  0.00    +0.000 C 
ATOM      8  C   UNL     1      -3.097  13.962  20.812  0.00  0.00    +0.000 C 
ATOM      9  C   UNL     1      -2.345  15.009  21.602  0.00  0.00    +0.000 C 
ATOM     10  N   UNL     1      -2.283  14.699  23.029  0.00  0.00    +0.000 NA
ATOM     11  C   UNL     1      -1.716  13.355  23.266  0.00  0.00    +0.000 C 
ATOM     12  C   UNL     1      -2.075  12.238  22.265  0.00  0.00    +0.000 C 
BRANCH  10  13
ATOM     13  C   UNL     1      -1.500  15.756  23.736  0.00  0.00    +0.000 C 
ATOM     14  C   UNL     1      -2.169  17.141  23.655  0.00  0.00    +0.000 C 
ATOM     15  C   UNL     1      -1.274  15.415  25.211  0.00  0.00    +0.000 C 
ENDBRANCH  10  13
ENDBRANCH   4   7
BRANCH   1  16
ATOM     16  C   UNL     1       1.358   9.725  18.341  0.00  0.00    +0.000 C 
BRANCH  16  20
ATOM     17  C   UNL     1       3.354   6.058  18.803  0.00  0.00    +0.000 A 
ATOM     18  N   UNL     1       3.656   6.787  17.717  0.00  0.00    +0.000 NA
ATOM     19  C   UNL     1       3.049   7.989  17.625  0.00  0.00    +0.000 A 
ATOM     20  C   UNL     1       2.153   8.471  18.553  0.00  0.00    +0.000 A 
ATOM     21  C   UNL     1       1.984   7.672  19.656  0.00  0.00    +0.000 A 
ATOM     22  N   UNL     1       2.561   6.465  19.804  0.00  0.00    +0.000 NA
BRANCH  17  24
ATOM     23  C   UNL     1       5.633   4.604  18.361  0.00  0.00    +0.000 C 
ATOM     24  S   UNL     1       3.923   4.377  18.892  0.00  0.00    +0.000 S 
ENDBRANCH  17  24
ENDBRANCH  16  20
ENDBRANCH   1  16
BRANCH   5  25
ATOM     25  C   UNL     1      -2.726  11.596  17.727  0.00  0.00    +0.000 C 
BRANCH  25  26
ATOM     26  C   UNL     1      -2.632  10.801  16.429  0.00  0.00    +0.000 C 
BRANCH  26  27
ATOM     27  O   UNL     1      -3.183  11.565  15.361  0.00  0.00    +0.000 OA
ATOM     28  H   UNL     1      -4.144  11.618  15.500  0.00  0.00    +0.000 HD
ENDBRANCH  26  27
ENDBRANCH  25  26
ENDBRANCH   5  25
TORSDOF 8
ENDMDL
MODEL 7
REMARK VINA RESULT:      -5.7      4.175      4.984
REMARK  Name = 
REMARK  11 active torsions:
REMARK  status: ('A' for Active; 'I' for Inactive)
REMARK    1  A    between atoms: C_1  and  S_2
REMARK    2  A    between atoms: S_2  and  C_3
REMARK    3  A    between atoms: C_6  and  C_7
REMARK    4  A    between atoms: C_7  and  N_8
REMARK    5  A    between atoms: N_11  and  C_12
REMARK    6  A    between atoms: N_15  and  C_16
REMARK    7  A    between atoms: C_16  and  C_17
REMARK    8  A    between atoms: C_16  and  C_18
REMARK    9  A    between atoms: C_21  and  C_22
REMARK   10  A    between atoms: C_22  and  C_23
REMARK   11  A    between atoms: C_23  and  O_24
REMARK                            x       y       z     vdW  Elec       q    Type
REMARK                         _______ _______ _______ _____ _____    ______ ____
ROOT
ATOM      1  N   UNL     1       0.149   9.011  21.219  0.00  0.00    +0.000 NA
ATOM      2  C   UNL     1      -0.619   9.208  22.460  0.00  0.00    +0.000 C 
ATOM      3  C   UNL     1      -0.605  10.616  23.128  0.00  0.00    +0.000 C 
ATOM      4  N   UNL     1      -0.605  11.808  22.237  0.00  0.00    +0.000 NA
ATOM      5  C   UNL     1       0.352  11.561  21.142  0.00  0.00    +0.000 C 
ATOM      6  C   UNL     1       0.159  10.209  20.384  0.00  0.00    +0.000 C 
ENDROOT
BRANCH   4   7
ATOM      7  C   UNL     1      -1.966  12.400  22.101  0.00  0.00    +0.000 C 
ATOM      8  C   UNL     1      -2.051  13.892  21.811  0.00  0.00    +0.000 C 
ATOM      9  C   UNL     1      -2.035  14.701  23.088  0.00  0.00    +0.000 C 
ATOM     10  N   UNL     1      -3.239  14.502  23.894  0.00  0.00    +0.000 NA
ATOM     11  C   UNL     1      -3.465  13.070  24.182  0.00  0.00    +0.000 C 
ATOM     12  C   UNL     1      -3.119  12.053  23.077  0.00  0.00    +0.000 C 
BRANCH  10  13
ATOM     13  C   UNL     1      -3.137  15.304  25.149  0.00  0.00    +0.000 C 
ATOM     14  C   UNL     1      -1.684  15.457  25.638  0.00  0.00    +0.000 C 
ATOM     15  C   UNL     1      -3.743  16.701  24.992  0.00  0.00    +0.000 C 
ENDBRANCH  10  13
ENDBRANCH   4   7
BRANCH   1  16
ATOM     16  C   UNL     1       1.480   8.421  21.394  0.00  0.00    +0.000 C 
BRANCH  16  20
ATOM     17  C   UNL     1       2.488   5.395  18.660  0.00  0.00    +0.000 A 
ATOM     18  N   UNL     1       1.930   5.013  19.820  0.00  0.00    +0.000 NA
ATOM     19  C   UNL     1       1.558   6.007  20.652  0.00  0.00    +0.000 A 
ATOM     20  C   UNL     1       1.736   7.345  20.381  0.00  0.00    +0.000 A 
ATOM     21  C   UNL     1       2.243   7.615  19.135  0.00  0.00    +0.000 A 
ATOM     22  N   UNL     1       2.634   6.667  18.263  0.00  0.00    +0.000 NA
BRANCH  17  24
ATOM     23  C   UNL     1       2.216   2.733  18.080  0.00  0.00    +0.000 C 
ATOM     24  S   UNL     1       3.215   4.160  17.611  0.00  0.00    +0.000 S 
ENDBRANCH  17  24
ENDBRANCH  16  20
ENDBRANCH   1  16
BRANCH   5  25
ATOM     25  C   UNL     1       0.638  12.703  20.163  0.00  0.00    +0.000 C 
BRANCH  25  26
ATOM     26  C   UNL     1       0.077  12.453  18.768  0.00  0.00    +0.000 C 
BRANCH  26  27
ATOM     27  O   UNL     1      -0.979  13.371  18.507  0.00  0.00    +0.000 OA
ATOM     28  H   UNL     1      -1.677  13.214  19.165  0.00  0.00    +0.000 HD
ENDBRANCH  26  27
ENDBRANCH  25  26
ENDBRANCH   5  25
TORSDOF 8
ENDMDL
MODEL 8
REMARK VINA RESULT:      -5.7      3.027      4.484
REMARK  Name = 
REMARK  11 active torsions:
REMARK  status: ('A' for Active; 'I' for Inactive)
REMARK    1  A    between atoms: C_1  and  S_2
REMARK    2  A    between atoms: S_2  and  C_3
REMARK    3  A    between atoms: C_6  and  C_7
REMARK    4  A    between atoms: C_7  and  N_8
REMARK    5  A    between atoms: N_11  and  C_12
REMARK    6  A    between atoms: N_15  and  C_16
REMARK    7  A    between atoms: C_16  and  C_17
REMARK    8  A    between atoms: C_16  and  C_18
REMARK    9  A    between atoms: C_21  and  C_22
REMARK   10  A    between atoms: C_22  and  C_23
REMARK   11  A    between atoms: C_23  and  O_24
REMARK                            x       y       z     vdW  Elec       q    Type
REMARK                         _______ _______ _______ _____ _____    ______ ____
ROOT
ATOM      1  N   UNL     1       1.620   9.970  18.883  0.00  0.00    +0.000 NA
ATOM      2  C   UNL     1       2.358  11.216  18.610  0.00  0.00    +0.000 C 
ATOM      3  C   UNL     1       1.572  12.438  18.046  0.00  0.00    +0.000 C 
ATOM      4  N   UNL     1       0.190  12.666  18.548  0.00  0.00    +0.000 NA
ATOM      5  C   UNL     1      -0.505  11.365  18.587  0.00  0.00    +0.000 C 
ATOM      6  C   UNL     1       0.257  10.229  19.339  0.00  0.00    +0.000 C 
ENDROOT
BRANCH   4   7
ATOM      7  C   UNL     1       0.149  13.719  19.602  0.00  0.00    +0.000 C 
ATOM      8  C   UNL     1       0.585  13.318  21.005  0.00  0.00    +0.000 C 
ATOM      9  C   UNL     1      -0.571  12.750  21.797  0.00  0.00    +0.000 C 
ATOM     10  N   UNL     1      -1.593  13.752  22.096  0.00  0.00    +0.000 NA
ATOM     11  C   UNL     1      -2.075  14.415  20.866  0.00  0.00    +0.000 C 
ATOM     12  C   UNL     1      -1.046  14.694  19.752  0.00  0.00    +0.000 C 
BRANCH  10  13
ATOM     13  C   UNL     1      -2.714  13.113  22.848  0.00  0.00    +0.000 C 
ATOM     14  C   UNL     1      -3.996  12.985  22.003  0.00  0.00    +0.000 C 
ATOM     15  C   UNL     1      -2.340  11.723  23.369  0.00  0.00    +0.000 C 
ENDBRANCH  10  13
ENDBRANCH   4   7
BRANCH   1  16
ATOM     16  C   UNL     1       1.689   8.958  17.825  0.00  0.00    +0.000 C 
BRANCH  16  20
ATOM     17  C   UNL     1       4.021   5.593  18.765  0.00  0.00    +0.000 A 
ATOM     18  N   UNL     1       4.371   6.297  17.676  0.00  0.00    +0.000 NA
ATOM     19  C   UNL     1       3.646   7.408  17.433  0.00  0.00    +0.000 A 
ATOM     20  C   UNL     1       2.590   7.824  18.213  0.00  0.00    +0.000 A 
ATOM     21  C   UNL     1       2.377   7.069  19.339  0.00  0.00    +0.000 A 
ATOM     22  N   UNL     1       3.066   5.951  19.634  0.00  0.00    +0.000 NA
BRANCH  17  24
ATOM     23  C   UNL     1       3.433   3.189  19.938  0.00  0.00    +0.000 C 
ATOM     24  S   UNL     1       4.765   4.002  19.032  0.00  0.00    +0.000 S 
ENDBRANCH  17  24
ENDBRANCH  16  20
ENDBRANCH   1  16
BRANCH   5  25
ATOM     25  C   UNL     1      -1.995  11.355  18.939  0.00  0.00    +0.000 C 
BRANCH  25  26
ATOM     26  C   UNL     1      -2.895  11.645  17.743  0.00  0.00    +0.000 C 
BRANCH  26  27
ATOM     27  O   UNL     1      -2.107  11.720  16.560  0.00  0.00    +0.000 OA
ATOM     28  H   UNL     1      -1.437  12.412  16.694  0.00  0.00    +0.000 HD
ENDBRANCH  26  27
ENDBRANCH  25  26
ENDBRANCH   5  25
TORSDOF 8
ENDMDL
MODEL 9
REMARK VINA RESULT:      -5.6      2.799      4.041
REMARK  Name = 
REMARK  11 active torsions:
REMARK  status: ('A' for Active; 'I' for Inactive)
REMARK    1  A    between atoms: C_1  and  S_2
REMARK    2  A    between atoms: S_2  and  C_3
REMARK    3  A    between atoms: C_6  and  C_7
REMARK    4  A    between atoms: C_7  and  N_8
REMARK    5  A    between atoms: N_11  and  C_12
REMARK    6  A    between atoms: N_15  and  C_16
REMARK    7  A    between atoms: C_16  and  C_17
REMARK    8  A    between atoms: C_16  and  C_18
REMARK    9  A    between atoms: C_21  and  C_22
REMARK   10  A    between atoms: C_22  and  C_23
REMARK   11  A    between atoms: C_23  and  O_24
REMARK                            x       y       z     vdW  Elec       q    Type
REMARK                         _______ _______ _______ _____ _____    ______ ____
ROOT
ATOM      1  N   UNL     1       0.905  10.703  19.461  0.00  0.00    +0.000 NA
ATOM      2  C   UNL     1       1.630  11.969  19.671  0.00  0.00    +0.000 C 
ATOM      3  C   UNL     1       0.961  13.296  19.204  0.00  0.00    +0.000 C 
ATOM      4  N   UNL     1      -0.513  13.425  19.365  0.00  0.00    +0.000 NA
ATOM      5  C   UNL     1      -1.134  12.157  18.936  0.00  0.00    +0.000 C 
ATOM      6  C   UNL     1      -0.540  10.872  19.592  0.00  0.00    +0.000 C 
ENDROOT
BRANCH   4   7
ATOM      7  C   UNL     1      -0.871  14.216  20.577  0.00  0.00    +0.000 C 
ATOM      8  C   UNL     1      -0.578  13.586  21.932  0.00  0.00    +0.000 C 
ATOM      9  C   UNL     1      -1.726  12.718  22.394  0.00  0.00    +0.000 C 
ATOM     10  N   UNL     1      -2.929  13.492  22.697  0.00  0.00    +0.000 NA
ATOM     11  C   UNL     1      -3.334  14.333  21.551  0.00  0.00    +0.000 C 
ATOM     12  C   UNL     1      -2.217  14.973  20.702  0.00  0.00    +0.000 C 
BRANCH  10  13
ATOM     13  C   UNL     1      -4.026  12.568  23.113  0.00  0.00    +0.000 C 
ATOM     14  C   UNL     1      -4.184  12.487  24.643  0.00  0.00    +0.000 C 
ATOM     15  C   UNL     1      -5.375  12.966  22.509  0.00  0.00    +0.000 C 
ENDBRANCH  10  13
ENDBRANCH   4   7
BRANCH   1  16
ATOM     16  C   UNL     1       1.290   9.952  18.263  0.00  0.00    +0.000 C 
BRANCH  16  20
ATOM     17  C   UNL     1       2.960   6.203  19.156  0.00  0.00    +0.000 A 
ATOM     18  N   UNL     1       3.304   6.764  17.985  0.00  0.00    +0.000 NA
ATOM     19  C   UNL     1       2.805   7.995  17.752  0.00  0.00    +0.000 A 
ATOM     20  C   UNL     1       1.973   8.667  18.621  0.00  0.00    +0.000 A 
ATOM     21  C   UNL     1       1.756   8.027  19.816  0.00  0.00    +0.000 A 
ATOM     22  N   UNL     1       2.226   6.799  20.105  0.00  0.00    +0.000 NA
BRANCH  17  24
ATOM     23  C   UNL     1       4.773   4.332  18.313  0.00  0.00    +0.000 C 
ATOM     24  S   UNL     1       3.379   4.501  19.445  0.00  0.00    +0.000 S 
ENDBRANCH  17  24
ENDBRANCH  16  20
ENDBRANCH   1  16
BRANCH   5  25
ATOM     25  C   UNL     1      -2.663  12.088  18.876  0.00  0.00    +0.000 C 
BRANCH  25  26
ATOM     26  C   UNL     1      -3.185  11.482  17.578  0.00  0.00    +0.000 C 
BRANCH  26  27
ATOM     27  O   UNL     1      -2.257  11.732  16.528  0.00  0.00    +0.000 OA
ATOM     28  H   UNL     1      -1.660  10.966  16.471  0.00  0.00    +0.000 HD
ENDBRANCH  26  27
ENDBRANCH  25  26
ENDBRANCH   5  25
TORSDOF 8
ENDMDL
