MODEL 1
REMARK VINA RESULT:      -8.3      0.000      0.000
REMARK  Name = 
REMARK  5 active torsions:
REMARK  status: ('A' for Active; 'I' for Inactive)
REMARK    1  A    between atoms: C_9  and  S_10
REMARK    2  A    between atoms: S_10  and  O_13
REMARK    3  A    between atoms: N_19  and  C_20
REMARK    4  A    between atoms: C_20  and  C_21
REMARK    5  A    between atoms: C_24  and  N_25
REMARK                            x       y       z     vdW  Elec       q    Type
REMARK                         _______ _______ _______ _____ _____    ______ ____
ROOT
ATOM      1  O   UNL     1       0.252   8.408  21.289  0.00  0.00    +0.000 OA
ATOM      2  C   UNL     1       1.083   8.253  20.397  0.00  0.00    +0.000 C 
ATOM      3  C   UNL     1       1.732   6.928  20.239  0.00  0.00    +0.000 A 
ATOM      4  C   UNL     1       1.445   5.901  21.148  0.00  0.00    +0.000 A 
ATOM      5  C   UNL     1       2.022   4.642  20.989  0.00  0.00    +0.000 A 
ATOM      6  C   UNL     1       2.884   4.402  19.919  0.00  0.00    +0.000 A 
ATOM      7  C   UNL     1       3.181   5.419  18.999  0.00  0.00    +0.000 A 
ATOM      8  C   UNL     1       4.037   5.179  17.915  0.00  0.00    +0.000 A 
ATOM      9  C   UNL     1       4.312   6.202  17.006  0.00  0.00    +0.000 A 
ATOM     10  C   UNL     1       3.756   7.470  17.166  0.00  0.00    +0.000 A 
ATOM     11  C   UNL     1       2.901   7.716  18.247  0.00  0.00    +0.000 A 
ATOM     12  C   UNL     1       2.601   6.704  19.165  0.00  0.00    +0.000 A 
ATOM     13  C   UNL     1       2.293   9.056  18.402  0.00  0.00    +0.000 C 
ATOM     14  O   UNL     1       2.550   9.917  17.565  0.00  0.00    +0.000 OA
ATOM     15  N   UNL     1       1.432   9.246  19.479  0.00  0.00    +0.000 N 
ENDROOT
BRANCH   9  16
ATOM     16  S   UNL     1       5.428   5.910  15.663  0.00  0.00    +0.000 S 
ATOM     17  O   UNL     1       5.385   4.497  15.358  0.00  0.00    +0.000 OA
ATOM     18  O   UNL     1       5.187   6.931  14.670  0.00  0.00    +0.000 OA
BRANCH  16  19
ATOM     19  O   UNL     1       6.886   6.153  16.309  0.00  0.00    +0.000 OA
ATOM     20  H   UNL     1       7.534   5.636  15.784  0.00  0.00    +0.000 HD
ENDBRANCH  16  19
ENDBRANCH   9  16
BRANCH  15  21
ATOM     21  C   UNL     1       0.710  10.510  19.543  0.00  0.00    +0.000 C 
BRANCH  21  22
ATOM     22  C   UNL     1      -0.622  10.535  18.818  0.00  0.00    +0.000 A 
ATOM     23  C   UNL     1      -1.621  11.452  19.185  0.00  0.00    +0.000 A 
ATOM     24  C   UNL     1      -2.780  11.595  18.416  0.00  0.00    +0.000 A 
ATOM     25  C   UNL     1      -2.951  10.810  17.270  0.00  0.00    +0.000 A 
ATOM     26  C   UNL     1      -1.991   9.850  16.922  0.00  0.00    +0.000 A 
ATOM     27  C   UNL     1      -0.837   9.711  17.702  0.00  0.00    +0.000 A 
BRANCH  25  28
ATOM     28  N   UNL     1      -4.120  11.021  16.408  0.00  0.00    +0.000 N 
ATOM     29  O   UNL     1      -5.100  11.603  16.894  0.00  0.00    +0.000 OA
ATOM     30  O   UNL     1      -4.055  10.615  15.237  0.00  0.00    +0.000 OA
ENDBRANCH  25  28
ENDBRANCH  21  22
ENDBRANCH  15  21
TORSDOF 5
ENDMDL
MODEL 2
REMARK VINA RESULT:      -8.2      2.481      3.851
REMARK  Name = 
REMARK  5 active torsions:
REMARK  status: ('A' for Active; 'I' for Inactive)
REMARK    1  A    between atoms: C_9  and  S_10
REMARK    2  A    between atoms: S_10  and  O_13
REMARK    3  A    between atoms: N_19  and  C_20
REMARK    4  A    between atoms: C_20  and  C_21
REMARK    5  A    between atoms: C_24  and  N_25
REMARK                            x       y       z     vdW  Elec       q    Type
REMARK                         _______ _______ _______ _____ _____    ______ ____
ROOT
ATOM      1  O   UNL     1       2.623   9.952  17.500  0.00  0.00    +0.000 OA
ATOM      2  C   UNL     1       2.431   8.934  18.160  0.00  0.00    +0.000 C 
ATOM      3  C   UNL     1       3.174   7.698  17.810  0.00  0.00    +0.000 A 
ATOM      4  C   UNL     1       4.023   7.690  16.694  0.00  0.00    +0.000 A 
ATOM      5  C   UNL     1       4.752   6.545  16.377  0.00  0.00    +0.000 A 
ATOM      6  C   UNL     1       4.640   5.406  17.172  0.00  0.00    +0.000 A 
ATOM      7  C   UNL     1       3.795   5.397  18.292  0.00  0.00    +0.000 A 
ATOM      8  C   UNL     1       3.689   4.258  19.102  0.00  0.00    +0.000 A 
ATOM      9  C   UNL     1       2.850   4.274  20.218  0.00  0.00    +0.000 A 
ATOM     10  C   UNL     1       2.101   5.406  20.535  0.00  0.00    +0.000 A 
ATOM     11  C   UNL     1       2.203   6.546  19.730  0.00  0.00    +0.000 A 
ATOM     12  C   UNL     1       3.046   6.559  18.612  0.00  0.00    +0.000 A 
ATOM     13  C   UNL     1       1.426   7.755  20.081  0.00  0.00    +0.000 C 
ATOM     14  O   UNL     1       0.716   7.726  21.082  0.00  0.00    +0.000 OA
ATOM     15  N   UNL     1       1.576   8.871  19.263  0.00  0.00    +0.000 N 
ENDROOT
BRANCH   9  16
ATOM     16  S   UNL     1       2.683   2.820  21.215  0.00  0.00    +0.000 S 
ATOM     17  O   UNL     1       3.961   2.144  21.220  0.00  0.00    +0.000 OA
ATOM     18  O   UNL     1       1.998   3.202  22.427  0.00  0.00    +0.000 OA
BRANCH  16  19
ATOM     19  O   UNL     1       1.710   1.866  20.352  0.00  0.00    +0.000 OA
ATOM     20  H   UNL     1       0.784   2.113  20.565  0.00  0.00    +0.000 HD
ENDBRANCH  16  19
ENDBRANCH   9  16
BRANCH  15  21
ATOM     21  C   UNL     1       0.939  10.108  19.695  0.00  0.00    +0.000 C 
BRANCH  21  22
ATOM     22  C   UNL     1      -0.437  10.369  19.112  0.00  0.00    +0.000 A 
ATOM     23  C   UNL     1      -1.290  11.325  19.687  0.00  0.00    +0.000 A 
ATOM     24  C   UNL     1      -2.484  11.691  19.058  0.00  0.00    +0.000 A 
ATOM     25  C   UNL     1      -2.838  11.092  17.844  0.00  0.00    +0.000 A 
ATOM     26  C   UNL     1      -2.026  10.096  17.285  0.00  0.00    +0.000 A 
ATOM     27  C   UNL     1      -0.836   9.732  17.925  0.00  0.00    +0.000 A 
BRANCH  25  28
ATOM     28  N   UNL     1      -4.042  11.539  17.133  0.00  0.00    +0.000 N 
ATOM     29  O   UNL     1      -4.106  11.326  15.914  0.00  0.00    +0.000 OA
ATOM     30  O   UNL     1      -4.931  12.094  17.796  0.00  0.00    +0.000 OA
ENDBRANCH  25  28
ENDBRANCH  21  22
ENDBRANCH  15  21
TORSDOF 5
ENDMDL
MODEL 3
REMARK VINA RESULT:      -8.1      2.453      3.780
REMARK  Name = 
REMARK  5 active torsions:
REMARK  status: ('A' for Active; 'I' for Inactive)
REMARK    1  A    between atoms: C_9  and  S_10
REMARK    2  A    between atoms: S_10  and  O_13
REMARK    3  A    between atoms: N_19  and  C_20
REMARK    4  A    between atoms: C_20  and  C_21
REMARK    5  A    between atoms: C_24  and  N_25
REMARK                            x       y       z     vdW  Elec       q    Type
REMARK                         _______ _______ _______ _____ _____    ______ ____
ROOT
ATOM      1  O   UNL     1       2.691   9.963  17.458  0.00  0.00    +0.000 OA
ATOM      2  C   UNL     1       2.494   8.931  18.096  0.00  0.00    +0.000 C 
ATOM      3  C   UNL     1       3.240   7.703  17.725  0.00  0.00    +0.000 A 
ATOM      4  C   UNL     1       4.097   7.718  16.616  0.00  0.00    +0.000 A 
ATOM      5  C   UNL     1       4.829   6.580  16.281  0.00  0.00    +0.000 A 
ATOM      6  C   UNL     1       4.712   5.425  17.051  0.00  0.00    +0.000 A 
ATOM      7  C   UNL     1       3.859   5.393  18.165  0.00  0.00    +0.000 A 
ATOM      8  C   UNL     1       3.747   4.237  18.951  0.00  0.00    +0.000 A 
ATOM      9  C   UNL     1       2.900   4.230  20.061  0.00  0.00    +0.000 A 
ATOM     10  C   UNL     1       2.149   5.355  20.395  0.00  0.00    +0.000 A 
ATOM     11  C   UNL     1       2.256   6.511  19.614  0.00  0.00    +0.000 A 
ATOM     12  C   UNL     1       3.106   6.548  18.504  0.00  0.00    +0.000 A 
ATOM     13  C   UNL     1       1.476   7.713  19.984  0.00  0.00    +0.000 C 
ATOM     14  O   UNL     1       0.759   7.663  20.980  0.00  0.00    +0.000 OA
ATOM     15  N   UNL     1       1.632   8.845  19.190  0.00  0.00    +0.000 N 
ENDROOT
BRANCH   9  16
ATOM     16  S   UNL     1       2.726   2.756  21.026  0.00  0.00    +0.000 S 
ATOM     17  O   UNL     1       1.574   2.039  20.525  0.00  0.00    +0.000 OA
ATOM     18  O   UNL     1       4.034   2.153  21.134  0.00  0.00    +0.000 OA
BRANCH  16  19
ATOM     19  O   UNL     1       2.284   3.292  22.481  0.00  0.00    +0.000 OA
ATOM     20  H   UNL     1       2.816   4.093  22.678  0.00  0.00    +0.000 HD
ENDBRANCH  16  19
ENDBRANCH   9  16
BRANCH  15  21
ATOM     21  C   UNL     1       0.991  10.074  19.643  0.00  0.00    +0.000 C 
BRANCH  21  22
ATOM     22  C   UNL     1      -0.392  10.332  19.076  0.00  0.00    +0.000 A 
ATOM     23  C   UNL     1      -1.246  11.277  19.670  0.00  0.00    +0.000 A 
ATOM     24  C   UNL     1      -2.448  11.642  19.056  0.00  0.00    +0.000 A 
ATOM     25  C   UNL     1      -2.809  11.054  17.839  0.00  0.00    +0.000 A 
ATOM     26  C   UNL     1      -1.997  10.069  17.262  0.00  0.00    +0.000 A 
ATOM     27  C   UNL     1      -0.799   9.706  17.886  0.00  0.00    +0.000 A 
BRANCH  25  28
ATOM     28  N   UNL     1      -4.023  11.501  17.144  0.00  0.00    +0.000 N 
ATOM     29  O   UNL     1      -4.852  12.157  17.791  0.00  0.00    +0.000 OA
ATOM     30  O   UNL     1      -4.143  11.207  15.946  0.00  0.00    +0.000 OA
ENDBRANCH  25  28
ENDBRANCH  21  22
ENDBRANCH  15  21
TORSDOF 5
ENDMDL
MODEL 4
REMARK VINA RESULT:      -7.7      3.559      8.743
REMARK  Name = 
REMARK  5 active torsions:
REMARK  status: ('A' for Active; 'I' for Inactive)
REMARK    1  A    between atoms: C_9  and  S_10
REMARK    2  A    between atoms: S_10  and  O_13
REMARK    3  A    between atoms: N_19  and  C_20
REMARK    4  A    between atoms: C_20  and  C_21
REMARK    5  A    between atoms: C_24  and  N_25
REMARK                            x       y       z     vdW  Elec       q    Type
REMARK                         _______ _______ _______ _____ _____    ______ ____
ROOT
ATOM      1  O   UNL     1       1.222  11.873  21.193  0.00  0.00    +0.000 OA
ATOM      2  C   UNL     1       0.157  11.721  20.599  0.00  0.00    +0.000 C 
ATOM      3  C   UNL     1      -1.076  12.324  21.165  0.00  0.00    +0.000 A 
ATOM      4  C   UNL     1      -1.021  12.990  22.397  0.00  0.00    +0.000 A 
ATOM      5  C   UNL     1      -2.165  13.589  22.921  0.00  0.00    +0.000 A 
ATOM      6  C   UNL     1      -3.367  13.531  22.216  0.00  0.00    +0.000 A 
ATOM      7  C   UNL     1      -3.438  12.869  20.981  0.00  0.00    +0.000 A 
ATOM      8  C   UNL     1      -4.642  12.817  20.263  0.00  0.00    +0.000 A 
ATOM      9  C   UNL     1      -4.688  12.162  19.031  0.00  0.00    +0.000 A 
ATOM     10  C   UNL     1      -3.556  11.542  18.506  0.00  0.00    +0.000 A 
ATOM     11  C   UNL     1      -2.353  11.590  19.219  0.00  0.00    +0.000 A 
ATOM     12  C   UNL     1      -2.276  12.250  20.450  0.00  0.00    +0.000 A 
ATOM     13  C   UNL     1      -1.145  10.952  18.649  0.00  0.00    +0.000 C 
ATOM     14  O   UNL     1      -1.233  10.404  17.554  0.00  0.00    +0.000 OA
ATOM     15  N   UNL     1       0.033  11.044  19.384  0.00  0.00    +0.000 N 
ENDROOT
BRANCH   9  16
ATOM     16  S   UNL     1      -6.219  12.060  18.146  0.00  0.00    +0.000 S 
ATOM     17  O   UNL     1      -6.959  10.938  18.680  0.00  0.00    +0.000 OA
ATOM     18  O   UNL     1      -6.768  13.394  18.076  0.00  0.00    +0.000 OA
BRANCH  16  19
ATOM     19  O   UNL     1      -5.781  11.604  16.662  0.00  0.00    +0.000 OA
ATOM     20  H   UNL     1      -5.011  11.001  16.750  0.00  0.00    +0.000 HD
ENDBRANCH  16  19
ENDBRANCH   9  16
BRANCH  15  21
ATOM     21  C   UNL     1       1.254  10.558  18.754  0.00  0.00    +0.000 C 
BRANCH  21  22
ATOM     22  C   UNL     1       1.568   9.092  18.989  0.00  0.00    +0.000 A 
ATOM     23  C   UNL     1       2.183   8.322  17.988  0.00  0.00    +0.000 A 
ATOM     24  C   UNL     1       2.627   7.023  18.255  0.00  0.00    +0.000 A 
ATOM     25  C   UNL     1       2.451   6.481  19.533  0.00  0.00    +0.000 A 
ATOM     26  C   UNL     1       1.789   7.215  20.526  0.00  0.00    +0.000 A 
ATOM     27  C   UNL     1       1.342   8.512  20.247  0.00  0.00    +0.000 A 
BRANCH  25  28
ATOM     28  N   UNL     1       2.998   5.156  19.845  0.00  0.00    +0.000 N 
ATOM     29  O   UNL     1       3.809   4.662  19.049  0.00  0.00    +0.000 OA
ATOM     30  O   UNL     1       2.627   4.611  20.896  0.00  0.00    +0.000 OA
ENDBRANCH  25  28
ENDBRANCH  21  22
ENDBRANCH  15  21
TORSDOF 5
ENDMDL
MODEL 5
REMARK VINA RESULT:      -7.6      3.757      8.949
REMARK  Name = 
REMARK  5 active torsions:
REMARK  status: ('A' for Active; 'I' for Inactive)
REMARK    1  A    between atoms: C_9  and  S_10
REMARK    2  A    between atoms: S_10  and  O_13
REMARK    3  A    between atoms: N_19  and  C_20
REMARK    4  A    between atoms: C_20  and  C_21
REMARK    5  A    between atoms: C_24  and  N_25
REMARK                            x       y       z     vdW  Elec       q    Type
REMARK                         _______ _______ _______ _____ _____    ______ ____
ROOT
ATOM      1  O   UNL     1       0.632  12.085  21.707  0.00  0.00    +0.000 OA
ATOM      2  C   UNL     1      -0.382  11.958  21.024  0.00  0.00    +0.000 C 
ATOM      3  C   UNL     1      -1.690  12.368  21.593  0.00  0.00    +0.000 A 
ATOM      4  C   UNL     1      -1.760  12.821  22.918  0.00  0.00    +0.000 A 
ATOM      5  C   UNL     1      -2.977  13.241  23.451  0.00  0.00    +0.000 A 
ATOM      6  C   UNL     1      -4.128  13.214  22.665  0.00  0.00    +0.000 A 
ATOM      7  C   UNL     1      -4.075  12.764  21.337  0.00  0.00    +0.000 A 
ATOM      8  C   UNL     1      -5.227  12.746  20.538  0.00  0.00    +0.000 A 
ATOM      9  C   UNL     1      -5.151  12.304  19.216  0.00  0.00    +0.000 A 
ATOM     10  C   UNL     1      -3.943  11.863  18.678  0.00  0.00    +0.000 A 
ATOM     11  C   UNL     1      -2.790  11.878  19.471  0.00  0.00    +0.000 A 
ATOM     12  C   UNL     1      -2.838  12.328  20.795  0.00  0.00    +0.000 A 
ATOM     13  C   UNL     1      -1.503  11.433  18.890  0.00  0.00    +0.000 C 
ATOM     14  O   UNL     1      -1.484  11.070  17.717  0.00  0.00    +0.000 OA
ATOM     15  N   UNL     1      -0.381  11.485  19.710  0.00  0.00    +0.000 N 
ENDROOT
BRANCH   9  16
ATOM     16  S   UNL     1      -6.615  12.241  18.223  0.00  0.00    +0.000 S 
ATOM     17  O   UNL     1      -6.368  13.018  17.029  0.00  0.00    +0.000 OA
ATOM     18  O   UNL     1      -7.051  10.864  18.182  0.00  0.00    +0.000 OA
BRANCH  16  19
ATOM     19  O   UNL     1      -7.692  13.098  19.063  0.00  0.00    +0.000 OA
ATOM     20  H   UNL     1      -8.416  13.351  18.450  0.00  0.00    +0.000 HD
ENDBRANCH  16  19
ENDBRANCH   9  16
BRANCH  15  21
ATOM     21  C   UNL     1       0.910  11.201  19.096  0.00  0.00    +0.000 C 
BRANCH  21  22
ATOM     22  C   UNL     1       1.325   9.741  19.102  0.00  0.00    +0.000 A 
ATOM     23  C   UNL     1       1.944   9.167  17.979  0.00  0.00    +0.000 A 
ATOM     24  C   UNL     1       2.480   7.877  18.038  0.00  0.00    +0.000 A 
ATOM     25  C   UNL     1       2.393   7.146  19.228  0.00  0.00    +0.000 A 
ATOM     26  C   UNL     1       1.730   7.682  20.339  0.00  0.00    +0.000 A 
ATOM     27  C   UNL     1       1.191   8.972  20.269  0.00  0.00    +0.000 A 
BRANCH  25  28
ATOM     28  N   UNL     1       3.036   5.830  19.324  0.00  0.00    +0.000 N 
ATOM     29  O   UNL     1       3.832   5.507  18.430  0.00  0.00    +0.000 OA
ATOM     30  O   UNL     1       2.755   5.120  20.302  0.00  0.00    +0.000 OA
ENDBRANCH  25  28
ENDBRANCH  21  22
ENDBRANCH  15  21
TORSDOF 5
ENDMDL
MODEL 6
REMARK VINA RESULT:      -7.5      3.818      8.850
REMARK  Name = 
REMARK  5 active torsions:
REMARK  status: ('A' for Active; 'I' for Inactive)
REMARK    1  A    between atoms: C_9  and  S_10
REMARK    2  A    between atoms: S_10  and  O_13
REMARK    3  A    between atoms: N_19  and  C_20
REMARK    4  A    between atoms: C_20  and  C_21
REMARK    5  A    between atoms: C_24  and  N_25
REMARK                            x       y       z     vdW  Elec       q    Type
REMARK                         _______ _______ _______ _____ _____    ______ ____
ROOT
ATOM      1  O   UNL     1       0.573  12.075  21.916  0.00  0.00    +0.000 OA
ATOM      2  C   UNL     1      -0.423  11.984  21.202  0.00  0.00    +0.000 C 
ATOM      3  C   UNL     1      -1.750  12.333  21.768  0.00  0.00    +0.000 A 
ATOM      4  C   UNL     1      -1.856  12.687  23.121  0.00  0.00    +0.000 A 
ATOM      5  C   UNL     1      -3.091  13.050  23.655  0.00  0.00    +0.000 A 
ATOM      6  C   UNL     1      -4.224  13.066  22.842  0.00  0.00    +0.000 A 
ATOM      7  C   UNL     1      -4.134  12.715  21.486  0.00  0.00    +0.000 A 
ATOM      8  C   UNL     1      -5.268  12.741  20.661  0.00  0.00    +0.000 A 
ATOM      9  C   UNL     1      -5.154  12.398  19.312  0.00  0.00    +0.000 A 
ATOM     10  C   UNL     1      -3.929  12.015  18.772  0.00  0.00    +0.000 A 
ATOM     11  C   UNL     1      -2.794  11.986  19.590  0.00  0.00    +0.000 A 
ATOM     12  C   UNL     1      -2.879  12.337  20.942  0.00  0.00    +0.000 A 
ATOM     13  C   UNL     1      -1.488  11.602  19.010  0.00  0.00    +0.000 C 
ATOM     14  O   UNL     1      -1.437  11.327  17.814  0.00  0.00    +0.000 OA
ATOM     15  N   UNL     1      -0.385  11.610  19.857  0.00  0.00    +0.000 N 
ENDROOT
BRANCH   9  16
ATOM     16  S   UNL     1      -6.595  12.388  18.283  0.00  0.00    +0.000 S 
ATOM     17  O   UNL     1      -7.406  11.257  18.676  0.00  0.00    +0.000 OA
ATOM     18  O   UNL     1      -7.107  13.738  18.242  0.00  0.00    +0.000 OA
BRANCH  16  19
ATOM     19  O   UNL     1      -6.027  12.007  16.822  0.00  0.00    +0.000 OA
ATOM     20  H   UNL     1      -6.012  12.829  16.285  0.00  0.00    +0.000 HD
ENDBRANCH  16  19
ENDBRANCH   9  16
BRANCH  15  21
ATOM     21  C   UNL     1       0.924  11.388  19.254  0.00  0.00    +0.000 C 
BRANCH  21  22
ATOM     22  C   UNL     1       1.321   9.935  19.079  0.00  0.00    +0.000 A 
ATOM     23  C   UNL     1       1.881   9.485  17.871  0.00  0.00    +0.000 A 
ATOM     24  C   UNL     1       2.403   8.193  17.761  0.00  0.00    +0.000 A 
ATOM     25  C   UNL     1       2.362   7.334  18.865  0.00  0.00    +0.000 A 
ATOM     26  C   UNL     1       1.756   7.747  20.059  0.00  0.00    +0.000 A 
ATOM     27  C   UNL     1       1.231   9.040  20.158  0.00  0.00    +0.000 A 
BRANCH  25  28
ATOM     28  N   UNL     1       2.992   6.011  18.784  0.00  0.00    +0.000 N 
ATOM     29  O   UNL     1       3.787   5.693  19.680  0.00  0.00    +0.000 OA
ATOM     30  O   UNL     1       2.685   5.282  17.828  0.00  0.00    +0.000 OA
ENDBRANCH  25  28
ENDBRANCH  21  22
ENDBRANCH  15  21
TORSDOF 5
ENDMDL
MODEL 7
REMARK VINA RESULT:      -7.5      3.568      8.512
REMARK  Name = 
REMARK  5 active torsions:
REMARK  status: ('A' for Active; 'I' for Inactive)
REMARK    1  A    between atoms: C_9  and  S_10
REMARK    2  A    between atoms: S_10  and  O_13
REMARK    3  A    between atoms: N_19  and  C_20
REMARK    4  A    between atoms: C_20  and  C_21
REMARK    5  A    between atoms: C_24  and  N_25
REMARK                            x       y       z     vdW  Elec       q    Type
REMARK                         _______ _______ _______ _____ _____    ______ ____
ROOT
ATOM      1  O   UNL     1       1.413  11.812  21.078  0.00  0.00    +0.000 OA
ATOM      2  C   UNL     1       0.346  11.639  20.493  0.00  0.00    +0.000 C 
ATOM      3  C   UNL     1      -0.890  12.235  21.057  0.00  0.00    +0.000 A 
ATOM      4  C   UNL     1      -0.836  12.920  22.279  0.00  0.00    +0.000 A 
ATOM      5  C   UNL     1      -1.984  13.513  22.801  0.00  0.00    +0.000 A 
ATOM      6  C   UNL     1      -3.189  13.430  22.105  0.00  0.00    +0.000 A 
ATOM      7  C   UNL     1      -3.260  12.749  20.880  0.00  0.00    +0.000 A 
ATOM      8  C   UNL     1      -4.467  12.673  20.170  0.00  0.00    +0.000 A 
ATOM      9  C   UNL     1      -4.513  12.000  18.948  0.00  0.00    +0.000 A 
ATOM     10  C   UNL     1      -3.376  11.385  18.425  0.00  0.00    +0.000 A 
ATOM     11  C   UNL     1      -2.170  11.457  19.130  0.00  0.00    +0.000 A 
ATOM     12  C   UNL     1      -2.094  12.137  20.351  0.00  0.00    +0.000 A 
ATOM     13  C   UNL     1      -0.957  10.826  18.563  0.00  0.00    +0.000 C 
ATOM     14  O   UNL     1      -1.045  10.261  17.476  0.00  0.00    +0.000 OA
ATOM     15  N   UNL     1       0.223  10.942  19.289  0.00  0.00    +0.000 N 
ENDROOT
BRANCH   9  16
ATOM     16  S   UNL     1      -6.047  11.867  18.074  0.00  0.00    +0.000 S 
ATOM     17  O   UNL     1      -6.734  10.695  18.572  0.00  0.00    +0.000 OA
ATOM     18  O   UNL     1      -6.652  13.178  18.060  0.00  0.00    +0.000 OA
BRANCH  16  19
ATOM     19  O   UNL     1      -5.607  11.485  16.570  0.00  0.00    +0.000 OA
ATOM     20  H   UNL     1      -6.272  10.855  16.216  0.00  0.00    +0.000 HD
ENDBRANCH  16  19
ENDBRANCH   9  16
BRANCH  15  21
ATOM     21  C   UNL     1       1.447  10.462  18.659  0.00  0.00    +0.000 C 
BRANCH  21  22
ATOM     22  C   UNL     1       1.815   9.023  18.968  0.00  0.00    +0.000 A 
ATOM     23  C   UNL     1       1.517   8.460  20.221  0.00  0.00    +0.000 A 
ATOM     24  C   UNL     1       1.699   7.093  20.454  0.00  0.00    +0.000 A 
ATOM     25  C   UNL     1       2.190   6.277  19.429  0.00  0.00    +0.000 A 
ATOM     26  C   UNL     1       2.545   6.832  18.192  0.00  0.00    +0.000 A 
ATOM     27  C   UNL     1       2.365   8.202  17.971  0.00  0.00    +0.000 A 
BRANCH  25  28
ATOM     28  N   UNL     1       2.294   4.827  19.637  0.00  0.00    +0.000 N 
ATOM     29  O   UNL     1       1.302   4.133  19.372  0.00  0.00    +0.000 OA
ATOM     30  O   UNL     1       3.372   4.380  20.055  0.00  0.00    +0.000 OA
ENDBRANCH  25  28
ENDBRANCH  21  22
ENDBRANCH  15  21
TORSDOF 5
ENDMDL
MODEL 8
REMARK VINA RESULT:      -7.4      4.466      9.493
REMARK  Name = 
REMARK  5 active torsions:
REMARK  status: ('A' for Active; 'I' for Inactive)
REMARK    1  A    between atoms: C_9  and  S_10
REMARK    2  A    between atoms: S_10  and  O_13
REMARK    3  A    between atoms: N_19  and  C_20
REMARK    4  A    between atoms: C_20  and  C_21
REMARK    5  A    between atoms: C_24  and  N_25
REMARK                            x       y       z     vdW  Elec       q    Type
REMARK                         _______ _______ _______ _____ _____    ______ ____
ROOT
ATOM      1  O   UNL     1      -1.594  11.245  16.969  0.00  0.00    +0.000 OA
ATOM      2  C   UNL     1      -1.948  11.653  18.072  0.00  0.00    +0.000 C 
ATOM      3  C   UNL     1      -3.399  11.769  18.365  0.00  0.00    +0.000 A 
ATOM      4  C   UNL     1      -4.335  11.485  17.362  0.00  0.00    +0.000 A 
ATOM      5  C   UNL     1      -5.700  11.557  17.635  0.00  0.00    +0.000 A 
ATOM      6  C   UNL     1      -6.136  11.909  18.912  0.00  0.00    +0.000 A 
ATOM      7  C   UNL     1      -5.212  12.197  19.928  0.00  0.00    +0.000 A 
ATOM      8  C   UNL     1      -5.645  12.540  21.217  0.00  0.00    +0.000 A 
ATOM      9  C   UNL     1      -4.708  12.812  22.216  0.00  0.00    +0.000 A 
ATOM     10  C   UNL     1      -3.342  12.762  21.949  0.00  0.00    +0.000 A 
ATOM     11  C   UNL     1      -2.903  12.421  20.664  0.00  0.00    +0.000 A 
ATOM     12  C   UNL     1      -3.822  12.132  19.648  0.00  0.00    +0.000 A 
ATOM     13  C   UNL     1      -1.451  12.344  20.388  0.00  0.00    +0.000 C 
ATOM     14  O   UNL     1      -0.668  12.574  21.305  0.00  0.00    +0.000 OA
ATOM     15  N   UNL     1      -1.064  11.980  19.102  0.00  0.00    +0.000 N 
ENDROOT
BRANCH   9  16
ATOM     16  S   UNL     1      -5.257  13.288  23.830  0.00  0.00    +0.000 S 
ATOM     17  O   UNL     1      -4.925  12.214  24.740  0.00  0.00    +0.000 OA
ATOM     18  O   UNL     1      -4.834  14.652  24.046  0.00  0.00    +0.000 OA
BRANCH  16  19
ATOM     19  O   UNL     1      -6.866  13.258  23.719  0.00  0.00    +0.000 OA
ATOM     20  H   UNL     1      -7.230  13.635  24.549  0.00  0.00    +0.000 HD
ENDBRANCH  16  19
ENDBRANCH   9  16
BRANCH  15  21
ATOM     21  C   UNL     1       0.356  11.749  18.872  0.00  0.00    +0.000 C 
BRANCH  21  22
ATOM     22  C   UNL     1       0.813  10.310  19.022  0.00  0.00    +0.000 A 
ATOM     23  C   UNL     1       1.388   9.623  17.939  0.00  0.00    +0.000 A 
ATOM     24  C   UNL     1       1.963   8.361  18.114  0.00  0.00    +0.000 A 
ATOM     25  C   UNL     1       1.961   7.771  19.383  0.00  0.00    +0.000 A 
ATOM     26  C   UNL     1       1.342   8.417  20.462  0.00  0.00    +0.000 A 
ATOM     27  C   UNL     1       0.764   9.677  20.274  0.00  0.00    +0.000 A 
BRANCH  25  28
ATOM     28  N   UNL     1       2.646   6.490  19.593  0.00  0.00    +0.000 N 
ATOM     29  O   UNL     1       3.651   6.252  18.908  0.00  0.00    +0.000 OA
ATOM     30  O   UNL     1       2.186   5.723  20.453  0.00  0.00    +0.000 OA
ENDBRANCH  25  28
ENDBRANCH  21  22
ENDBRANCH  15  21
TORSDOF 5
ENDMDL
MODEL 9
REMARK VINA RESULT:      -7.3      4.460      9.361
REMARK  Name = 
REMARK  5 active torsions:
REMARK  status: ('A' for Active; 'I' for Inactive)
REMARK    1  A    between atoms: C_9  and  S_10
REMARK    2  A    between atoms: S_10  and  O_13
REMARK    3  A    between atoms: N_19  and  C_20
REMARK    4  A    between atoms: C_20  and  C_21
REMARK    5  A    between atoms: C_24  and  N_25
REMARK                            x       y       z     vdW  Elec       q    Type
REMARK                         _______ _______ _______ _____ _____    ______ ____
ROOT
ATOM      1  O   UNL     1      -1.336  10.758  17.185  0.00  0.00    +0.000 OA
ATOM      2  C   UNL     1      -1.622  11.350  18.223  0.00  0.00    +0.000 C 
ATOM      3  C   UNL     1      -3.050  11.577  18.553  0.00  0.00    +0.000 A 
ATOM      4  C   UNL     1      -4.044  11.182  17.647  0.00  0.00    +0.000 A 
ATOM      5  C   UNL     1      -5.390  11.359  17.962  0.00  0.00    +0.000 A 
ATOM      6  C   UNL     1      -5.751  11.926  19.183  0.00  0.00    +0.000 A 
ATOM      7  C   UNL     1      -4.768  12.326  20.102  0.00  0.00    +0.000 A 
ATOM      8  C   UNL     1      -5.126  12.886  21.337  0.00  0.00    +0.000 A 
ATOM      9  C   UNL     1      -4.132  13.268  22.241  0.00  0.00    +0.000 A 
ATOM     10  C   UNL     1      -2.783  13.114  21.929  0.00  0.00    +0.000 A 
ATOM     11  C   UNL     1      -2.421  12.557  20.698  0.00  0.00    +0.000 A 
ATOM     12  C   UNL     1      -3.397  12.155  19.779  0.00  0.00    +0.000 A 
ATOM     13  C   UNL     1      -0.987  12.371  20.377  0.00  0.00    +0.000 C 
ATOM     14  O   UNL     1      -0.152  12.706  21.213  0.00  0.00    +0.000 OA
ATOM     15  N   UNL     1      -0.677  11.793  19.151  0.00  0.00    +0.000 N 
ENDROOT
BRANCH   9  16
ATOM     16  S   UNL     1      -4.585  14.016  23.781  0.00  0.00    +0.000 S 
ATOM     17  O   UNL     1      -3.473  14.835  24.213  0.00  0.00    +0.000 OA
ATOM     18  O   UNL     1      -5.924  14.535  23.633  0.00  0.00    +0.000 OA
BRANCH  16  19
ATOM     19  O   UNL     1      -4.621  12.781  24.818  0.00  0.00    +0.000 OA
ATOM     20  H   UNL     1      -4.792  11.964  24.302  0.00  0.00    +0.000 HD
ENDBRANCH  16  19
ENDBRANCH   9  16
BRANCH  15  21
ATOM     21  C   UNL     1       0.721  11.464  18.901  0.00  0.00    +0.000 C 
BRANCH  21  22
ATOM     22  C   UNL     1       1.093  10.008  19.111  0.00  0.00    +0.000 A 
ATOM     23  C   UNL     1       1.706   9.270  18.085  0.00  0.00    +0.000 A 
ATOM     24  C   UNL     1       2.203   7.985  18.325  0.00  0.00    +0.000 A 
ATOM     25  C   UNL     1       2.083   7.425  19.601  0.00  0.00    +0.000 A 
ATOM     26  C   UNL     1       1.424   8.124  20.621  0.00  0.00    +0.000 A 
ATOM     27  C   UNL     1       0.924   9.407  20.369  0.00  0.00    +0.000 A 
BRANCH  25  28
ATOM     28  N   UNL     1       2.686   6.116  19.884  0.00  0.00    +0.000 N 
ATOM     29  O   UNL     1       2.110   5.376  20.694  0.00  0.00    +0.000 OA
ATOM     30  O   UNL     1       3.732   5.822  19.286  0.00  0.00    +0.000 OA
ENDBRANCH  25  28
ENDBRANCH  21  22
ENDBRANCH  15  21
TORSDOF 5
ENDMDL
