MODEL 1
REMARK VINA RESULT:      -8.5      0.000      0.000
REMARK  Name = 
REMARK  6 active torsions:
REMARK  status: ('A' for Active; 'I' for Inactive)
REMARK    1  A    between atoms: C_2  and  C_3
REMARK    2  A    between atoms: C_7  and  C_8
REMARK    3  A    between atoms: C_11  and  C_12
REMARK    4  A    between atoms: C_25  and  C_26
REMARK    5  A    between atoms: C_26  and  C_27
REMARK    6  A    between atoms: C_27  and  O_28
REMARK                            x       y       z     vdW  Elec       q    Type
REMARK                         _______ _______ _______ _____ _____    ______ ____
ROOT
ATOM      1  C   UNL     1       2.648   6.990  19.212  0.00  0.00    +0.000 A 
ATOM      2  C   UNL     1       2.515   7.665  17.996  0.00  0.00    +0.000 A 
ATOM      3  C   UNL     1       1.810   8.860  17.884  0.00  0.00    +0.000 A 
ATOM      4  C   UNL     1       1.171   9.389  18.994  0.00  0.00    +0.000 A 
ATOM      5  C   UNL     1       1.240   8.744  20.236  0.00  0.00    +0.000 A 
ATOM      6  C   UNL     1       1.999   7.557  20.341  0.00  0.00    +0.000 A 
ENDROOT
BRANCH   1   8
ATOM      7  O   UNL     1       4.583   5.700  19.426  0.00  0.00    +0.000 OA
ATOM      8  C   UNL     1       3.354   5.652  19.358  0.00  0.00    +0.000 C 
ATOM      9  N   UNL     1       2.735   4.374  19.291  0.00  0.00    +0.000 N 
ATOM     10  C   UNL     1       1.313   4.141  19.059  0.00  0.00    +0.000 C 
ATOM     11  C   UNL     1       0.619   3.893  20.399  0.00  0.00    +0.000 C 
ATOM     12  C   UNL     1       1.298   2.784  21.210  0.00  0.00    +0.000 C 
ATOM     13  C   UNL     1       2.818   2.984  21.289  0.00  0.00    +0.000 C 
ATOM     14  C   UNL     1       3.436   3.184  19.892  0.00  0.00    +0.000 C 
BRANCH  14  15
ATOM     15  C   UNL     1       3.331   1.894  19.017  0.00  0.00    +0.000 C 
BRANCH  15  16
ATOM     16  C   UNL     1       3.834   2.027  17.580  0.00  0.00    +0.000 C 
BRANCH  16  17
ATOM     17  O   UNL     1       4.829   3.028  17.477  0.00  0.00    +0.000 OA
ATOM     18  H   UNL     1       4.957   3.411  18.365  0.00  0.00    +0.000 HD
ENDBRANCH  16  17
ENDBRANCH  15  16
ENDBRANCH  14  15
ENDBRANCH   1   8
BRANCH   5  19
ATOM     19  C   UNL     1       0.447   9.316  21.329  0.00  0.00    +0.000 A 
ATOM     20  N   UNL     1      -0.155   8.630  22.313  0.00  0.00    +0.000 NA
ATOM     21  O   UNL     1      -0.867   9.617  23.014  0.00  0.00    +0.000 OA
ATOM     22  C   UNL     1      -0.620  10.807  22.385  0.00  0.00    +0.000 A 
ATOM     23  N   UNL     1       0.207  10.676  21.373  0.00  0.00    +0.000 NA
BRANCH  22  24
ATOM     24  C   UNL     1      -1.334  11.998  22.837  0.00  0.00    +0.000 A 
ATOM     25  C   UNL     1      -2.656  11.951  23.310  0.00  0.00    +0.000 A 
ATOM     26  C   UNL     1      -3.334  13.125  23.656  0.00  0.00    +0.000 A 
ATOM     27  C   UNL     1      -2.702  14.363  23.541  0.00  0.00    +0.000 A 
ATOM     28  C   UNL     1      -1.386  14.429  23.094  0.00  0.00    +0.000 A 
ATOM     29  C   UNL     1      -0.709  13.256  22.748  0.00  0.00    +0.000 A 
ENDBRANCH  22  24
ENDBRANCH   5  19
TORSDOF 6
ENDMDL
MODEL 2
REMARK VINA RESULT:      -8.3      5.082      7.692
REMARK  Name = 
REMARK  6 active torsions:
REMARK  status: ('A' for Active; 'I' for Inactive)
REMARK    1  A    between atoms: C_2  and  C_3
REMARK    2  A    between atoms: C_7  and  C_8
REMARK    3  A    between atoms: C_11  and  C_12
REMARK    4  A    between atoms: C_25  and  C_26
REMARK    5  A    between atoms: C_26  and  C_27
REMARK    6  A    between atoms: C_27  and  O_28
REMARK                            x       y       z     vdW  Elec       q    Type
REMARK                         _______ _______ _______ _____ _____    ______ ____
ROOT
ATOM      1  C   UNL     1       5.396   4.576  17.776  0.00  0.00    +0.000 A 
ATOM      2  C   UNL     1       5.509   4.349  16.402  0.00  0.00    +0.000 A 
ATOM      3  C   UNL     1       6.406   5.053  15.606  0.00  0.00    +0.000 A 
ATOM      4  C   UNL     1       7.189   6.051  16.165  0.00  0.00    +0.000 A 
ATOM      5  C   UNL     1       7.102   6.348  17.532  0.00  0.00    +0.000 A 
ATOM      6  C   UNL     1       6.219   5.591  18.334  0.00  0.00    +0.000 A 
ENDROOT
BRANCH   1   8
ATOM      7  O   UNL     1       4.761   2.816  19.175  0.00  0.00    +0.000 OA
ATOM      8  C   UNL     1       4.384   3.873  18.665  0.00  0.00    +0.000 C 
ATOM      9  N   UNL     1       3.027   4.257  18.845  0.00  0.00    +0.000 N 
ATOM     10  C   UNL     1       2.382   5.391  18.191  0.00  0.00    +0.000 C 
ATOM     11  C   UNL     1       2.362   6.581  19.152  0.00  0.00    +0.000 C 
ATOM     12  C   UNL     1       1.746   6.223  20.508  0.00  0.00    +0.000 C 
ATOM     13  C   UNL     1       2.341   4.930  21.083  0.00  0.00    +0.000 C 
ATOM     14  C   UNL     1       2.280   3.777  20.062  0.00  0.00    +0.000 C 
BRANCH  14  15
ATOM     15  C   UNL     1       0.811   3.343  19.758  0.00  0.00    +0.000 C 
BRANCH  15  16
ATOM     16  C   UNL     1       0.656   2.090  18.895  0.00  0.00    +0.000 C 
BRANCH  16  17
ATOM     17  O   UNL     1       1.888   1.407  18.762  0.00  0.00    +0.000 OA
ATOM     18  H   UNL     1       2.195   1.171  19.657  0.00  0.00    +0.000 HD
ENDBRANCH  16  17
ENDBRANCH  15  16
ENDBRANCH  14  15
ENDBRANCH   1   8
BRANCH   5  19
ATOM     19  C   UNL     1       7.886   7.488  18.017  0.00  0.00    +0.000 A 
ATOM     20  N   UNL     1       8.633   7.517  19.131  0.00  0.00    +0.000 NA
ATOM     21  O   UNL     1       9.070   8.850  19.200  0.00  0.00    +0.000 OA
ATOM     22  C   UNL     1       8.544   9.496  18.115  0.00  0.00    +0.000 A 
ATOM     23  N   UNL     1       7.845   8.694  17.345  0.00  0.00    +0.000 NA
BRANCH  22  24
ATOM     24  C   UNL     1       8.742  10.938  17.996  0.00  0.00    +0.000 A 
ATOM     25  C   UNL     1       7.749  11.798  17.498  0.00  0.00    +0.000 A 
ATOM     26  C   UNL     1       8.005  13.162  17.322  0.00  0.00    +0.000 A 
ATOM     27  C   UNL     1       9.254  13.691  17.646  0.00  0.00    +0.000 A 
ATOM     28  C   UNL     1      10.245  12.860  18.161  0.00  0.00    +0.000 A 
ATOM     29  C   UNL     1       9.988  11.497  18.337  0.00  0.00    +0.000 A 
ENDBRANCH  22  24
ENDBRANCH   5  19
TORSDOF 6
ENDMDL
MODEL 3
REMARK VINA RESULT:      -8.2      1.565      2.485
REMARK  Name = 
REMARK  6 active torsions:
REMARK  status: ('A' for Active; 'I' for Inactive)
REMARK    1  A    between atoms: C_2  and  C_3
REMARK    2  A    between atoms: C_7  and  C_8
REMARK    3  A    between atoms: C_11  and  C_12
REMARK    4  A    between atoms: C_25  and  C_26
REMARK    5  A    between atoms: C_26  and  C_27
REMARK    6  A    between atoms: C_27  and  O_28
REMARK                            x       y       z     vdW  Elec       q    Type
REMARK                         _______ _______ _______ _____ _____    ______ ____
ROOT
ATOM      1  C   UNL     1       2.045   7.014  19.331  0.00  0.00    +0.000 A 
ATOM      2  C   UNL     1       2.117   7.762  18.154  0.00  0.00    +0.000 A 
ATOM      3  C   UNL     1       1.799   9.116  18.114  0.00  0.00    +0.000 A 
ATOM      4  C   UNL     1       1.344   9.751  19.260  0.00  0.00    +0.000 A 
ATOM      5  C   UNL     1       1.219   9.049  20.466  0.00  0.00    +0.000 A 
ATOM      6  C   UNL     1       1.593   7.687  20.498  0.00  0.00    +0.000 A 
ENDROOT
BRANCH   1   8
ATOM      7  O   UNL     1       1.405   4.825  19.837  0.00  0.00    +0.000 OA
ATOM      8  C   UNL     1       2.323   5.522  19.399  0.00  0.00    +0.000 C 
ATOM      9  N   UNL     1       3.570   4.895  19.128  0.00  0.00    +0.000 N 
ATOM     10  C   UNL     1       4.795   5.593  18.750  0.00  0.00    +0.000 C 
ATOM     11  C   UNL     1       4.961   5.530  17.231  0.00  0.00    +0.000 C 
ATOM     12  C   UNL     1       4.881   4.096  16.696  0.00  0.00    +0.000 C 
ATOM     13  C   UNL     1       3.662   3.346  17.251  0.00  0.00    +0.000 C 
ATOM     14  C   UNL     1       3.600   3.428  18.788  0.00  0.00    +0.000 C 
BRANCH  14  15
ATOM     15  C   UNL     1       4.779   2.658  19.462  0.00  0.00    +0.000 C 
BRANCH  15  16
ATOM     16  C   UNL     1       4.407   1.809  20.678  0.00  0.00    +0.000 C 
BRANCH  16  17
ATOM     17  O   UNL     1       5.562   1.371  21.368  0.00  0.00    +0.000 OA
ATOM     18  H   UNL     1       6.087   0.827  20.751  0.00  0.00    +0.000 HD
ENDBRANCH  16  17
ENDBRANCH  15  16
ENDBRANCH  14  15
ENDBRANCH   1   8
BRANCH   5  19
ATOM     19  C   UNL     1       0.631   9.770  21.599  0.00  0.00    +0.000 A 
ATOM     20  N   UNL     1       0.645   9.376  22.882  0.00  0.00    +0.000 NA
ATOM     21  O   UNL     1      -0.141  10.342  23.531  0.00  0.00    +0.000 OA
ATOM     22  C   UNL     1      -0.551  11.229  22.574  0.00  0.00    +0.000 A 
ATOM     23  N   UNL     1      -0.072  10.941  21.386  0.00  0.00    +0.000 NA
BRANCH  22  24
ATOM     24  C   UNL     1      -1.488  12.283  22.953  0.00  0.00    +0.000 A 
ATOM     25  C   UNL     1      -1.119  13.636  23.013  0.00  0.00    +0.000 A 
ATOM     26  C   UNL     1      -2.022  14.607  23.461  0.00  0.00    +0.000 A 
ATOM     27  C   UNL     1      -3.311  14.242  23.850  0.00  0.00    +0.000 A 
ATOM     28  C   UNL     1      -3.703  12.908  23.779  0.00  0.00    +0.000 A 
ATOM     29  C   UNL     1      -2.800  11.940  23.331  0.00  0.00    +0.000 A 
ENDBRANCH  22  24
ENDBRANCH   5  19
TORSDOF 6
ENDMDL
MODEL 4
REMARK VINA RESULT:      -8.1      1.770      2.381
REMARK  Name = 
REMARK  6 active torsions:
REMARK  status: ('A' for Active; 'I' for Inactive)
REMARK    1  A    between atoms: C_2  and  C_3
REMARK    2  A    between atoms: C_7  and  C_8
REMARK    3  A    between atoms: C_11  and  C_12
REMARK    4  A    between atoms: C_25  and  C_26
REMARK    5  A    between atoms: C_26  and  C_27
REMARK    6  A    between atoms: C_27  and  O_28
REMARK                            x       y       z     vdW  Elec       q    Type
REMARK                         _______ _______ _______ _____ _____    ______ ____
ROOT
ATOM      1  C   UNL     1       1.987   7.288  19.527  0.00  0.00    +0.000 A 
ATOM      2  C   UNL     1       2.128   7.952  18.306  0.00  0.00    +0.000 A 
ATOM      3  C   UNL     1       1.779   9.289  18.144  0.00  0.00    +0.000 A 
ATOM      4  C   UNL     1       1.223   9.989  19.203  0.00  0.00    +0.000 A 
ATOM      5  C   UNL     1       1.026   9.372  20.446  0.00  0.00    +0.000 A 
ATOM      6  C   UNL     1       1.430   8.028  20.605  0.00  0.00    +0.000 A 
ENDROOT
BRANCH   1   8
ATOM      7  O   UNL     1       1.489   5.183  20.408  0.00  0.00    +0.000 OA
ATOM      8  C   UNL     1       2.297   5.813  19.724  0.00  0.00    +0.000 C 
ATOM      9  N   UNL     1       3.483   5.150  19.305  0.00  0.00    +0.000 N 
ATOM     10  C   UNL     1       4.604   5.787  18.622  0.00  0.00    +0.000 C 
ATOM     11  C   UNL     1       4.486   5.535  17.118  0.00  0.00    +0.000 C 
ATOM     12  C   UNL     1       4.331   4.047  16.787  0.00  0.00    +0.000 C 
ATOM     13  C   UNL     1       3.249   3.380  17.648  0.00  0.00    +0.000 C 
ATOM     14  C   UNL     1       3.473   3.652  19.148  0.00  0.00    +0.000 C 
BRANCH  14  15
ATOM     15  C   UNL     1       4.770   2.963  19.680  0.00  0.00    +0.000 C 
BRANCH  15  16
ATOM     16  C   UNL     1       4.566   1.623  20.385  0.00  0.00    +0.000 C 
BRANCH  16  17
ATOM     17  O   UNL     1       5.553   1.413  21.378  0.00  0.00    +0.000 OA
ATOM     18  H   UNL     1       5.281   0.640  21.907  0.00  0.00    +0.000 HD
ENDBRANCH  16  17
ENDBRANCH  15  16
ENDBRANCH  14  15
ENDBRANCH   1   8
BRANCH   5  19
ATOM     19  C   UNL     1       0.335  10.154  21.476  0.00  0.00    +0.000 A 
ATOM     20  N   UNL     1       0.506  10.040  22.802  0.00  0.00    +0.000 NA
ATOM     21  O   UNL     1      -0.459  10.912  23.334  0.00  0.00    +0.000 OA
ATOM     22  C   UNL     1      -1.116  11.471  22.272  0.00  0.00    +0.000 A 
ATOM     23  N   UNL     1      -0.640  11.065  21.118  0.00  0.00    +0.000 NA
BRANCH  22  24
ATOM     24  C   UNL     1      -2.262  12.337  22.537  0.00  0.00    +0.000 A 
ATOM     25  C   UNL     1      -3.095  12.166  23.655  0.00  0.00    +0.000 A 
ATOM     26  C   UNL     1      -4.231  12.964  23.830  0.00  0.00    +0.000 A 
ATOM     27  C   UNL     1      -4.550  13.949  22.896  0.00  0.00    +0.000 A 
ATOM     28  C   UNL     1      -3.726  14.148  21.792  0.00  0.00    +0.000 A 
ATOM     29  C   UNL     1      -2.591  13.351  21.618  0.00  0.00    +0.000 A 
ENDBRANCH  22  24
ENDBRANCH   5  19
TORSDOF 6
ENDMDL
MODEL 5
REMARK VINA RESULT:      -8.0      5.467      8.107
REMARK  Name = 
REMARK  6 active torsions:
REMARK  status: ('A' for Active; 'I' for Inactive)
REMARK    1  A    between atoms: C_2  and  C_3
REMARK    2  A    between atoms: C_7  and  C_8
REMARK    3  A    between atoms: C_11  and  C_12
REMARK    4  A    between atoms: C_25  and  C_26
REMARK    5  A    between atoms: C_26  and  C_27
REMARK    6  A    between atoms: C_27  and  O_28
REMARK                            x       y       z     vdW  Elec       q    Type
REMARK                         _______ _______ _______ _____ _____    ______ ____
ROOT
ATOM      1  C   UNL     1       5.756   4.682  18.055  0.00  0.00    +0.000 A 
ATOM      2  C   UNL     1       6.271   4.110  16.889  0.00  0.00    +0.000 A 
ATOM      3  C   UNL     1       7.187   4.773  16.080  0.00  0.00    +0.000 A 
ATOM      4  C   UNL     1       7.578   6.065  16.396  0.00  0.00    +0.000 A 
ATOM      5  C   UNL     1       7.076   6.706  17.536  0.00  0.00    +0.000 A 
ATOM      6  C   UNL     1       6.182   6.000  18.372  0.00  0.00    +0.000 A 
ENDROOT
BRANCH   1   8
ATOM      7  O   UNL     1       5.091   3.039  19.577  0.00  0.00    +0.000 OA
ATOM      8  C   UNL     1       4.706   4.014  18.928  0.00  0.00    +0.000 C 
ATOM      9  N   UNL     1       3.321   4.332  18.953  0.00  0.00    +0.000 N 
ATOM     10  C   UNL     1       2.679   5.353  18.131  0.00  0.00    +0.000 C 
ATOM     11  C   UNL     1       2.514   6.632  18.954  0.00  0.00    +0.000 C 
ATOM     12  C   UNL     1       1.800   6.378  20.286  0.00  0.00    +0.000 C 
ATOM     13  C   UNL     1       2.407   5.188  21.042  0.00  0.00    +0.000 C 
ATOM     14  C   UNL     1       2.495   3.936  20.148  0.00  0.00    +0.000 C 
BRANCH  14  15
ATOM     15  C   UNL     1       1.083   3.385  19.773  0.00  0.00    +0.000 C 
BRANCH  15  16
ATOM     16  C   UNL     1       1.038   1.921  19.336  0.00  0.00    +0.000 C 
BRANCH  16  17
ATOM     17  O   UNL     1       1.824   1.710  18.178  0.00  0.00    +0.000 OA
ATOM     18  H   UNL     1       2.028   2.583  17.795  0.00  0.00    +0.000 HD
ENDBRANCH  16  17
ENDBRANCH  15  16
ENDBRANCH  14  15
ENDBRANCH   1   8
BRANCH   5  19
ATOM     19  C   UNL     1       7.460   8.107  17.737  0.00  0.00    +0.000 A 
ATOM     20  N   UNL     1       6.901   9.174  17.146  0.00  0.00    +0.000 NA
ATOM     21  O   UNL     1       7.698  10.246  17.580  0.00  0.00    +0.000 OA
ATOM     22  C   UNL     1       8.662   9.719  18.395  0.00  0.00    +0.000 A 
ATOM     23  N   UNL     1       8.533   8.421  18.550  0.00  0.00    +0.000 NA
BRANCH  22  24
ATOM     24  C   UNL     1       9.711  10.602  18.899  0.00  0.00    +0.000 A 
ATOM     25  C   UNL     1      10.816  10.981  18.120  0.00  0.00    +0.000 A 
ATOM     26  C   UNL     1      11.842  11.761  18.664  0.00  0.00    +0.000 A 
ATOM     27  C   UNL     1      11.778  12.180  19.993  0.00  0.00    +0.000 A 
ATOM     28  C   UNL     1      10.681  11.833  20.776  0.00  0.00    +0.000 A 
ATOM     29  C   UNL     1       9.656  11.053  20.231  0.00  0.00    +0.000 A 
ENDBRANCH  22  24
ENDBRANCH   5  19
TORSDOF 6
ENDMDL
MODEL 6
REMARK VINA RESULT:      -8.0      1.113      1.286
REMARK  Name = 
REMARK  6 active torsions:
REMARK  status: ('A' for Active; 'I' for Inactive)
REMARK    1  A    between atoms: C_2  and  C_3
REMARK    2  A    between atoms: C_7  and  C_8
REMARK    3  A    between atoms: C_11  and  C_12
REMARK    4  A    between atoms: C_25  and  C_26
REMARK    5  A    between atoms: C_26  and  C_27
REMARK    6  A    between atoms: C_27  and  O_28
REMARK                            x       y       z     vdW  Elec       q    Type
REMARK                         _______ _______ _______ _____ _____    ______ ____
ROOT
ATOM      1  C   UNL     1       2.731   7.000  19.124  0.00  0.00    +0.000 A 
ATOM      2  C   UNL     1       2.553   7.534  17.846  0.00  0.00    +0.000 A 
ATOM      3  C   UNL     1       1.897   8.742  17.632  0.00  0.00    +0.000 A 
ATOM      4  C   UNL     1       1.350   9.429  18.704  0.00  0.00    +0.000 A 
ATOM      5  C   UNL     1       1.467   8.931  20.009  0.00  0.00    +0.000 A 
ATOM      6  C   UNL     1       2.178   7.727  20.212  0.00  0.00    +0.000 A 
ENDROOT
BRANCH   1   8
ATOM      7  O   UNL     1       4.603   5.677  19.571  0.00  0.00    +0.000 OA
ATOM      8  C   UNL     1       3.384   5.654  19.390  0.00  0.00    +0.000 C 
ATOM      9  N   UNL     1       2.741   4.388  19.316  0.00  0.00    +0.000 N 
ATOM     10  C   UNL     1       1.341   4.177  18.961  0.00  0.00    +0.000 C 
ATOM     11  C   UNL     1       0.518   4.002  20.239  0.00  0.00    +0.000 C 
ATOM     12  C   UNL     1       1.090   2.914  21.153  0.00  0.00    +0.000 C 
ATOM     13  C   UNL     1       2.601   3.082  21.367  0.00  0.00    +0.000 C 
ATOM     14  C   UNL     1       3.351   3.209  20.028  0.00  0.00    +0.000 C 
BRANCH  14  15
ATOM     15  C   UNL     1       3.294   1.886  19.199  0.00  0.00    +0.000 C 
BRANCH  15  16
ATOM     16  C   UNL     1       4.591   1.078  19.152  0.00  0.00    +0.000 C 
BRANCH  16  17
ATOM     17  O   UNL     1       5.393   1.335  20.290  0.00  0.00    +0.000 OA
ATOM     18  H   UNL     1       6.177   0.757  20.236  0.00  0.00    +0.000 HD
ENDBRANCH  16  17
ENDBRANCH  15  16
ENDBRANCH  14  15
ENDBRANCH   1   8
BRANCH   5  19
ATOM     19  C   UNL     1       0.769   9.666  21.068  0.00  0.00    +0.000 A 
ATOM     20  N   UNL     1       0.949   9.512  22.389  0.00  0.00    +0.000 NA
ATOM     21  O   UNL     1      -0.028  10.349  22.954  0.00  0.00    +0.000 OA
ATOM     22  C   UNL     1      -0.701  10.931  21.915  0.00  0.00    +0.000 A 
ATOM     23  N   UNL     1      -0.224  10.572  20.745  0.00  0.00    +0.000 NA
BRANCH  22  24
ATOM     24  C   UNL     1      -1.860  11.767  22.214  0.00  0.00    +0.000 A 
ATOM     25  C   UNL     1      -2.456  12.601  21.254  0.00  0.00    +0.000 A 
ATOM     26  C   UNL     1      -3.513  13.450  21.601  0.00  0.00    +0.000 A 
ATOM     27  C   UNL     1      -3.996  13.476  22.910  0.00  0.00    +0.000 A 
ATOM     28  C   UNL     1      -3.432  12.642  23.871  0.00  0.00    +0.000 A 
ATOM     29  C   UNL     1      -2.376  11.794  23.523  0.00  0.00    +0.000 A 
ENDBRANCH  22  24
ENDBRANCH   5  19
TORSDOF 6
ENDMDL
MODEL 7
REMARK VINA RESULT:      -7.9      5.967      7.755
REMARK  Name = 
REMARK  6 active torsions:
REMARK  status: ('A' for Active; 'I' for Inactive)
REMARK    1  A    between atoms: C_2  and  C_3
REMARK    2  A    between atoms: C_7  and  C_8
REMARK    3  A    between atoms: C_11  and  C_12
REMARK    4  A    between atoms: C_25  and  C_26
REMARK    5  A    between atoms: C_26  and  C_27
REMARK    6  A    between atoms: C_27  and  O_28
REMARK                            x       y       z     vdW  Elec       q    Type
REMARK                         _______ _______ _______ _____ _____    ______ ____
ROOT
ATOM      1  C   UNL     1       4.486   5.476  17.393  0.00  0.00    +0.000 A 
ATOM      2  C   UNL     1       4.817   4.927  16.151  0.00  0.00    +0.000 A 
ATOM      3  C   UNL     1       6.037   5.176  15.532  0.00  0.00    +0.000 A 
ATOM      4  C   UNL     1       6.949   6.034  16.126  0.00  0.00    +0.000 A 
ATOM      5  C   UNL     1       6.666   6.641  17.356  0.00  0.00    +0.000 A 
ATOM      6  C   UNL     1       5.441   6.340  17.993  0.00  0.00    +0.000 A 
ENDROOT
BRANCH   1   8
ATOM      7  O   UNL     1       2.327   6.192  17.922  0.00  0.00    +0.000 OA
ATOM      8  C   UNL     1       3.140   5.278  18.069  0.00  0.00    +0.000 C 
ATOM      9  N   UNL     1       2.797   4.211  18.945  0.00  0.00    +0.000 N 
ATOM     10  C   UNL     1       3.696   3.134  19.346  0.00  0.00    +0.000 C 
ATOM     11  C   UNL     1       3.418   1.900  18.486  0.00  0.00    +0.000 C 
ATOM     12  C   UNL     1       1.938   1.503  18.501  0.00  0.00    +0.000 C 
ATOM     13  C   UNL     1       1.021   2.705  18.235  0.00  0.00    +0.000 C 
ATOM     14  C   UNL     1       1.346   3.882  19.174  0.00  0.00    +0.000 C 
BRANCH  14  15
ATOM     15  C   UNL     1       1.011   3.551  20.663  0.00  0.00    +0.000 C 
BRANCH  15  16
ATOM     16  C   UNL     1       2.143   3.786  21.664  0.00  0.00    +0.000 C 
BRANCH  16  17
ATOM     17  O   UNL     1       2.494   2.586  22.327  0.00  0.00    +0.000 OA
ATOM     18  H   UNL     1       3.169   2.135  21.787  0.00  0.00    +0.000 HD
ENDBRANCH  16  17
ENDBRANCH  15  16
ENDBRANCH  14  15
ENDBRANCH   1   8
BRANCH   5  19
ATOM     19  C   UNL     1       7.639   7.615  17.859  0.00  0.00    +0.000 A 
ATOM     20  N   UNL     1       8.501   7.424  18.870  0.00  0.00    +0.000 NA
ATOM     21  O   UNL     1       9.111   8.680  19.025  0.00  0.00    +0.000 OA
ATOM     22  C   UNL     1       8.558   9.508  18.086  0.00  0.00    +0.000 A 
ATOM     23  N   UNL     1       7.682   8.891  17.328  0.00  0.00    +0.000 NA
BRANCH  22  24
ATOM     24  C   UNL     1       8.927  10.921  18.097  0.00  0.00    +0.000 A 
ATOM     25  C   UNL     1      10.116  11.386  18.681  0.00  0.00    +0.000 A 
ATOM     26  C   UNL     1      10.395  12.755  18.746  0.00  0.00    +0.000 A 
ATOM     27  C   UNL     1       9.493  13.682  18.221  0.00  0.00    +0.000 A 
ATOM     28  C   UNL     1       8.319  13.241  17.620  0.00  0.00    +0.000 A 
ATOM     29  C   UNL     1       8.041  11.872  17.556  0.00  0.00    +0.000 A 
ENDBRANCH  22  24
ENDBRANCH   5  19
TORSDOF 6
ENDMDL
MODEL 8
REMARK VINA RESULT:      -7.9      2.073      3.090
REMARK  Name = 
REMARK  6 active torsions:
REMARK  status: ('A' for Active; 'I' for Inactive)
REMARK    1  A    between atoms: C_2  and  C_3
REMARK    2  A    between atoms: C_7  and  C_8
REMARK    3  A    between atoms: C_11  and  C_12
REMARK    4  A    between atoms: C_25  and  C_26
REMARK    5  A    between atoms: C_26  and  C_27
REMARK    6  A    between atoms: C_27  and  O_28
REMARK                            x       y       z     vdW  Elec       q    Type
REMARK                         _______ _______ _______ _____ _____    ______ ____
ROOT
ATOM      1  C   UNL     1       2.418   7.577  18.989  0.00  0.00    +0.000 A 
ATOM      2  C   UNL     1       2.024   8.177  17.790  0.00  0.00    +0.000 A 
ATOM      3  C   UNL     1       1.166   9.271  17.756  0.00  0.00    +0.000 A 
ATOM      4  C   UNL     1       0.632   9.766  18.935  0.00  0.00    +0.000 A 
ATOM      5  C   UNL     1       0.963   9.190  20.169  0.00  0.00    +0.000 A 
ATOM      6  C   UNL     1       1.873   8.109  20.188  0.00  0.00    +0.000 A 
ENDROOT
BRANCH   1   8
ATOM      7  O   UNL     1       2.951   5.480  19.869  0.00  0.00    +0.000 OA
ATOM      8  C   UNL     1       3.302   6.342  19.062  0.00  0.00    +0.000 C 
ATOM      9  N   UNL     1       4.541   6.166  18.387  0.00  0.00    +0.000 N 
ATOM     10  C   UNL     1       5.172   7.155  17.519  0.00  0.00    +0.000 C 
ATOM     11  C   UNL     1       4.860   6.815  16.060  0.00  0.00    +0.000 C 
ATOM     12  C   UNL     1       5.224   5.368  15.709  0.00  0.00    +0.000 C 
ATOM     13  C   UNL     1       4.675   4.374  16.743  0.00  0.00    +0.000 C 
ATOM     14  C   UNL     1       5.073   4.773  18.177  0.00  0.00    +0.000 C 
BRANCH  14  15
ATOM     15  C   UNL     1       6.614   4.655  18.410  0.00  0.00    +0.000 C 
BRANCH  15  16
ATOM     16  C   UNL     1       7.182   5.525  19.532  0.00  0.00    +0.000 C 
BRANCH  16  17
ATOM     17  O   UNL     1       8.511   5.153  19.842  0.00  0.00    +0.000 OA
ATOM     18  H   UNL     1       8.477   4.523  20.586  0.00  0.00    +0.000 HD
ENDBRANCH  16  17
ENDBRANCH  15  16
ENDBRANCH  14  15
ENDBRANCH   1   8
BRANCH   5  19
ATOM     19  C   UNL     1       0.272   9.708  21.354  0.00  0.00    +0.000 A 
ATOM     20  N   UNL     1      -0.102   8.994  22.427  0.00  0.00    +0.000 NA
ATOM     21  O   UNL     1      -0.816   9.920  23.204  0.00  0.00    +0.000 OA
ATOM     22  C   UNL     1      -0.801  11.107  22.523  0.00  0.00    +0.000 A 
ATOM     23  N   UNL     1      -0.116  11.033  21.405  0.00  0.00    +0.000 NA
BRANCH  22  24
ATOM     24  C   UNL     1      -1.577  12.226  23.050  0.00  0.00    +0.000 A 
ATOM     25  C   UNL     1      -1.025  13.502  23.246  0.00  0.00    +0.000 A 
ATOM     26  C   UNL     1      -1.776  14.526  23.830  0.00  0.00    +0.000 A 
ATOM     27  C   UNL     1      -3.095  14.295  24.224  0.00  0.00    +0.000 A 
ATOM     28  C   UNL     1      -3.668  13.043  24.020  0.00  0.00    +0.000 A 
ATOM     29  C   UNL     1      -2.915  12.020  23.436  0.00  0.00    +0.000 A 
ENDBRANCH  22  24
ENDBRANCH   5  19
TORSDOF 6
ENDMDL
MODEL 9
REMARK VINA RESULT:      -7.9      2.569      3.644
REMARK  Name = 
REMARK  6 active torsions:
REMARK  status: ('A' for Active; 'I' for Inactive)
REMARK    1  A    between atoms: C_2  and  C_3
REMARK    2  A    between atoms: C_7  and  C_8
REMARK    3  A    between atoms: C_11  and  C_12
REMARK    4  A    between atoms: C_25  and  C_26
REMARK    5  A    between atoms: C_26  and  C_27
REMARK    6  A    between atoms: C_27  and  O_28
REMARK                            x       y       z     vdW  Elec       q    Type
REMARK                         _______ _______ _______ _____ _____    ______ ____
ROOT
ATOM      1  C   UNL     1       2.983   6.332  18.819  0.00  0.00    +0.000 A 
ATOM      2  C   UNL     1       2.583   5.131  19.410  0.00  0.00    +0.000 A 
ATOM      3  C   UNL     1       1.707   5.092  20.491  0.00  0.00    +0.000 A 
ATOM      4  C   UNL     1       1.244   6.275  21.045  0.00  0.00    +0.000 A 
ATOM      5  C   UNL     1       1.632   7.514  20.518  0.00  0.00    +0.000 A 
ATOM      6  C   UNL     1       2.484   7.533  19.391  0.00  0.00    +0.000 A 
ENDROOT
BRANCH   1   8
ATOM      7  O   UNL     1       3.645   7.105  16.716  0.00  0.00    +0.000 OA
ATOM      8  C   UNL     1       3.986   6.417  17.680  0.00  0.00    +0.000 C 
ATOM      9  N   UNL     1       5.197   5.678  17.582  0.00  0.00    +0.000 N 
ATOM     10  C   UNL     1       5.668   4.705  18.563  0.00  0.00    +0.000 C 
ATOM     11  C   UNL     1       6.693   5.373  19.482  0.00  0.00    +0.000 C 
ATOM     12  C   UNL     1       7.821   6.051  18.699  0.00  0.00    +0.000 C 
ATOM     13  C   UNL     1       7.280   6.939  17.570  0.00  0.00    +0.000 C 
ATOM     14  C   UNL     1       6.290   6.172  16.672  0.00  0.00    +0.000 C 
BRANCH  14  15
ATOM     15  C   UNL     1       6.993   5.032  15.869  0.00  0.00    +0.000 C 
BRANCH  15  16
ATOM     16  C   UNL     1       6.062   3.996  15.238  0.00  0.00    +0.000 C 
BRANCH  16  17
ATOM     17  O   UNL     1       6.507   3.629  13.946  0.00  0.00    +0.000 OA
ATOM     18  H   UNL     1       5.726   3.592  13.363  0.00  0.00    +0.000 HD
ENDBRANCH  16  17
ENDBRANCH  15  16
ENDBRANCH  14  15
ENDBRANCH   1   8
BRANCH   5  19
ATOM     19  C   UNL     1       1.180   8.713  21.232  0.00  0.00    +0.000 A 
ATOM     20  N   UNL     1       1.685   9.187  22.381  0.00  0.00    +0.000 NA
ATOM     21  O   UNL     1       0.838  10.263  22.692  0.00  0.00    +0.000 OA
ATOM     22  C   UNL     1      -0.096  10.335  21.695  0.00  0.00    +0.000 A 
ATOM     23  N   UNL     1       0.097   9.431  20.763  0.00  0.00    +0.000 NA
BRANCH  22  24
ATOM     24  C   UNL     1      -1.185  11.299  21.826  0.00  0.00    +0.000 A 
ATOM     25  C   UNL     1      -1.648  12.065  20.744  0.00  0.00    +0.000 A 
ATOM     26  C   UNL     1      -2.637  13.039  20.926  0.00  0.00    +0.000 A 
ATOM     27  C   UNL     1      -3.184  13.258  22.191  0.00  0.00    +0.000 A 
ATOM     28  C   UNL     1      -2.753  12.495  23.272  0.00  0.00    +0.000 A 
ATOM     29  C   UNL     1      -1.765  11.523  23.089  0.00  0.00    +0.000 A 
ENDBRANCH  22  24
ENDBRANCH   5  19
TORSDOF 6
ENDMDL
