MODEL 1
REMARK VINA RESULT:      -6.5      0.000      0.000
REMARK  Name = 
REMARK  5 active torsions:
REMARK  status: ('A' for Active; 'I' for Inactive)
REMARK    1  A    between atoms: C_4  and  C_5
REMARK    2  A    between atoms: C_4  and  C_10
REMARK    3  A    between atoms: C_18  and  O_19
REMARK    4  A    between atoms: C_20  and  S_21
REMARK    5  A    between atoms: S_21  and  C_22
REMARK                            x       y       z     vdW  Elec       q    Type
REMARK                         _______ _______ _______ _____ _____    ______ ____
ROOT
ATOM      1  O   UNL     1      -4.053  12.324  20.531  0.00  0.00    +0.000 OA
ATOM      2  C   UNL     1      -3.146  12.262  19.707  0.00  0.00    +0.000 C 
ATOM      3  N   UNL     1      -1.918  12.793  20.025  0.00  0.00    +0.000 N 
ATOM      4  C   UNL     1      -0.697  12.477  19.299  0.00  0.00    +0.000 C 
ATOM      5  C   UNL     1      -1.025  12.495  17.780  0.00  0.00    +0.000 C 
ATOM      6  C   UNL     1      -2.297  11.761  17.454  0.00  0.00    +0.000 C 
ATOM      7  C   UNL     1      -3.294  11.626  18.348  0.00  0.00    +0.000 C 
ATOM      8  H   UNL     1      -1.851  13.125  20.978  0.00  0.00    +0.000 HD
ENDROOT
BRANCH   4   9
ATOM      9  C   UNL     1      -0.064  11.136  19.743  0.00  0.00    +0.000 A 
ATOM     10  C   UNL     1      -0.239  10.653  21.060  0.00  0.00    +0.000 A 
ATOM     11  C   UNL     1       0.342   9.454  21.487  0.00  0.00    +0.000 A 
ATOM     12  C   UNL     1       1.118   8.699  20.609  0.00  0.00    +0.000 A 
ATOM     13  C   UNL     1       1.300   9.150  19.306  0.00  0.00    +0.000 A 
ATOM     14 BR   UNL     1       2.356   8.132  18.110  0.00  0.00    +0.000 Br
ATOM     15  C   UNL     1       0.715  10.344  18.873  0.00  0.00    +0.000 A 
ENDBRANCH   4   9
BRANCH   4  16
ATOM     16  C   UNL     1       0.350  13.541  19.689  0.00  0.00    +0.000 A 
ATOM     17  C   UNL     1       0.457  14.183  20.984  0.00  0.00    +0.000 A 
ATOM     18  C   UNL     1       1.492  15.092  21.058  0.00  0.00    +0.000 A 
ATOM     19  S   UNL     1       2.354  15.203  19.593  0.00  0.00    +0.000 S 
ATOM     20  C   UNL     1       1.348  14.035  18.857  0.00  0.00    +0.000 A 
ENDBRANCH   4  16
BRANCH   6  21
ATOM     21  O   UNL     1      -2.371  11.221  16.181  0.00  0.00    +0.000 OA
ATOM     22  H   UNL     1      -1.750  10.478  16.095  0.00  0.00    +0.000 HD
ENDBRANCH   6  21
BRANCH   7  23
ATOM     23  S   UNL     1      -4.716  10.674  18.047  0.00  0.00    +0.000 S 
BRANCH  23  24
ATOM     24  C   UNL     1      -5.972  11.949  17.929  0.00  0.00    +0.000 A 
ATOM     25  C   UNL     1      -5.844  12.894  16.897  0.00  0.00    +0.000 A 
ATOM     26  C   UNL     1      -6.747  13.955  16.775  0.00  0.00    +0.000 A 
ATOM     27  C   UNL     1      -7.790  14.092  17.684  0.00  0.00    +0.000 A 
ATOM     28  C   UNL     1      -7.916  13.180  18.731  0.00  0.00    +0.000 A 
ATOM     29  C   UNL     1      -7.006  12.122  18.866  0.00  0.00    +0.000 A 
ATOM     30 CL   UNL     1      -7.203  11.105  20.251  0.00  0.00    +0.000 Cl
ENDBRANCH  23  24
ENDBRANCH   7  23
TORSDOF 5
ENDMDL
MODEL 2
REMARK VINA RESULT:      -6.4      3.501      6.617
REMARK  Name = 
REMARK  5 active torsions:
REMARK  status: ('A' for Active; 'I' for Inactive)
REMARK    1  A    between atoms: C_4  and  C_5
REMARK    2  A    between atoms: C_4  and  C_10
REMARK    3  A    between atoms: C_18  and  O_19
REMARK    4  A    between atoms: C_20  and  S_21
REMARK    5  A    between atoms: S_21  and  C_22
REMARK                            x       y       z     vdW  Elec       q    Type
REMARK                         _______ _______ _______ _____ _____    ______ ____
ROOT
ATOM      1  O   UNL     1       0.653  13.642  17.937  0.00  0.00    +0.000 OA
ATOM      2  C   UNL     1      -0.166  13.825  18.833  0.00  0.00    +0.000 C 
ATOM      3  N   UNL     1      -1.305  13.054  18.862  0.00  0.00    +0.000 N 
ATOM      4  C   UNL     1      -2.157  12.930  20.036  0.00  0.00    +0.000 C 
ATOM      5  C   UNL     1      -2.328  14.345  20.655  0.00  0.00    +0.000 C 
ATOM      6  C   UNL     1      -1.027  15.095  20.754  0.00  0.00    +0.000 C 
ATOM      7  C   UNL     1       0.002  14.853  19.921  0.00  0.00    +0.000 C 
ATOM      8  H   UNL     1      -1.323  12.325  18.163  0.00  0.00    +0.000 HD
ENDROOT
BRANCH   4   9
ATOM      9  C   UNL     1      -1.618  11.904  21.063  0.00  0.00    +0.000 A 
ATOM     10  C   UNL     1      -1.998  11.972  22.422  0.00  0.00    +0.000 A 
ATOM     11  C   UNL     1      -1.507  11.067  23.369  0.00  0.00    +0.000 A 
ATOM     12  C   UNL     1      -0.617  10.064  22.985  0.00  0.00    +0.000 A 
ATOM     13  C   UNL     1      -0.232   9.973  21.652  0.00  0.00    +0.000 A 
ATOM     14 BR   UNL     1       0.978   8.618  21.125  0.00  0.00    +0.000 Br
ATOM     15  C   UNL     1      -0.727  10.871  20.701  0.00  0.00    +0.000 A 
ENDBRANCH   4   9
BRANCH   4  16
ATOM     16  C   UNL     1      -3.496  12.327  19.562  0.00  0.00    +0.000 A 
ATOM     17  C   UNL     1      -4.777  12.499  20.216  0.00  0.00    +0.000 A 
ATOM     18  C   UNL     1      -5.810  11.853  19.571  0.00  0.00    +0.000 A 
ATOM     19  S   UNL     1      -5.280  11.028  18.178  0.00  0.00    +0.000 S 
ATOM     20  C   UNL     1      -3.669  11.534  18.433  0.00  0.00    +0.000 A 
ENDBRANCH   4  16
BRANCH   6  21
ATOM     21  O   UNL     1      -0.952  16.038  21.765  0.00  0.00    +0.000 OA
ATOM     22  H   UNL     1      -0.414  15.699  22.501  0.00  0.00    +0.000 HD
ENDBRANCH   6  21
BRANCH   7  23
ATOM     23  S   UNL     1       1.559  15.607  20.094  0.00  0.00    +0.000 S 
BRANCH  23  24
ATOM     24  C   UNL     1       1.580  16.694  18.668  0.00  0.00    +0.000 A 
ATOM     25  C   UNL     1       0.490  17.565  18.497  0.00  0.00    +0.000 A 
ATOM     26  C   UNL     1       0.402  18.399  17.378  0.00  0.00    +0.000 A 
ATOM     27  C   UNL     1       1.399  18.375  16.409  0.00  0.00    +0.000 A 
ATOM     28  C   UNL     1       2.474  17.498  16.547  0.00  0.00    +0.000 A 
ATOM     29  C   UNL     1       2.560  16.650  17.661  0.00  0.00    +0.000 A 
ATOM     30 CL   UNL     1       3.887  15.540  17.685  0.00  0.00    +0.000 Cl
ENDBRANCH  23  24
ENDBRANCH   7  23
TORSDOF 5
ENDMDL
MODEL 3
REMARK VINA RESULT:      -6.2      3.404      4.559
REMARK  Name = 
REMARK  5 active torsions:
REMARK  status: ('A' for Active; 'I' for Inactive)
REMARK    1  A    between atoms: C_4  and  C_5
REMARK    2  A    between atoms: C_4  and  C_10
REMARK    3  A    between atoms: C_18  and  O_19
REMARK    4  A    between atoms: C_20  and  S_21
REMARK    5  A    between atoms: S_21  and  C_22
REMARK                            x       y       z     vdW  Elec       q    Type
REMARK                         _______ _______ _______ _____ _____    ______ ____
ROOT
ATOM      1  O   UNL     1      -5.711  12.410  23.252  0.00  0.00    +0.000 OA
ATOM      2  C   UNL     1      -5.003  13.283  22.758  0.00  0.00    +0.000 C 
ATOM      3  N   UNL     1      -3.935  13.761  23.479  0.00  0.00    +0.000 N 
ATOM      4  C   UNL     1      -2.841  14.516  22.883  0.00  0.00    +0.000 C 
ATOM      5  C   UNL     1      -3.453  15.544  21.893  0.00  0.00    +0.000 C 
ATOM      6  C   UNL     1      -4.509  14.938  21.008  0.00  0.00    +0.000 C 
ATOM      7  C   UNL     1      -5.232  13.869  21.389  0.00  0.00    +0.000 C 
ATOM      8  H   UNL     1      -3.776  13.273  24.350  0.00  0.00    +0.000 HD
ENDROOT
BRANCH   4   9
ATOM      9  C   UNL     1      -1.785  13.610  22.206  0.00  0.00    +0.000 A 
ATOM     10  C   UNL     1      -1.102  14.035  21.045  0.00  0.00    +0.000 A 
ATOM     11  C   UNL     1      -0.158  13.223  20.407  0.00  0.00    +0.000 A 
ATOM     12  C   UNL     1       0.132  11.956  20.912  0.00  0.00    +0.000 A 
ATOM     13  C   UNL     1      -0.523  11.516  22.057  0.00  0.00    +0.000 A 
ATOM     14 BR   UNL     1      -0.138   9.796  22.745  0.00  0.00    +0.000 Br
ATOM     15  C   UNL     1      -1.461  12.328  22.702  0.00  0.00    +0.000 A 
ENDBRANCH   4   9
BRANCH   4  16
ATOM     16  C   UNL     1      -2.077  15.194  24.040  0.00  0.00    +0.000 A 
ATOM     17  C   UNL     1      -2.299  14.956  25.451  0.00  0.00    +0.000 A 
ATOM     18  C   UNL     1      -1.467  15.694  26.267  0.00  0.00    +0.000 A 
ATOM     19  S   UNL     1      -0.409  16.686  25.374  0.00  0.00    +0.000 S 
ATOM     20  C   UNL     1      -1.058  16.129  23.895  0.00  0.00    +0.000 A 
ENDBRANCH   4  16
BRANCH   6  21
ATOM     21  O   UNL     1      -4.679  15.541  19.773  0.00  0.00    +0.000 OA
ATOM     22  H   UNL     1      -4.572  14.885  19.063  0.00  0.00    +0.000 HD
ENDBRANCH   6  21
BRANCH   7  23
ATOM     23  S   UNL     1      -6.363  13.067  20.340  0.00  0.00    +0.000 S 
BRANCH  23  24
ATOM     24  C   UNL     1      -5.262  12.364  19.111  0.00  0.00    +0.000 A 
ATOM     25  C   UNL     1      -3.955  12.042  19.517  0.00  0.00    +0.000 A 
ATOM     26  C   UNL     1      -3.017  11.549  18.605  0.00  0.00    +0.000 A 
ATOM     27  C   UNL     1      -3.368  11.372  17.271  0.00  0.00    +0.000 A 
ATOM     28  C   UNL     1      -4.651  11.711  16.844  0.00  0.00    +0.000 A 
ATOM     29  C   UNL     1      -5.591  12.220  17.753  0.00  0.00    +0.000 A 
ATOM     30 CL   UNL     1      -7.121  12.692  17.097  0.00  0.00    +0.000 Cl
ENDBRANCH  23  24
ENDBRANCH   7  23
TORSDOF 5
ENDMDL
MODEL 4
REMARK VINA RESULT:      -6.2      3.371      4.982
REMARK  Name = 
REMARK  5 active torsions:
REMARK  status: ('A' for Active; 'I' for Inactive)
REMARK    1  A    between atoms: C_4  and  C_5
REMARK    2  A    between atoms: C_4  and  C_10
REMARK    3  A    between atoms: C_18  and  O_19
REMARK    4  A    between atoms: C_20  and  S_21
REMARK    5  A    between atoms: S_21  and  C_22
REMARK                            x       y       z     vdW  Elec       q    Type
REMARK                         _______ _______ _______ _____ _____    ______ ____
ROOT
ATOM      1  O   UNL     1      -1.181  10.989  23.527  0.00  0.00    +0.000 OA
ATOM      2  C   UNL     1      -0.697  11.498  22.521  0.00  0.00    +0.000 C 
ATOM      3  N   UNL     1      -0.248  10.680  21.511  0.00  0.00    +0.000 N 
ATOM      4  C   UNL     1       0.010  11.149  20.157  0.00  0.00    +0.000 C 
ATOM      5  C   UNL     1       0.756  12.508  20.255  0.00  0.00    +0.000 C 
ATOM      6  C   UNL     1       0.133  13.439  21.260  0.00  0.00    +0.000 C 
ATOM      7  C   UNL     1      -0.566  12.985  22.317  0.00  0.00    +0.000 C 
ATOM      8  H   UNL     1      -0.441   9.699  21.662  0.00  0.00    +0.000 HD
ENDROOT
BRANCH   4   9
ATOM      9  C   UNL     1      -1.275  11.249  19.300  0.00  0.00    +0.000 A 
ATOM     10  C   UNL     1      -2.404  11.958  19.767  0.00  0.00    +0.000 A 
ATOM     11  C   UNL     1      -3.582  12.043  19.017  0.00  0.00    +0.000 A 
ATOM     12  C   UNL     1      -3.668  11.418  17.774  0.00  0.00    +0.000 A 
ATOM     13  C   UNL     1      -2.568  10.718  17.289  0.00  0.00    +0.000 A 
ATOM     14 BR   UNL     1      -2.679   9.864  15.605  0.00  0.00    +0.000 Br
ATOM     15  C   UNL     1      -1.386  10.638  18.033  0.00  0.00    +0.000 A 
ENDBRANCH   4   9
BRANCH   4  16
ATOM     16  C   UNL     1       0.853  10.063  19.455  0.00  0.00    +0.000 A 
ATOM     17  C   UNL     1       1.506  10.202  18.169  0.00  0.00    +0.000 A 
ATOM     18  C   UNL     1       2.199   9.074  17.784  0.00  0.00    +0.000 A 
ATOM     19  S   UNL     1       2.086   7.827  18.939  0.00  0.00    +0.000 S 
ATOM     20  C   UNL     1       1.113   8.794  19.957  0.00  0.00    +0.000 A 
ENDBRANCH   4  16
BRANCH   6  21
ATOM     21  O   UNL     1       0.311  14.791  21.020  0.00  0.00    +0.000 OA
ATOM     22  H   UNL     1      -0.101  15.039  20.175  0.00  0.00    +0.000 HD
ENDBRANCH   6  21
BRANCH   7  23
ATOM     23  S   UNL     1      -1.408  14.034  23.419  0.00  0.00    +0.000 S 
BRANCH  23  24
ATOM     24  C   UNL     1      -3.030  14.108  22.659  0.00  0.00    +0.000 A 
ATOM     25  C   UNL     1      -3.209  15.010  21.596  0.00  0.00    +0.000 A 
ATOM     26  C   UNL     1      -4.459  15.173  20.991  0.00  0.00    +0.000 A 
ATOM     27  C   UNL     1      -5.553  14.440  21.440  0.00  0.00    +0.000 A 
ATOM     28  C   UNL     1      -5.401  13.561  22.511  0.00  0.00    +0.000 A 
ATOM     29  C   UNL     1      -4.152  13.404  23.130  0.00  0.00    +0.000 A 
ATOM     30 CL   UNL     1      -4.098  12.357  24.506  0.00  0.00    +0.000 Cl
ENDBRANCH  23  24
ENDBRANCH   7  23
TORSDOF 5
ENDMDL
MODEL 5
REMARK VINA RESULT:      -6.1      1.583      1.867
REMARK  Name = 
REMARK  5 active torsions:
REMARK  status: ('A' for Active; 'I' for Inactive)
REMARK    1  A    between atoms: C_4  and  C_5
REMARK    2  A    between atoms: C_4  and  C_10
REMARK    3  A    between atoms: C_18  and  O_19
REMARK    4  A    between atoms: C_20  and  S_21
REMARK    5  A    between atoms: S_21  and  C_22
REMARK                            x       y       z     vdW  Elec       q    Type
REMARK                         _______ _______ _______ _____ _____    ______ ____
ROOT
ATOM      1  O   UNL     1      -4.043  14.241  21.258  0.00  0.00    +0.000 OA
ATOM      2  C   UNL     1      -3.399  13.503  20.519  0.00  0.00    +0.000 C 
ATOM      3  N   UNL     1      -2.032  13.646  20.462  0.00  0.00    +0.000 N 
ATOM      4  C   UNL     1      -1.143  12.631  19.915  0.00  0.00    +0.000 C 
ATOM      5  C   UNL     1      -1.782  12.091  18.606  0.00  0.00    +0.000 C 
ATOM      6  C   UNL     1      -3.250  11.793  18.759  0.00  0.00    +0.000 C 
ATOM      7  C   UNL     1      -4.018  12.431  19.661  0.00  0.00    +0.000 C 
ATOM      8  H   UNL     1      -1.663  14.318  21.122  0.00  0.00    +0.000 HD
ENDROOT
BRANCH   4   9
ATOM      9  C   UNL     1      -0.831  11.499  20.924  0.00  0.00    +0.000 A 
ATOM     10  C   UNL     1      -1.309  11.560  22.252  0.00  0.00    +0.000 A 
ATOM     11  C   UNL     1      -1.021  10.558  23.184  0.00  0.00    +0.000 A 
ATOM     12  C   UNL     1      -0.245   9.460  22.816  0.00  0.00    +0.000 A 
ATOM     13  C   UNL     1       0.232   9.373  21.513  0.00  0.00    +0.000 A 
ATOM     14 BR   UNL     1       1.290   7.888  21.007  0.00  0.00    +0.000 Br
ATOM     15  C   UNL     1      -0.060  10.370  20.576  0.00  0.00    +0.000 A 
ENDBRANCH   4   9
BRANCH   4  16
ATOM     16  C   UNL     1       0.221  13.309  19.669  0.00  0.00    +0.000 A 
ATOM     17  C   UNL     1       0.972  14.072  20.646  0.00  0.00    +0.000 A 
ATOM     18  C   UNL     1       2.165  14.560  20.157  0.00  0.00    +0.000 A 
ATOM     19  S   UNL     1       2.416  14.126  18.529  0.00  0.00    +0.000 S 
ATOM     20  C   UNL     1       0.932  13.282  18.475  0.00  0.00    +0.000 A 
ENDBRANCH   4  16
BRANCH   6  21
ATOM     21  O   UNL     1      -3.755  10.811  17.923  0.00  0.00    +0.000 OA
ATOM     22  H   UNL     1      -3.261   9.982  18.043  0.00  0.00    +0.000 HD
ENDBRANCH   6  21
BRANCH   7  23
ATOM     23  S   UNL     1      -5.682  12.018  19.951  0.00  0.00    +0.000 S 
BRANCH  23  24
ATOM     24  C   UNL     1      -6.525  13.231  18.935  0.00  0.00    +0.000 A 
ATOM     25  C   UNL     1      -6.369  13.135  17.542  0.00  0.00    +0.000 A 
ATOM     26  C   UNL     1      -6.943  14.078  16.685  0.00  0.00    +0.000 A 
ATOM     27  C   UNL     1      -7.681  15.137  17.204  0.00  0.00    +0.000 A 
ATOM     28  C   UNL     1      -7.824  15.264  18.585  0.00  0.00    +0.000 A 
ATOM     29  C   UNL     1      -7.238  14.328  19.450  0.00  0.00    +0.000 A 
ATOM     30 CL   UNL     1      -7.402  14.633  21.145  0.00  0.00    +0.000 Cl
ENDBRANCH  23  24
ENDBRANCH   7  23
TORSDOF 5
ENDMDL
MODEL 6
REMARK VINA RESULT:      -6.1      4.507      7.733
REMARK  Name = 
REMARK  5 active torsions:
REMARK  status: ('A' for Active; 'I' for Inactive)
REMARK    1  A    between atoms: C_4  and  C_5
REMARK    2  A    between atoms: C_4  and  C_10
REMARK    3  A    between atoms: C_18  and  O_19
REMARK    4  A    between atoms: C_20  and  S_21
REMARK    5  A    between atoms: S_21  and  C_22
REMARK                            x       y       z     vdW  Elec       q    Type
REMARK                         _______ _______ _______ _____ _____    ______ ____
ROOT
ATOM      1  O   UNL     1      -0.998  11.254  23.394  0.00  0.00    +0.000 OA
ATOM      2  C   UNL     1      -1.656  11.978  22.653  0.00  0.00    +0.000 C 
ATOM      3  N   UNL     1      -2.993  12.162  22.916  0.00  0.00    +0.000 N 
ATOM      4  C   UNL     1      -3.780  13.244  22.341  0.00  0.00    +0.000 C 
ATOM      5  C   UNL     1      -3.403  13.365  20.839  0.00  0.00    +0.000 C 
ATOM      6  C   UNL     1      -1.916  13.321  20.610  0.00  0.00    +0.000 C 
ATOM      7  C   UNL     1      -1.081  12.692  21.457  0.00  0.00    +0.000 C 
ATOM      8  H   UNL     1      -3.304  11.732  23.776  0.00  0.00    +0.000 HD
ENDROOT
BRANCH   4   9
ATOM      9  C   UNL     1      -3.602  14.583  23.098  0.00  0.00    +0.000 A 
ATOM     10  C   UNL     1      -4.349  15.725  22.735  0.00  0.00    +0.000 A 
ATOM     11  C   UNL     1      -4.189  16.949  23.393  0.00  0.00    +0.000 A 
ATOM     12  C   UNL     1      -3.272  17.069  24.437  0.00  0.00    +0.000 A 
ATOM     13  C   UNL     1      -2.528  15.957  24.817  0.00  0.00    +0.000 A 
ATOM     14 BR   UNL     1      -1.279  16.113  26.230  0.00  0.00    +0.000 Br
ATOM     15  C   UNL     1      -2.691  14.730  24.167  0.00  0.00    +0.000 A 
ENDBRANCH   4   9
BRANCH   4  16
ATOM     16  C   UNL     1      -5.266  12.883  22.550  0.00  0.00    +0.000 A 
ATOM     17  C   UNL     1      -5.954  12.848  23.825  0.00  0.00    +0.000 A 
ATOM     18  C   UNL     1      -7.284  12.499  23.717  0.00  0.00    +0.000 A 
ATOM     19  S   UNL     1      -7.741  12.203  22.103  0.00  0.00    +0.000 S 
ATOM     20  C   UNL     1      -6.163  12.544  21.544  0.00  0.00    +0.000 A 
ENDBRANCH   4  16
BRANCH   6  21
ATOM     21  O   UNL     1      -1.462  13.982  19.481  0.00  0.00    +0.000 OA
ATOM     22  H   UNL     1      -0.750  13.472  19.058  0.00  0.00    +0.000 HD
ENDBRANCH   6  21
BRANCH   7  23
ATOM     23  S   UNL     1       0.649  12.737  21.291  0.00  0.00    +0.000 S 
BRANCH  23  24
ATOM     24  C   UNL     1       0.928  11.362  20.173  0.00  0.00    +0.000 A 
ATOM     25  C   UNL     1       0.758  10.064  20.684  0.00  0.00    +0.000 A 
ATOM     26  C   UNL     1       1.016   8.939  19.895  0.00  0.00    +0.000 A 
ATOM     27  C   UNL     1       1.451   9.091  18.583  0.00  0.00    +0.000 A 
ATOM     28  C   UNL     1       1.651  10.371  18.067  0.00  0.00    +0.000 A 
ATOM     29  C   UNL     1       1.407  11.502  18.859  0.00  0.00    +0.000 A 
ATOM     30 CL   UNL     1       1.775  13.036  18.149  0.00  0.00    +0.000 Cl
ENDBRANCH  23  24
ENDBRANCH   7  23
TORSDOF 5
ENDMDL
MODEL 7
REMARK VINA RESULT:      -6.1      4.428      6.483
REMARK  Name = 
REMARK  5 active torsions:
REMARK  status: ('A' for Active; 'I' for Inactive)
REMARK    1  A    between atoms: C_4  and  C_5
REMARK    2  A    between atoms: C_4  and  C_10
REMARK    3  A    between atoms: C_18  and  O_19
REMARK    4  A    between atoms: C_20  and  S_21
REMARK    5  A    between atoms: S_21  and  C_22
REMARK                            x       y       z     vdW  Elec       q    Type
REMARK                         _______ _______ _______ _____ _____    ______ ____
ROOT
ATOM      1  O   UNL     1      -1.055  14.692  19.726  0.00  0.00    +0.000 OA
ATOM      2  C   UNL     1      -1.717  14.245  20.658  0.00  0.00    +0.000 C 
ATOM      3  N   UNL     1      -2.737  15.008  21.176  0.00  0.00    +0.000 N 
ATOM      4  C   UNL     1      -3.793  14.465  22.018  0.00  0.00    +0.000 C 
ATOM      5  C   UNL     1      -3.140  13.495  23.041  0.00  0.00    +0.000 C 
ATOM      6  C   UNL     1      -2.144  12.564  22.401  0.00  0.00    +0.000 C 
ATOM      7  C   UNL     1      -1.482  12.891  21.276  0.00  0.00    +0.000 C 
ATOM      8  H   UNL     1      -2.906  15.865  20.668  0.00  0.00    +0.000 HD
ENDROOT
BRANCH   4   9
ATOM      9  C   UNL     1      -4.920  13.784  21.204  0.00  0.00    +0.000 A 
ATOM     10  C   UNL     1      -5.539  12.603  21.671  0.00  0.00    +0.000 A 
ATOM     11  C   UNL     1      -6.545  11.962  20.940  0.00  0.00    +0.000 A 
ATOM     12  C   UNL     1      -6.963  12.482  19.716  0.00  0.00    +0.000 A 
ATOM     13  C   UNL     1      -6.373  13.646  19.237  0.00  0.00    +0.000 A 
ATOM     14 BR   UNL     1      -6.931  14.356  17.575  0.00  0.00    +0.000 Br
ATOM     15  C   UNL     1      -5.372  14.295  19.968  0.00  0.00    +0.000 A 
ENDBRANCH   4   9
BRANCH   4  16
ATOM     16  C   UNL     1      -4.487  15.662  22.702  0.00  0.00    +0.000 A 
ATOM     17  C   UNL     1      -5.349  15.586  23.864  0.00  0.00    +0.000 A 
ATOM     18  C   UNL     1      -5.829  16.814  24.268  0.00  0.00    +0.000 A 
ATOM     19  S   UNL     1      -5.270  18.080  23.274  0.00  0.00    +0.000 S 
ATOM     20  C   UNL     1      -4.382  16.990  22.304  0.00  0.00    +0.000 A 
ENDBRANCH   4  16
BRANCH   6  21
ATOM     21  O   UNL     1      -1.965  11.346  23.035  0.00  0.00    +0.000 OA
ATOM     22  H   UNL     1      -1.471  11.469  23.863  0.00  0.00    +0.000 HD
ENDBRANCH   6  21
BRANCH   7  23
ATOM     23  S   UNL     1      -0.428  11.789  20.442  0.00  0.00    +0.000 S 
BRANCH  23  24
ATOM     24  C   UNL     1      -1.478  11.258  19.089  0.00  0.00    +0.000 A 
ATOM     25  C   UNL     1      -2.817  11.684  19.099  0.00  0.00    +0.000 A 
ATOM     26  C   UNL     1      -3.715  11.264  18.113  0.00  0.00    +0.000 A 
ATOM     27  C   UNL     1      -3.292  10.408  17.102  0.00  0.00    +0.000 A 
ATOM     28  C   UNL     1      -1.974   9.953  17.091  0.00  0.00    +0.000 A 
ATOM     29  C   UNL     1      -1.073  10.361  18.085  0.00  0.00    +0.000 A 
ATOM     30 CL   UNL     1       0.510   9.665  18.026  0.00  0.00    +0.000 Cl
ENDBRANCH  23  24
ENDBRANCH   7  23
TORSDOF 5
ENDMDL
MODEL 8
REMARK VINA RESULT:      -6.0      5.228      7.438
REMARK  Name = 
REMARK  5 active torsions:
REMARK  status: ('A' for Active; 'I' for Inactive)
REMARK    1  A    between atoms: C_4  and  C_5
REMARK    2  A    between atoms: C_4  and  C_10
REMARK    3  A    between atoms: C_18  and  O_19
REMARK    4  A    between atoms: C_20  and  S_21
REMARK    5  A    between atoms: S_21  and  C_22
REMARK                            x       y       z     vdW  Elec       q    Type
REMARK                         _______ _______ _______ _____ _____    ______ ____
ROOT
ATOM      1  O   UNL     1       2.710  12.358  17.851  0.00  0.00    +0.000 OA
ATOM      2  C   UNL     1       2.388  13.230  18.653  0.00  0.00    +0.000 C 
ATOM      3  N   UNL     1       3.229  14.300  18.847  0.00  0.00    +0.000 N 
ATOM      4  C   UNL     1       2.811  15.541  19.484  0.00  0.00    +0.000 C 
ATOM      5  C   UNL     1       1.947  15.177  20.722  0.00  0.00    +0.000 C 
ATOM      6  C   UNL     1       0.926  14.113  20.422  0.00  0.00    +0.000 C 
ATOM      7  C   UNL     1       1.107  13.204  19.446  0.00  0.00    +0.000 C 
ATOM      8  H   UNL     1       4.028  14.311  18.228  0.00  0.00    +0.000 HD
ENDROOT
BRANCH   4   9
ATOM      9  C   UNL     1       2.071  16.494  18.513  0.00  0.00    +0.000 A 
ATOM     10  C   UNL     1       2.681  16.923  17.313  0.00  0.00    +0.000 A 
ATOM     11  C   UNL     1       2.037  17.799  16.433  0.00  0.00    +0.000 A 
ATOM     12  C   UNL     1       0.759  18.274  16.727  0.00  0.00    +0.000 A 
ATOM     13  C   UNL     1       0.135  17.862  17.899  0.00  0.00    +0.000 A 
ATOM     14 BR   UNL     1      -1.596  18.506  18.306  0.00  0.00    +0.000 Br
ATOM     15  C   UNL     1       0.773  16.980  18.778  0.00  0.00    +0.000 A 
ENDBRANCH   4   9
BRANCH   4  16
ATOM     16  C   UNL     1       4.095  16.308  19.865  0.00  0.00    +0.000 A 
ATOM     17  C   UNL     1       5.445  15.923  19.509  0.00  0.00    +0.000 A 
ATOM     18  C   UNL     1       6.404  16.797  19.977  0.00  0.00    +0.000 A 
ATOM     19  S   UNL     1       5.721  18.090  20.850  0.00  0.00    +0.000 S 
ATOM     20  C   UNL     1       4.142  17.486  20.603  0.00  0.00    +0.000 A 
ENDBRANCH   4  16
BRANCH   6  21
ATOM     21  O   UNL     1      -0.217  14.138  21.204  0.00  0.00    +0.000 OA
ATOM     22  H   UNL     1      -0.141  13.495  21.929  0.00  0.00    +0.000 HD
ENDBRANCH   6  21
BRANCH   7  23
ATOM     23  S   UNL     1      -0.109  12.048  18.989  0.00  0.00    +0.000 S 
BRANCH  23  24
ATOM     24  C   UNL     1       0.379  10.625  19.965  0.00  0.00    +0.000 A 
ATOM     25  C   UNL     1       0.207  10.702  21.358  0.00  0.00    +0.000 A 
ATOM     26  C   UNL     1       0.619   9.660  22.194  0.00  0.00    +0.000 A 
ATOM     27  C   UNL     1       1.214   8.524  21.654  0.00  0.00    +0.000 A 
ATOM     28  C   UNL     1       1.417   8.442  20.277  0.00  0.00    +0.000 A 
ATOM     29  C   UNL     1       1.018   9.491  19.435  0.00  0.00    +0.000 A 
ATOM     30 CL   UNL     1       1.400   9.322  17.756  0.00  0.00    +0.000 Cl
ENDBRANCH  23  24
ENDBRANCH   7  23
TORSDOF 5
ENDMDL
MODEL 9
REMARK VINA RESULT:      -6.0      3.939      7.027
REMARK  Name = 
REMARK  5 active torsions:
REMARK  status: ('A' for Active; 'I' for Inactive)
REMARK    1  A    between atoms: C_4  and  C_5
REMARK    2  A    between atoms: C_4  and  C_10
REMARK    3  A    between atoms: C_18  and  O_19
REMARK    4  A    between atoms: C_20  and  S_21
REMARK    5  A    between atoms: S_21  and  C_22
REMARK                            x       y       z     vdW  Elec       q    Type
REMARK                         _______ _______ _______ _____ _____    ______ ____
ROOT
ATOM      1  O   UNL     1      -1.514  16.107  19.578  0.00  0.00    +0.000 OA
ATOM      2  C   UNL     1      -1.535  15.642  20.714  0.00  0.00    +0.000 C 
ATOM      3  N   UNL     1      -2.581  14.828  21.080  0.00  0.00    +0.000 N 
ATOM      4  C   UNL     1      -2.544  13.952  22.243  0.00  0.00    +0.000 C 
ATOM      5  C   UNL     1      -1.910  14.745  23.419  0.00  0.00    +0.000 C 
ATOM      6  C   UNL     1      -0.671  15.495  23.011  0.00  0.00    +0.000 C 
ATOM      7  C   UNL     1      -0.470  15.907  21.746  0.00  0.00    +0.000 C 
ATOM      8  H   UNL     1      -3.218  14.614  20.325  0.00  0.00    +0.000 HD
ENDROOT
BRANCH   4   9
ATOM      9  C   UNL     1      -1.802  12.621  21.968  0.00  0.00    +0.000 A 
ATOM     10  C   UNL     1      -1.401  11.782  23.032  0.00  0.00    +0.000 A 
ATOM     11  C   UNL     1      -0.713  10.586  22.806  0.00  0.00    +0.000 A 
ATOM     12  C   UNL     1      -0.402  10.190  21.505  0.00  0.00    +0.000 A 
ATOM     13  C   UNL     1      -0.791  10.996  20.441  0.00  0.00    +0.000 A 
ATOM     14 BR   UNL     1      -0.369  10.469  18.673  0.00  0.00    +0.000 Br
ATOM     15  C   UNL     1      -1.486  12.189  20.662  0.00  0.00    +0.000 A 
ENDBRANCH   4   9
BRANCH   4  16
ATOM     16  C   UNL     1      -3.998  13.525  22.534  0.00  0.00    +0.000 A 
ATOM     17  C   UNL     1      -4.947  13.041  21.553  0.00  0.00    +0.000 A 
ATOM     18  C   UNL     1      -6.176  12.724  22.093  0.00  0.00    +0.000 A 
ATOM     19  S   UNL     1      -6.228  12.998  23.773  0.00  0.00    +0.000 S 
ATOM     20  C   UNL     1      -4.607  13.537  23.784  0.00  0.00    +0.000 A 
ENDBRANCH   4  16
BRANCH   6  21
ATOM     21  O   UNL     1       0.255  15.720  24.016  0.00  0.00    +0.000 OA
ATOM     22  H   UNL     1       0.559  14.874  24.387  0.00  0.00    +0.000 HD
ENDBRANCH   6  21
BRANCH   7  23
ATOM     23  S   UNL     1       1.006  16.657  21.216  0.00  0.00    +0.000 S 
BRANCH  23  24
ATOM     24  C   UNL     1       1.661  15.400  20.117  0.00  0.00    +0.000 A 
ATOM     25  C   UNL     1       1.780  14.093  20.621  0.00  0.00    +0.000 A 
ATOM     26  C   UNL     1       2.339  13.071  19.848  0.00  0.00    +0.000 A 
ATOM     27  C   UNL     1       2.791  13.336  18.560  0.00  0.00    +0.000 A 
ATOM     28  C   UNL     1       2.706  14.632  18.053  0.00  0.00    +0.000 A 
ATOM     29  C   UNL     1       2.159  15.665  18.829  0.00  0.00    +0.000 A 
ATOM     30 CL   UNL     1       2.186  17.249  18.136  0.00  0.00    +0.000 Cl
ENDBRANCH  23  24
ENDBRANCH   7  23
TORSDOF 5
ENDMDL
