MODEL 1
REMARK VINA RESULT:      -7.0      0.000      0.000
REMARK  Name = 
REMARK  8 active torsions:
REMARK  status: ('A' for Active; 'I' for Inactive)
REMARK    1  A    between atoms: C_1  and  O_2
REMARK    2  A    between atoms: O_2  and  C_3
REMARK    3  A    between atoms: C_6  and  C_7
REMARK    4  A    between atoms: C_7  and  C_8
REMARK    5  A    between atoms: C_14  and  C_15
REMARK    6  A    between atoms: N_21  and  C_22
REMARK    7  A    between atoms: C_22  and  C_23
REMARK    8  A    between atoms: C_22  and  C_24
REMARK                            x       y       z     vdW  Elec       q    Type
REMARK                         _______ _______ _______ _____ _____    ______ ____
ROOT
ATOM      1  C   UNL     1       1.072   9.025  20.825  0.00  0.00    +0.000 C 
ATOM      2  C   UNL     1       1.631   7.573  21.079  0.00  0.00    +0.000 C 
ATOM      3  N   UNL     1       2.449   7.336  19.928  0.00  0.00    +0.000 N 
ATOM      4  C   UNL     1       2.304   8.286  18.952  0.00  0.00    +0.000 C 
ATOM      5  N   UNL     1       2.854   8.017  17.803  0.00  0.00    +0.000 NA
ATOM      6  C   UNL     1       3.474   6.670  18.055  0.00  0.00    +0.000 C 
ATOM      7  C   UNL     1       2.729   6.070  19.276  0.00  0.00    +0.000 C 
ATOM      8  N   UNL     1       1.481   9.274  19.388  0.00  0.00    +0.000 N 
ENDROOT
BRANCH   7   9
ATOM      9  C   UNL     1       1.443   5.228  18.996  0.00  0.00    +0.000 C 
ATOM     10  C   UNL     1       1.387   4.366  17.717  0.00  0.00    +0.000 C 
ATOM     11  C   UNL     1       2.000   2.972  17.825  0.00  0.00    +0.000 C 
ATOM     12  C   UNL     1       1.581   2.214  19.080  0.00  0.00    +0.000 C 
ATOM     13  C   UNL     1       1.690   3.042  20.352  0.00  0.00    +0.000 C 
ATOM     14  C   UNL     1       0.996   4.393  20.212  0.00  0.00    +0.000 C 
ENDBRANCH   7   9
BRANCH   8  15
ATOM     15  C   UNL     1       1.084  10.304  18.410  0.00  0.00    +0.000 C 
ATOM     16  C   UNL     1      -0.409  10.139  18.047  0.00  0.00    +0.000 C 
BRANCH  15  17
ATOM     17  C   UNL     1       1.485  11.801  18.735  0.00  0.00    +0.000 C 
ATOM     18  C   UNL     1       2.669  12.541  18.003  0.00  0.00    +0.000 C 
ATOM     19  C   UNL     1       2.773  14.041  18.521  0.00  0.00    +0.000 C 
ATOM     20  C   UNL     1       1.467  14.844  18.329  0.00  0.00    +0.000 C 
ATOM     21  C   UNL     1       0.311  14.074  18.964  0.00  0.00    +0.000 C 
ATOM     22  C   UNL     1       0.530  13.902  20.473  0.00  0.00    +0.000 C 
ATOM     23  C   UNL     1       1.908  13.284  20.752  0.00  0.00    +0.000 C 
ATOM     24  C   UNL     1       3.033  14.045  20.036  0.00  0.00    +0.000 C 
ATOM     25  C   UNL     1       1.874  11.857  20.230  0.00  0.00    +0.000 C 
ATOM     26  C   UNL     1       0.271  12.705  18.299  0.00  0.00    +0.000 C 
ENDBRANCH  15  17
ENDBRANCH   8  15
BRANCH   1  27
ATOM     27  C   UNL     1      -0.423   8.992  21.256  0.00  0.00    +0.000 C 
BRANCH  27  31
ATOM     28  C   UNL     1      -2.252  12.817  22.450  0.00  0.00    +0.000 A 
ATOM     29  C   UNL     1      -1.533  12.056  23.375  0.00  0.00    +0.000 A 
ATOM     30  C   UNL     1      -0.926  10.838  23.009  0.00  0.00    +0.000 A 
ATOM     31  C   UNL     1      -1.052  10.332  21.705  0.00  0.00    +0.000 A 
ATOM     32  C   UNL     1      -1.779  11.115  20.785  0.00  0.00    +0.000 A 
ATOM     33  C   UNL     1      -2.373  12.343  21.146  0.00  0.00    +0.000 A 
BRANCH  28  35
ATOM     34  C   UNL     1      -3.812  13.799  23.965  0.00  0.00    +0.000 C 
ATOM     35  O   UNL     1      -2.828  13.955  22.948  0.00  0.00    +0.000 OA
ENDBRANCH  28  35
ENDBRANCH  27  31
ENDBRANCH   1  27
TORSDOF 6
ENDMDL
MODEL 2
REMARK VINA RESULT:      -7.0      0.440      1.333
REMARK  Name = 
REMARK  8 active torsions:
REMARK  status: ('A' for Active; 'I' for Inactive)
REMARK    1  A    between atoms: C_1  and  O_2
REMARK    2  A    between atoms: O_2  and  C_3
REMARK    3  A    between atoms: C_6  and  C_7
REMARK    4  A    between atoms: C_7  and  C_8
REMARK    5  A    between atoms: C_14  and  C_15
REMARK    6  A    between atoms: N_21  and  C_22
REMARK    7  A    between atoms: C_22  and  C_23
REMARK    8  A    between atoms: C_22  and  C_24
REMARK                            x       y       z     vdW  Elec       q    Type
REMARK                         _______ _______ _______ _____ _____    ______ ____
ROOT
ATOM      1  C   UNL     1       1.126   8.915  20.851  0.00  0.00    +0.000 C 
ATOM      2  C   UNL     1       1.657   7.450  21.092  0.00  0.00    +0.000 C 
ATOM      3  N   UNL     1       2.485   7.214  19.947  0.00  0.00    +0.000 N 
ATOM      4  C   UNL     1       2.368   8.179  18.983  0.00  0.00    +0.000 C 
ATOM      5  N   UNL     1       2.928   7.916  17.837  0.00  0.00    +0.000 NA
ATOM      6  C   UNL     1       3.521   6.555  18.079  0.00  0.00    +0.000 C 
ATOM      7  C   UNL     1       2.751   5.953  19.282  0.00  0.00    +0.000 C 
ATOM      8  N   UNL     1       1.557   9.175  19.422  0.00  0.00    +0.000 N 
ENDROOT
BRANCH   7   9
ATOM      9  C   UNL     1       1.454   5.136  18.975  0.00  0.00    +0.000 C 
ATOM     10  C   UNL     1       1.398   4.294  17.683  0.00  0.00    +0.000 C 
ATOM     11  C   UNL     1       1.986   2.888  17.778  0.00  0.00    +0.000 C 
ATOM     12  C   UNL     1       1.539   2.119  19.017  0.00  0.00    +0.000 C 
ATOM     13  C   UNL     1       1.648   2.927  20.302  0.00  0.00    +0.000 C 
ATOM     14  C   UNL     1       0.979   4.292  20.174  0.00  0.00    +0.000 C 
ENDBRANCH   7   9
BRANCH   8  15
ATOM     15  C   UNL     1       1.190  10.226  18.454  0.00  0.00    +0.000 C 
ATOM     16  C   UNL     1      -0.209   9.936  17.867  0.00  0.00    +0.000 C 
BRANCH  15  17
ATOM     17  C   UNL     1       1.375  11.729  18.914  0.00  0.00    +0.000 C 
ATOM     18  C   UNL     1       1.679  12.130  20.408  0.00  0.00    +0.000 C 
ATOM     19  C   UNL     1       1.859  13.706  20.520  0.00  0.00    +0.000 C 
ATOM     20  C   UNL     1       2.972  14.259  19.603  0.00  0.00    +0.000 C 
ATOM     21  C   UNL     1       2.717  13.790  18.172  0.00  0.00    +0.000 C 
ATOM     22  C   UNL     1       1.378  14.327  17.649  0.00  0.00    +0.000 C 
ATOM     23  C   UNL     1       0.241  13.982  18.622  0.00  0.00    +0.000 C 
ATOM     24  C   UNL     1       0.569  14.405  20.062  0.00  0.00    +0.000 C 
ATOM     25  C   UNL     1       0.060  12.473  18.584  0.00  0.00    +0.000 C 
ATOM     26  C   UNL     1       2.674  12.268  18.205  0.00  0.00    +0.000 C 
ENDBRANCH  15  17
ENDBRANCH   8  15
BRANCH   1  27
ATOM     27  C   UNL     1      -0.374   8.902  21.263  0.00  0.00    +0.000 C 
BRANCH  27  31
ATOM     28  C   UNL     1      -2.159  12.743  22.471  0.00  0.00    +0.000 A 
ATOM     29  C   UNL     1      -1.426  11.984  23.386  0.00  0.00    +0.000 A 
ATOM     30  C   UNL     1      -0.833  10.761  23.016  0.00  0.00    +0.000 A 
ATOM     31  C   UNL     1      -0.988  10.248  21.717  0.00  0.00    +0.000 A 
ATOM     32  C   UNL     1      -1.728  11.029  20.806  0.00  0.00    +0.000 A 
ATOM     33  C   UNL     1      -2.308  12.263  21.173  0.00  0.00    +0.000 A 
BRANCH  28  35
ATOM     34  C   UNL     1      -2.000  14.574  23.994  0.00  0.00    +0.000 C 
ATOM     35  O   UNL     1      -2.719  13.888  22.974  0.00  0.00    +0.000 OA
ENDBRANCH  28  35
ENDBRANCH  27  31
ENDBRANCH   1  27
TORSDOF 6
ENDMDL
MODEL 3
REMARK VINA RESULT:      -6.9      6.849      9.614
REMARK  Name = 
REMARK  8 active torsions:
REMARK  status: ('A' for Active; 'I' for Inactive)
REMARK    1  A    between atoms: C_1  and  O_2
REMARK    2  A    between atoms: O_2  and  C_3
REMARK    3  A    between atoms: C_6  and  C_7
REMARK    4  A    between atoms: C_7  and  C_8
REMARK    5  A    between atoms: C_14  and  C_15
REMARK    6  A    between atoms: N_21  and  C_22
REMARK    7  A    between atoms: C_22  and  C_23
REMARK    8  A    between atoms: C_22  and  C_24
REMARK                            x       y       z     vdW  Elec       q    Type
REMARK                         _______ _______ _______ _____ _____    ______ ____
ROOT
ATOM      1  C   UNL     1       6.826  15.978  19.418  0.00  0.00    +0.000 C 
ATOM      2  C   UNL     1       6.183  15.800  20.846  0.00  0.00    +0.000 C 
ATOM      3  N   UNL     1       7.325  15.702  21.705  0.00  0.00    +0.000 N 
ATOM      4  C   UNL     1       8.507  15.577  21.026  0.00  0.00    +0.000 C 
ATOM      5  N   UNL     1       9.551  15.273  21.742  0.00  0.00    +0.000 NA
ATOM      6  C   UNL     1       8.971  15.188  23.128  0.00  0.00    +0.000 C 
ATOM      7  C   UNL     1       7.447  14.965  22.948  0.00  0.00    +0.000 C 
ATOM      8  N   UNL     1       8.286  15.682  19.691  0.00  0.00    +0.000 N 
ENDROOT
BRANCH   7   9
ATOM      9  C   UNL     1       6.941  13.490  22.838  0.00  0.00    +0.000 C 
ATOM     10  C   UNL     1       7.957  12.343  23.022  0.00  0.00    +0.000 C 
ATOM     11  C   UNL     1       8.216  11.906  24.461  0.00  0.00    +0.000 C 
ATOM     12  C   UNL     1       6.945  11.721  25.284  0.00  0.00    +0.000 C 
ATOM     13  C   UNL     1       5.966  12.877  25.152  0.00  0.00    +0.000 C 
ATOM     14  C   UNL     1       5.686  13.223  23.693  0.00  0.00    +0.000 C 
ENDBRANCH   7   9
BRANCH   8  15
ATOM     15  C   UNL     1       9.426  15.414  18.793  0.00  0.00    +0.000 C 
ATOM     16  C   UNL     1      10.547  16.449  19.041  0.00  0.00    +0.000 C 
BRANCH  15  17
ATOM     17  C   UNL     1       9.957  13.924  18.725  0.00  0.00    +0.000 C 
ATOM     18  C   UNL     1      10.344  13.221  17.368  0.00  0.00    +0.000 C 
ATOM     19  C   UNL     1      10.888  11.754  17.653  0.00  0.00    +0.000 C 
ATOM     20  C   UNL     1      12.100  11.729  18.609  0.00  0.00    +0.000 C 
ATOM     21  C   UNL     1      11.745  12.490  19.885  0.00  0.00    +0.000 C 
ATOM     22  C   UNL     1      10.570  11.824  20.612  0.00  0.00    +0.000 C 
ATOM     23  C   UNL     1       9.382  11.633  19.657  0.00  0.00    +0.000 C 
ATOM     24  C   UNL     1       9.798  10.929  18.357  0.00  0.00    +0.000 C 
ATOM     25  C   UNL     1       8.853  13.017  19.317  0.00  0.00    +0.000 C 
ATOM     26  C   UNL     1      11.347  13.899  19.465  0.00  0.00    +0.000 C 
ENDBRANCH  15  17
ENDBRANCH   8  15
BRANCH   1  27
ATOM     27  C   UNL     1       5.979  15.100  18.452  0.00  0.00    +0.000 C 
BRANCH  27  31
ATOM     28  C   UNL     1       1.620  15.719  18.568  0.00  0.00    +0.000 A 
ATOM     29  C   UNL     1       2.162  14.452  18.795  0.00  0.00    +0.000 A 
ATOM     30  C   UNL     1       3.554  14.236  18.778  0.00  0.00    +0.000 A 
ATOM     31  C   UNL     1       4.444  15.287  18.501  0.00  0.00    +0.000 A 
ATOM     32  C   UNL     1       3.879  16.559  18.278  0.00  0.00    +0.000 A 
ATOM     33  C   UNL     1       2.485  16.779  18.310  0.00  0.00    +0.000 A 
BRANCH  28  35
ATOM     34  C   UNL     1      -0.347  17.016  18.189  0.00  0.00    +0.000 C 
ATOM     35  O   UNL     1       0.252  15.780  18.567  0.00  0.00    +0.000 OA
ENDBRANCH  28  35
ENDBRANCH  27  31
ENDBRANCH   1  27
TORSDOF 6
ENDMDL
MODEL 4
REMARK VINA RESULT:      -6.7      0.374      1.288
REMARK  Name = 
REMARK  8 active torsions:
REMARK  status: ('A' for Active; 'I' for Inactive)
REMARK    1  A    between atoms: C_1  and  O_2
REMARK    2  A    between atoms: O_2  and  C_3
REMARK    3  A    between atoms: C_6  and  C_7
REMARK    4  A    between atoms: C_7  and  C_8
REMARK    5  A    between atoms: C_14  and  C_15
REMARK    6  A    between atoms: N_21  and  C_22
REMARK    7  A    between atoms: C_22  and  C_23
REMARK    8  A    between atoms: C_22  and  C_24
REMARK                            x       y       z     vdW  Elec       q    Type
REMARK                         _______ _______ _______ _____ _____    ______ ____
ROOT
ATOM      1  C   UNL     1       1.027   9.167  20.789  0.00  0.00    +0.000 C 
ATOM      2  C   UNL     1       1.606   7.730  21.084  0.00  0.00    +0.000 C 
ATOM      3  N   UNL     1       2.432   7.473  19.943  0.00  0.00    +0.000 N 
ATOM      4  C   UNL     1       2.277   8.394  18.942  0.00  0.00    +0.000 C 
ATOM      5  N   UNL     1       2.836   8.103  17.803  0.00  0.00    +0.000 NA
ATOM      6  C   UNL     1       3.474   6.772  18.093  0.00  0.00    +0.000 C 
ATOM      7  C   UNL     1       2.733   6.195  19.327  0.00  0.00    +0.000 C 
ATOM      8  N   UNL     1       1.439   9.382  19.348  0.00  0.00    +0.000 N 
ENDROOT
BRANCH   7   9
ATOM      9  C   UNL     1       1.460   5.327  19.065  0.00  0.00    +0.000 C 
ATOM     10  C   UNL     1       1.391   4.486  17.773  0.00  0.00    +0.000 C 
ATOM     11  C   UNL     1       2.040   3.105  17.841  0.00  0.00    +0.000 C 
ATOM     12  C   UNL     1       1.671   2.316  19.093  0.00  0.00    +0.000 C 
ATOM     13  C   UNL     1       1.794   3.124  20.375  0.00  0.00    +0.000 C 
ATOM     14  C   UNL     1       1.065   4.461  20.277  0.00  0.00    +0.000 C 
ENDBRANCH   7   9
BRANCH   8  15
ATOM     15  C   UNL     1       1.031  10.380  18.341  0.00  0.00    +0.000 C 
ATOM     16  C   UNL     1      -0.376  10.039  17.800  0.00  0.00    +0.000 C 
BRANCH  15  17
ATOM     17  C   UNL     1       1.198  11.906  18.728  0.00  0.00    +0.000 C 
ATOM     18  C   UNL     1       0.071  12.977  18.469  0.00  0.00    +0.000 C 
ATOM     19  C   UNL     1       0.534  14.395  19.019  0.00  0.00    +0.000 C 
ATOM     20  C   UNL     1       0.892  14.379  20.521  0.00  0.00    +0.000 C 
ATOM     21  C   UNL     1       1.919  13.277  20.777  0.00  0.00    +0.000 C 
ATOM     22  C   UNL     1       3.213  13.543  19.997  0.00  0.00    +0.000 C 
ATOM     23  C   UNL     1       2.910  13.769  18.508  0.00  0.00    +0.000 C 
ATOM     24  C   UNL     1       1.821  14.831  18.300  0.00  0.00    +0.000 C 
ATOM     25  C   UNL     1       2.417  12.446  17.945  0.00  0.00    +0.000 C 
ATOM     26  C   UNL     1       1.298  11.972  20.298  0.00  0.00    +0.000 C 
ENDBRANCH  15  17
ENDBRANCH   8  15
BRANCH   1  27
ATOM     27  C   UNL     1      -0.468   9.123  21.216  0.00  0.00    +0.000 C 
BRANCH  27  31
ATOM     28  C   UNL     1      -2.318  12.929  22.437  0.00  0.00    +0.000 A 
ATOM     29  C   UNL     1      -1.586  12.171  23.353  0.00  0.00    +0.000 A 
ATOM     30  C   UNL     1      -0.973  10.960  22.979  0.00  0.00    +0.000 A 
ATOM     31  C   UNL     1      -1.105  10.457  21.674  0.00  0.00    +0.000 A 
ATOM     32  C   UNL     1      -1.845  11.236  20.762  0.00  0.00    +0.000 A 
ATOM     33  C   UNL     1      -2.446  12.459  21.132  0.00  0.00    +0.000 A 
BRANCH  28  35
ATOM     34  C   UNL     1      -4.198  14.399  22.468  0.00  0.00    +0.000 C 
ATOM     35  O   UNL     1      -2.899  14.062  22.943  0.00  0.00    +0.000 OA
ENDBRANCH  28  35
ENDBRANCH  27  31
ENDBRANCH   1  27
TORSDOF 6
ENDMDL
MODEL 5
REMARK VINA RESULT:      -6.5      6.748      9.834
REMARK  Name = 
REMARK  8 active torsions:
REMARK  status: ('A' for Active; 'I' for Inactive)
REMARK    1  A    between atoms: C_1  and  O_2
REMARK    2  A    between atoms: O_2  and  C_3
REMARK    3  A    between atoms: C_6  and  C_7
REMARK    4  A    between atoms: C_7  and  C_8
REMARK    5  A    between atoms: C_14  and  C_15
REMARK    6  A    between atoms: N_21  and  C_22
REMARK    7  A    between atoms: C_22  and  C_23
REMARK    8  A    between atoms: C_22  and  C_24
REMARK                            x       y       z     vdW  Elec       q    Type
REMARK                         _______ _______ _______ _____ _____    ______ ____
ROOT
ATOM      1  C   UNL     1       6.828  15.989  19.927  0.00  0.00    +0.000 C 
ATOM      2  C   UNL     1       6.195  15.842  21.364  0.00  0.00    +0.000 C 
ATOM      3  N   UNL     1       7.339  15.846  22.224  0.00  0.00    +0.000 N 
ATOM      4  C   UNL     1       8.527  15.754  21.549  0.00  0.00    +0.000 C 
ATOM      5  N   UNL     1       9.585  15.540  22.277  0.00  0.00    +0.000 NA
ATOM      6  C   UNL     1       9.010  15.489  23.666  0.00  0.00    +0.000 C 
ATOM      7  C   UNL     1       7.501  15.176  23.500  0.00  0.00    +0.000 C 
ATOM      8  N   UNL     1       8.302  15.785  20.211  0.00  0.00    +0.000 N 
ENDROOT
BRANCH   7   9
ATOM      9  C   UNL     1       7.074  13.672  23.459  0.00  0.00    +0.000 C 
ATOM     10  C   UNL     1       8.138  12.593  23.755  0.00  0.00    +0.000 C 
ATOM     11  C   UNL     1       8.354  12.256  25.229  0.00  0.00    +0.000 C 
ATOM     12  C   UNL     1       7.058  12.053  26.007  0.00  0.00    +0.000 C 
ATOM     13  C   UNL     1       6.029  13.146  25.764  0.00  0.00    +0.000 C 
ATOM     14  C   UNL     1       5.798  13.389  24.275  0.00  0.00    +0.000 C 
ENDBRANCH   7   9
BRANCH   8  15
ATOM     15  C   UNL     1       9.455  15.537  19.325  0.00  0.00    +0.000 C 
ATOM     16  C   UNL     1      10.559  16.586  19.590  0.00  0.00    +0.000 C 
BRANCH  15  17
ATOM     17  C   UNL     1      10.007  14.055  19.254  0.00  0.00    +0.000 C 
ATOM     18  C   UNL     1       9.458  12.899  20.174  0.00  0.00    +0.000 C 
ATOM     19  C   UNL     1      10.184  11.530  19.815  0.00  0.00    +0.000 C 
ATOM     20  C   UNL     1      10.025  11.126  18.333  0.00  0.00    +0.000 C 
ATOM     21  C   UNL     1      10.475  12.288  17.449  0.00  0.00    +0.000 C 
ATOM     22  C   UNL     1      11.956  12.613  17.683  0.00  0.00    +0.000 C 
ATOM     23  C   UNL     1      12.231  12.833  19.178  0.00  0.00    +0.000 C 
ATOM     24  C   UNL     1      11.698  11.677  20.036  0.00  0.00    +0.000 C 
ATOM     25  C   UNL     1      11.517  14.113  19.581  0.00  0.00    +0.000 C 
ATOM     26  C   UNL     1       9.626  13.493  17.833  0.00  0.00    +0.000 C 
ENDBRANCH  15  17
ENDBRANCH   8  15
BRANCH   1  27
ATOM     27  C   UNL     1       6.030  15.023  19.005  0.00  0.00    +0.000 C 
BRANCH  27  31
ATOM     28  C   UNL     1       1.703  15.721  18.577  0.00  0.00    +0.000 A 
ATOM     29  C   UNL     1       2.612  16.758  18.364  0.00  0.00    +0.000 A 
ATOM     30  C   UNL     1       4.001  16.553  18.480  0.00  0.00    +0.000 A 
ATOM     31  C   UNL     1       4.516  15.298  18.845  0.00  0.00    +0.000 A 
ATOM     32  C   UNL     1       3.584  14.262  19.053  0.00  0.00    +0.000 A 
ATOM     33  C   UNL     1       2.193  14.463  18.921  0.00  0.00    +0.000 A 
BRANCH  28  35
ATOM     34  C   UNL     1      -0.516  15.509  19.431  0.00  0.00    +0.000 C 
ATOM     35  O   UNL     1       0.381  16.068  18.477  0.00  0.00    +0.000 OA
ENDBRANCH  28  35
ENDBRANCH  27  31
ENDBRANCH   1  27
TORSDOF 6
ENDMDL
MODEL 6
REMARK VINA RESULT:      -6.4      3.465      8.174
REMARK  Name = 
REMARK  8 active torsions:
REMARK  status: ('A' for Active; 'I' for Inactive)
REMARK    1  A    between atoms: C_1  and  O_2
REMARK    2  A    between atoms: O_2  and  C_3
REMARK    3  A    between atoms: C_6  and  C_7
REMARK    4  A    between atoms: C_7  and  C_8
REMARK    5  A    between atoms: C_14  and  C_15
REMARK    6  A    between atoms: N_21  and  C_22
REMARK    7  A    between atoms: C_22  and  C_23
REMARK    8  A    between atoms: C_22  and  C_24
REMARK                            x       y       z     vdW  Elec       q    Type
REMARK                         _______ _______ _______ _____ _____    ______ ____
ROOT
ATOM      1  C   UNL     1      -1.818  12.857  20.743  0.00  0.00    +0.000 C 
ATOM      2  C   UNL     1      -3.381  12.687  20.855  0.00  0.00    +0.000 C 
ATOM      3  N   UNL     1      -3.860  14.034  20.771  0.00  0.00    +0.000 N 
ATOM      4  C   UNL     1      -2.864  14.970  20.844  0.00  0.00    +0.000 C 
ATOM      5  N   UNL     1      -3.248  16.207  20.986  0.00  0.00    +0.000 NA
ATOM      6  C   UNL     1      -4.746  16.074  21.003  0.00  0.00    +0.000 C 
ATOM      7  C   UNL     1      -5.047  14.601  21.382  0.00  0.00    +0.000 C 
ATOM      8  N   UNL     1      -1.654  14.357  20.877  0.00  0.00    +0.000 N 
ENDROOT
BRANCH   7   9
ATOM      9  C   UNL     1      -5.177  14.257  22.901  0.00  0.00    +0.000 C 
ATOM     10  C   UNL     1      -5.755  15.324  23.855  0.00  0.00    +0.000 C 
ATOM     11  C   UNL     1      -7.277  15.364  23.967  0.00  0.00    +0.000 C 
ATOM     12  C   UNL     1      -7.914  13.990  24.146  0.00  0.00    +0.000 C 
ATOM     13  C   UNL     1      -7.390  12.949  23.169  0.00  0.00    +0.000 C 
ATOM     14  C   UNL     1      -5.865  12.901  23.152  0.00  0.00    +0.000 C 
ENDBRANCH   7   9
BRANCH   8  15
ATOM     15  C   UNL     1      -0.471  15.205  21.115  0.00  0.00    +0.000 C 
ATOM     16  C   UNL     1      -0.149  15.249  22.626  0.00  0.00    +0.000 C 
BRANCH  15  17
ATOM     17  C   UNL     1       0.803  14.938  20.214  0.00  0.00    +0.000 C 
ATOM     18  C   UNL     1       0.708  14.301  18.775  0.00  0.00    +0.000 C 
ATOM     19  C   UNL     1       2.155  14.220  18.121  0.00  0.00    +0.000 C 
ATOM     20  C   UNL     1       2.861  15.590  18.031  0.00  0.00    +0.000 C 
ATOM     21  C   UNL     1       2.869  16.240  19.413  0.00  0.00    +0.000 C 
ATOM     22  C   UNL     1       3.651  15.382  20.418  0.00  0.00    +0.000 C 
ATOM     23  C   UNL     1       3.128  13.938  20.418  0.00  0.00    +0.000 C 
ATOM     24  C   UNL     1       3.068  13.349  19.000  0.00  0.00    +0.000 C 
ATOM     25  C   UNL     1       1.722  13.970  20.994  0.00  0.00    +0.000 C 
ATOM     26  C   UNL     1       1.417  16.345  19.861  0.00  0.00    +0.000 C 
ENDBRANCH  15  17
ENDBRANCH   8  15
BRANCH   1  27
ATOM     27  C   UNL     1      -1.203  11.870  21.777  0.00  0.00    +0.000 C 
BRANCH  27  31
ATOM     28  C   UNL     1       1.386   8.641  20.270  0.00  0.00    +0.000 A 
ATOM     29  C   UNL     1       1.026   9.705  19.441  0.00  0.00    +0.000 A 
ATOM     30  C   UNL     1       0.213  10.756  19.908  0.00  0.00    +0.000 A 
ATOM     31  C   UNL     1      -0.291  10.751  21.220  0.00  0.00    +0.000 A 
ATOM     32  C   UNL     1       0.085   9.671  22.043  0.00  0.00    +0.000 A 
ATOM     33  C   UNL     1       0.914   8.626  21.580  0.00  0.00    +0.000 A 
BRANCH  28  35
ATOM     34  C   UNL     1       2.418   7.805  18.288  0.00  0.00    +0.000 C 
ATOM     35  O   UNL     1       2.142   7.664  19.677  0.00  0.00    +0.000 OA
ENDBRANCH  28  35
ENDBRANCH  27  31
ENDBRANCH   1  27
TORSDOF 6
ENDMDL
MODEL 7
REMARK VINA RESULT:      -6.4      6.854      9.765
REMARK  Name = 
REMARK  8 active torsions:
REMARK  status: ('A' for Active; 'I' for Inactive)
REMARK    1  A    between atoms: C_1  and  O_2
REMARK    2  A    between atoms: O_2  and  C_3
REMARK    3  A    between atoms: C_6  and  C_7
REMARK    4  A    between atoms: C_7  and  C_8
REMARK    5  A    between atoms: C_14  and  C_15
REMARK    6  A    between atoms: N_21  and  C_22
REMARK    7  A    between atoms: C_22  and  C_23
REMARK    8  A    between atoms: C_22  and  C_24
REMARK                            x       y       z     vdW  Elec       q    Type
REMARK                         _______ _______ _______ _____ _____    ______ ____
ROOT
ATOM      1  C   UNL     1       6.836  15.970  19.653  0.00  0.00    +0.000 C 
ATOM      2  C   UNL     1       6.207  15.872  21.096  0.00  0.00    +0.000 C 
ATOM      3  N   UNL     1       7.356  15.861  21.950  0.00  0.00    +0.000 N 
ATOM      4  C   UNL     1       8.537  15.720  21.271  0.00  0.00    +0.000 C 
ATOM      5  N   UNL     1       9.593  15.491  21.998  0.00  0.00    +0.000 NA
ATOM      6  C   UNL     1       9.025  15.485  23.391  0.00  0.00    +0.000 C 
ATOM      7  C   UNL     1       7.506  15.213  23.239  0.00  0.00    +0.000 C 
ATOM      8  N   UNL     1       8.305  15.730  19.934  0.00  0.00    +0.000 N 
ENDROOT
BRANCH   7   9
ATOM      9  C   UNL     1       7.036  13.721  23.232  0.00  0.00    +0.000 C 
ATOM     10  C   UNL     1       8.092  12.613  23.426  0.00  0.00    +0.000 C 
ATOM     11  C   UNL     1       8.431  12.261  24.873  0.00  0.00    +0.000 C 
ATOM     12  C   UNL     1       7.207  12.088  25.765  0.00  0.00    +0.000 C 
ATOM     13  C   UNL     1       6.190  13.210  25.620  0.00  0.00    +0.000 C 
ATOM     14  C   UNL     1       5.832  13.468  24.160  0.00  0.00    +0.000 C 
ENDBRANCH   7   9
BRANCH   8  15
ATOM     15  C   UNL     1       9.445  15.430  19.047  0.00  0.00    +0.000 C 
ATOM     16  C   UNL     1      10.507  16.547  19.158  0.00  0.00    +0.000 C 
BRANCH  15  17
ATOM     17  C   UNL     1      10.061  13.975  19.128  0.00  0.00    +0.000 C 
ATOM     18  C   UNL     1      11.296  13.623  20.043  0.00  0.00    +0.000 C 
ATOM     19  C   UNL     1      11.628  12.072  19.934  0.00  0.00    +0.000 C 
ATOM     20  C   UNL     1      10.435  11.166  20.311  0.00  0.00    +0.000 C 
ATOM     21  C   UNL     1       9.218  11.573  19.483  0.00  0.00    +0.000 C 
ATOM     22  C   UNL     1       9.486  11.384  17.984  0.00  0.00    +0.000 C 
ATOM     23  C   UNL     1      10.780  12.101  17.572  0.00  0.00    +0.000 C 
ATOM     24  C   UNL     1      11.961  11.718  18.475  0.00  0.00    +0.000 C 
ATOM     25  C   UNL     1      10.527  13.594  17.704  0.00  0.00    +0.000 C 
ATOM     26  C   UNL     1       8.960  13.047  19.769  0.00  0.00    +0.000 C 
ENDBRANCH  15  17
ENDBRANCH   8  15
BRANCH   1  27
ATOM     27  C   UNL     1       6.006  15.008  18.756  0.00  0.00    +0.000 C 
BRANCH  27  31
ATOM     28  C   UNL     1       1.645  15.614  18.623  0.00  0.00    +0.000 A 
ATOM     29  C   UNL     1       2.514  16.634  18.230  0.00  0.00    +0.000 A 
ATOM     30  C   UNL     1       3.911  16.455  18.249  0.00  0.00    +0.000 A 
ATOM     31  C   UNL     1       4.479  15.250  18.696  0.00  0.00    +0.000 A 
ATOM     32  C   UNL     1       3.586  14.231  19.086  0.00  0.00    +0.000 A 
ATOM     33  C   UNL     1       2.185  14.404  19.051  0.00  0.00    +0.000 A 
BRANCH  28  35
ATOM     34  C   UNL     1      -0.036  17.236  18.137  0.00  0.00    +0.000 C 
ATOM     35  O   UNL     1       0.314  15.936  18.599  0.00  0.00    +0.000 OA
ENDBRANCH  28  35
ENDBRANCH  27  31
ENDBRANCH   1  27
TORSDOF 6
ENDMDL
MODEL 8
REMARK VINA RESULT:      -6.3      2.947      8.216
REMARK  Name = 
REMARK  8 active torsions:
REMARK  status: ('A' for Active; 'I' for Inactive)
REMARK    1  A    between atoms: C_1  and  O_2
REMARK    2  A    between atoms: O_2  and  C_3
REMARK    3  A    between atoms: C_6  and  C_7
REMARK    4  A    between atoms: C_7  and  C_8
REMARK    5  A    between atoms: C_14  and  C_15
REMARK    6  A    between atoms: N_21  and  C_22
REMARK    7  A    between atoms: C_22  and  C_23
REMARK    8  A    between atoms: C_22  and  C_24
REMARK                            x       y       z     vdW  Elec       q    Type
REMARK                         _______ _______ _______ _____ _____    ______ ____
ROOT
ATOM      1  C   UNL     1      -0.579  11.708  20.876  0.00  0.00    +0.000 C 
ATOM      2  C   UNL     1       0.905  12.241  20.854  0.00  0.00    +0.000 C 
ATOM      3  N   UNL     1       0.750  13.642  21.108  0.00  0.00    +0.000 N 
ATOM      4  C   UNL     1      -0.553  14.061  21.063  0.00  0.00    +0.000 C 
ATOM      5  N   UNL     1      -0.741  15.350  21.075  0.00  0.00    +0.000 NA
ATOM      6  C   UNL     1       0.666  15.876  21.147  0.00  0.00    +0.000 C 
ATOM      7  C   UNL     1       1.584  14.733  20.641  0.00  0.00    +0.000 C 
ATOM      8  N   UNL     1      -1.376  12.997  20.885  0.00  0.00    +0.000 N 
ENDROOT
BRANCH   7   9
ATOM      9  C   UNL     1       1.876  14.666  19.107  0.00  0.00    +0.000 C 
ATOM     10  C   UNL     1       1.763  15.961  18.275  0.00  0.00    +0.000 C 
ATOM     11  C   UNL     1       3.009  16.843  18.242  0.00  0.00    +0.000 C 
ATOM     12  C   UNL     1       4.299  16.073  17.983  0.00  0.00    +0.000 C 
ATOM     13  C   UNL     1       4.442  14.826  18.844  0.00  0.00    +0.000 C 
ATOM     14  C   UNL     1       3.199  13.945  18.780  0.00  0.00    +0.000 C 
ENDBRANCH   7   9
BRANCH   8  15
ATOM     15  C   UNL     1      -2.805  13.277  20.654  0.00  0.00    +0.000 C 
ATOM     16  C   UNL     1      -3.358  12.334  19.562  0.00  0.00    +0.000 C 
BRANCH  15  17
ATOM     17  C   UNL     1      -3.738  13.369  21.930  0.00  0.00    +0.000 C 
ATOM     18  C   UNL     1      -5.217  12.823  21.943  0.00  0.00    +0.000 C 
ATOM     19  C   UNL     1      -5.856  13.021  23.385  0.00  0.00    +0.000 C 
ATOM     20  C   UNL     1      -5.046  12.338  24.509  0.00  0.00    +0.000 C 
ATOM     21  C   UNL     1      -3.594  12.805  24.433  0.00  0.00    +0.000 C 
ATOM     22  C   UNL     1      -3.494  14.322  24.647  0.00  0.00    +0.000 C 
ATOM     23  C   UNL     1      -4.433  15.066  23.686  0.00  0.00    +0.000 C 
ATOM     24  C   UNL     1      -5.866  14.516  23.743  0.00  0.00    +0.000 C 
ATOM     25  C   UNL     1      -3.887  14.867  22.282  0.00  0.00    +0.000 C 
ATOM     26  C   UNL     1      -3.089  12.457  23.038  0.00  0.00    +0.000 C 
ENDBRANCH  15  17
ENDBRANCH   8  15
BRANCH   1  27
ATOM     27  C   UNL     1      -0.686  10.687  19.707  0.00  0.00    +0.000 C 
BRANCH  27  31
ATOM     28  C   UNL     1       2.255   7.409  19.707  0.00  0.00    +0.000 A 
ATOM     29  C   UNL     1       2.101   8.222  18.583  0.00  0.00    +0.000 A 
ATOM     30  C   UNL     1       1.178   9.286  18.568  0.00  0.00    +0.000 A 
ATOM     31  C   UNL     1       0.357   9.544  19.678  0.00  0.00    +0.000 A 
ATOM     32  C   UNL     1       0.528   8.715  20.805  0.00  0.00    +0.000 A 
ATOM     33  C   UNL     1       1.464   7.659  20.826  0.00  0.00    +0.000 A 
BRANCH  28  35
ATOM     34  C   UNL     1       2.633   5.093  19.272  0.00  0.00    +0.000 C 
ATOM     35  O   UNL     1       3.154   6.384  19.571  0.00  0.00    +0.000 OA
ENDBRANCH  28  35
ENDBRANCH  27  31
ENDBRANCH   1  27
TORSDOF 6
ENDMDL
MODEL 9
REMARK VINA RESULT:      -6.3      6.645     10.087
REMARK  Name = 
REMARK  8 active torsions:
REMARK  status: ('A' for Active; 'I' for Inactive)
REMARK    1  A    between atoms: C_1  and  O_2
REMARK    2  A    between atoms: O_2  and  C_3
REMARK    3  A    between atoms: C_6  and  C_7
REMARK    4  A    between atoms: C_7  and  C_8
REMARK    5  A    between atoms: C_14  and  C_15
REMARK    6  A    between atoms: N_21  and  C_22
REMARK    7  A    between atoms: C_22  and  C_23
REMARK    8  A    between atoms: C_22  and  C_24
REMARK                            x       y       z     vdW  Elec       q    Type
REMARK                         _______ _______ _______ _____ _____    ______ ____
ROOT
ATOM      1  C   UNL     1       6.495  16.038  18.821  0.00  0.00    +0.000 C 
ATOM      2  C   UNL     1       5.992  16.546  20.226  0.00  0.00    +0.000 C 
ATOM      3  N   UNL     1       7.211  16.825  20.924  0.00  0.00    +0.000 N 
ATOM      4  C   UNL     1       8.327  16.376  20.270  0.00  0.00    +0.000 C 
ATOM      5  N   UNL     1       9.440  16.407  20.946  0.00  0.00    +0.000 NA
ATOM      6  C   UNL     1       8.995  16.978  22.265  0.00  0.00    +0.000 C 
ATOM      7  C   UNL     1       7.466  16.734  22.350  0.00  0.00    +0.000 C 
ATOM      8  N   UNL     1       7.980  15.865  19.061  0.00  0.00    +0.000 N 
ENDROOT
BRANCH   7   9
ATOM      9  C   UNL     1       6.983  15.383  22.973  0.00  0.00    +0.000 C 
ATOM     10  C   UNL     1       8.026  14.461  23.638  0.00  0.00    +0.000 C 
ATOM     11  C   UNL     1       8.344  14.759  25.101  0.00  0.00    +0.000 C 
ATOM     12  C   UNL     1       7.106  14.987  25.963  0.00  0.00    +0.000 C 
ATOM     13  C   UNL     1       6.102  15.943  25.337  0.00  0.00    +0.000 C 
ATOM     14  C   UNL     1       5.764  15.554  23.901  0.00  0.00    +0.000 C 
ENDBRANCH   7   9
BRANCH   8  15
ATOM     15  C   UNL     1       9.036  15.190  18.283  0.00  0.00    +0.000 C 
ATOM     16  C   UNL     1      10.188  16.177  17.990  0.00  0.00    +0.000 C 
BRANCH  15  17
ATOM     17  C   UNL     1       9.538  13.786  18.814  0.00  0.00    +0.000 C 
ATOM     18  C   UNL     1       8.965  13.116  20.120  0.00  0.00    +0.000 C 
ATOM     19  C   UNL     1       9.641  11.693  20.341  0.00  0.00    +0.000 C 
ATOM     20  C   UNL     1       9.448  10.734  19.146  0.00  0.00    +0.000 C 
ATOM     21  C   UNL     1       9.924  11.427  17.870  0.00  0.00    +0.000 C 
ATOM     22  C   UNL     1      11.418  11.766  17.955  0.00  0.00    +0.000 C 
ATOM     23  C   UNL     1      11.721  12.558  19.235  0.00  0.00    +0.000 C 
ATOM     24  C   UNL     1      11.162  11.863  20.485  0.00  0.00    +0.000 C 
ATOM     25  C   UNL     1      11.054  13.916  19.091  0.00  0.00    +0.000 C 
ATOM     26  C   UNL     1       9.120  12.714  17.738  0.00  0.00    +0.000 C 
ENDBRANCH  15  17
ENDBRANCH   8  15
BRANCH   1  27
ATOM     27  C   UNL     1       5.580  14.837  18.446  0.00  0.00    +0.000 C 
BRANCH  27  31
ATOM     28  C   UNL     1       1.241  15.510  18.788  0.00  0.00    +0.000 A 
ATOM     29  C   UNL     1       1.843  14.430  19.437  0.00  0.00    +0.000 A 
ATOM     30  C   UNL     1       3.231  14.206  19.354  0.00  0.00    +0.000 A 
ATOM     31  C   UNL     1       4.054  15.048  18.586  0.00  0.00    +0.000 A 
ATOM     32  C   UNL     1       3.429  16.135  17.942  0.00  0.00    +0.000 A 
ATOM     33  C   UNL     1       2.040  16.369  18.038  0.00  0.00    +0.000 A 
BRANCH  28  35
ATOM     34  C   UNL     1      -0.719  16.872  18.802  0.00  0.00    +0.000 C 
ATOM     35  O   UNL     1      -0.121  15.585  18.914  0.00  0.00    +0.000 OA
ENDBRANCH  28  35
ENDBRANCH  27  31
ENDBRANCH   1  27
TORSDOF 6
ENDMDL
