MODEL 1
REMARK VINA RESULT:      -9.5      0.000      0.000
REMARK  Name = 
REMARK  7 active torsions:
REMARK  status: ('A' for Active; 'I' for Inactive)
REMARK    1  A    between atoms: C_1  and  C_2
REMARK    2  A    between atoms: C_2  and  C_3
REMARK    3  A    between atoms: C_2  and  C_4
REMARK    4  A    between atoms: C_2  and  C_5
REMARK    5  A    between atoms: C_8  and  C_9
REMARK    6  A    between atoms: C_10  and  C_11
REMARK    7  A    between atoms: N_13  and  C_14
REMARK                            x       y       z     vdW  Elec       q    Type
REMARK                         _______ _______ _______ _____ _____    ______ ____
ROOT
ATOM      1  C   UNL     1       7.475   7.278  17.827  0.00  0.00    +0.000 C 
ATOM      2  O   UNL     1       7.881   6.433  18.616  0.00  0.00    +0.000 OA
ATOM      3  N   UNL     1       6.424   7.133  16.943  0.00  0.00    +0.000 N 
ATOM      4  H   UNL     1       6.294   7.843  16.235  0.00  0.00    +0.000 HD
ENDROOT
BRANCH   3   5
ATOM      5  C   UNL     1       5.485   6.075  16.956  0.00  0.00    +0.000 A 
ATOM      6  C   UNL     1       5.594   4.963  16.116  0.00  0.00    +0.000 A 
ATOM      7  C   UNL     1       4.727   3.875  16.241  0.00  0.00    +0.000 A 
ATOM      8  C   UNL     1       3.740   3.886  17.218  0.00  0.00    +0.000 A 
ATOM      9  C   UNL     1       2.918   2.705  17.471  0.00  0.00    +0.000 A 
ATOM     10  C   UNL     1       1.983   2.740  18.429  0.00  0.00    +0.000 A 
ATOM     11  C   UNL     1       1.710   3.982  19.192  0.00  0.00    +0.000 A 
ATOM     12  O   UNL     1       0.799   4.029  20.010  0.00  0.00    +0.000 OA
ATOM     13  N   UNL     1       2.539   5.050  18.959  0.00  0.00    +0.000 N 
ATOM     14  C   UNL     1       3.582   5.025  18.019  0.00  0.00    +0.000 A 
ATOM     15  C   UNL     1       4.449   6.116  17.898  0.00  0.00    +0.000 A 
ATOM     16  H   UNL     1       2.345   5.881  19.500  0.00  0.00    +0.000 HD
ENDBRANCH   3   5
BRANCH   1  18
ATOM     17  C   UNL     1       8.683   9.108  18.869  0.00  0.00    +0.000 C 
ATOM     18  C   UNL     1       8.124   8.616  17.751  0.00  0.00    +0.000 C 
BRANCH  17  22
ATOM     19  C   UNL     1      10.377  13.067  19.141  0.00  0.00    +0.000 A 
ATOM     20  C   UNL     1      10.240  12.392  17.919  0.00  0.00    +0.000 A 
ATOM     21  C   UNL     1       9.695  11.104  17.856  0.00  0.00    +0.000 A 
ATOM     22  C   UNL     1       9.277  10.441  19.013  0.00  0.00    +0.000 A 
ATOM     23  C   UNL     1       9.401  11.100  20.235  0.00  0.00    +0.000 A 
ATOM     24  C   UNL     1       9.950  12.388  20.298  0.00  0.00    +0.000 A 
BRANCH  19  26
ATOM     25  C   UNL     1      11.115  14.992  20.688  0.00  0.00    +0.000 C 
ATOM     26  C   UNL     1      10.943  14.495  19.234  0.00  0.00    +0.000 C 
ATOM     27  C   UNL     1      10.004  15.488  18.518  0.00  0.00    +0.000 C 
ATOM     28  C   UNL     1      12.333  14.551  18.566  0.00  0.00    +0.000 C 
ENDBRANCH  19  26
ENDBRANCH  17  22
ENDBRANCH   1  18
TORSDOF 4
ENDMDL
MODEL 2
REMARK VINA RESULT:      -9.5      0.624      1.077
REMARK  Name = 
REMARK  7 active torsions:
REMARK  status: ('A' for Active; 'I' for Inactive)
REMARK    1  A    between atoms: C_1  and  C_2
REMARK    2  A    between atoms: C_2  and  C_3
REMARK    3  A    between atoms: C_2  and  C_4
REMARK    4  A    between atoms: C_2  and  C_5
REMARK    5  A    between atoms: C_8  and  C_9
REMARK    6  A    between atoms: C_10  and  C_11
REMARK    7  A    between atoms: N_13  and  C_14
REMARK                            x       y       z     vdW  Elec       q    Type
REMARK                         _______ _______ _______ _____ _____    ______ ____
ROOT
ATOM      1  C   UNL     1       7.476   7.438  17.702  0.00  0.00    +0.000 C 
ATOM      2  O   UNL     1       7.903   6.612  18.501  0.00  0.00    +0.000 OA
ATOM      3  N   UNL     1       6.400   7.271  16.852  0.00  0.00    +0.000 N 
ATOM      4  H   UNL     1       6.251   7.963  16.130  0.00  0.00    +0.000 HD
ENDROOT
BRANCH   3   5
ATOM      5  C   UNL     1       5.462   6.214  16.919  0.00  0.00    +0.000 A 
ATOM      6  C   UNL     1       5.554   5.074  16.114  0.00  0.00    +0.000 A 
ATOM      7  C   UNL     1       4.691   3.992  16.292  0.00  0.00    +0.000 A 
ATOM      8  C   UNL     1       3.722   4.037  17.287  0.00  0.00    +0.000 A 
ATOM      9  C   UNL     1       2.905   2.865  17.596  0.00  0.00    +0.000 A 
ATOM     10  C   UNL     1       1.989   2.932  18.569  0.00  0.00    +0.000 A 
ATOM     11  C   UNL     1       1.731   4.200  19.295  0.00  0.00    +0.000 A 
ATOM     12  O   UNL     1       0.836   4.275  20.129  0.00  0.00    +0.000 OA
ATOM     13  N   UNL     1       2.555   5.259  19.011  0.00  0.00    +0.000 N 
ATOM     14  C   UNL     1       3.580   5.202  18.053  0.00  0.00    +0.000 A 
ATOM     15  C   UNL     1       4.444   6.288  17.878  0.00  0.00    +0.000 A 
ATOM     16  H   UNL     1       2.371   6.107  19.527  0.00  0.00    +0.000 HD
ENDBRANCH   3   5
BRANCH   1  18
ATOM     17  C   UNL     1       8.705   9.296  18.665  0.00  0.00    +0.000 C 
ATOM     18  C   UNL     1       8.123   8.772  17.573  0.00  0.00    +0.000 C 
BRANCH  17  22
ATOM     19  C   UNL     1      10.320  13.292  18.879  0.00  0.00    +0.000 A 
ATOM     20  C   UNL     1       9.355  12.923  17.931  0.00  0.00    +0.000 A 
ATOM     21  C   UNL     1       8.852  11.618  17.875  0.00  0.00    +0.000 A 
ATOM     22  C   UNL     1       9.302  10.633  18.757  0.00  0.00    +0.000 A 
ATOM     23  C   UNL     1      10.257  10.984  19.710  0.00  0.00    +0.000 A 
ATOM     24  C   UNL     1      10.763  12.291  19.764  0.00  0.00    +0.000 A 
BRANCH  19  26
ATOM     25  C   UNL     1      10.977  15.440  17.616  0.00  0.00    +0.000 C 
ATOM     26  C   UNL     1      10.866  14.727  18.983  0.00  0.00    +0.000 C 
ATOM     27  C   UNL     1      12.275  14.716  19.611  0.00  0.00    +0.000 C 
ATOM     28  C   UNL     1       9.931  15.580  19.867  0.00  0.00    +0.000 C 
ENDBRANCH  19  26
ENDBRANCH  17  22
ENDBRANCH   1  18
TORSDOF 4
ENDMDL
MODEL 3
REMARK VINA RESULT:      -9.4      0.681      1.032
REMARK  Name = 
REMARK  7 active torsions:
REMARK  status: ('A' for Active; 'I' for Inactive)
REMARK    1  A    between atoms: C_1  and  C_2
REMARK    2  A    between atoms: C_2  and  C_3
REMARK    3  A    between atoms: C_2  and  C_4
REMARK    4  A    between atoms: C_2  and  C_5
REMARK    5  A    between atoms: C_8  and  C_9
REMARK    6  A    between atoms: C_10  and  C_11
REMARK    7  A    between atoms: N_13  and  C_14
REMARK                            x       y       z     vdW  Elec       q    Type
REMARK                         _______ _______ _______ _____ _____    ______ ____
ROOT
ATOM      1  C   UNL     1       7.336   7.473  17.628  0.00  0.00    +0.000 C 
ATOM      2  O   UNL     1       7.853   6.687  18.413  0.00  0.00    +0.000 OA
ATOM      3  N   UNL     1       6.255   7.214  16.808  0.00  0.00    +0.000 N 
ATOM      4  H   UNL     1       6.028   7.891  16.091  0.00  0.00    +0.000 HD
ENDROOT
BRANCH   3   5
ATOM      5  C   UNL     1       5.411   6.082  16.899  0.00  0.00    +0.000 A 
ATOM      6  C   UNL     1       5.681   4.887  16.225  0.00  0.00    +0.000 A 
ATOM      7  C   UNL     1       4.903   3.748  16.436  0.00  0.00    +0.000 A 
ATOM      8  C   UNL     1       3.843   3.790  17.334  0.00  0.00    +0.000 A 
ATOM      9  C   UNL     1       3.107   2.578  17.687  0.00  0.00    +0.000 A 
ATOM     10  C   UNL     1       2.100   2.645  18.566  0.00  0.00    +0.000 A 
ATOM     11  C   UNL     1       1.662   3.943  19.134  0.00  0.00    +0.000 A 
ATOM     12  O   UNL     1       0.688   4.008  19.876  0.00  0.00    +0.000 OA
ATOM     13  N   UNL     1       2.413   5.046  18.817  0.00  0.00    +0.000 N 
ATOM     14  C   UNL     1       3.526   5.001  17.962  0.00  0.00    +0.000 A 
ATOM     15  C   UNL     1       4.304   6.145  17.755  0.00  0.00    +0.000 A 
ATOM     16  H   UNL     1       2.107   5.917  19.227  0.00  0.00    +0.000 HD
ENDBRANCH   3   5
BRANCH   1  18
ATOM     17  C   UNL     1       8.653   9.334  18.460  0.00  0.00    +0.000 C 
ATOM     18  C   UNL     1       7.864   8.857  17.483  0.00  0.00    +0.000 C 
BRANCH  17  22
ATOM     19  C   UNL     1      10.361  13.287  18.734  0.00  0.00    +0.000 A 
ATOM     20  C   UNL     1      10.849  12.206  19.483  0.00  0.00    +0.000 A 
ATOM     21  C   UNL     1      10.273  10.934  19.383  0.00  0.00    +0.000 A 
ATOM     22  C   UNL     1       9.183  10.699  18.541  0.00  0.00    +0.000 A 
ATOM     23  C   UNL     1       8.690  11.762  17.785  0.00  0.00    +0.000 A 
ATOM     24  C   UNL     1       9.265  13.036  17.888  0.00  0.00    +0.000 A 
BRANCH  19  26
ATOM     25  C   UNL     1      12.329  14.719  19.582  0.00  0.00    +0.000 C 
ATOM     26  C   UNL     1      10.995  14.687  18.800  0.00  0.00    +0.000 C 
ATOM     27  C   UNL     1      10.034  15.675  19.493  0.00  0.00    +0.000 C 
ATOM     28  C   UNL     1      11.292  15.195  17.373  0.00  0.00    +0.000 C 
ENDBRANCH  19  26
ENDBRANCH  17  22
ENDBRANCH   1  18
TORSDOF 4
ENDMDL
MODEL 4
REMARK VINA RESULT:      -9.2      1.060      1.410
REMARK  Name = 
REMARK  7 active torsions:
REMARK  status: ('A' for Active; 'I' for Inactive)
REMARK    1  A    between atoms: C_1  and  C_2
REMARK    2  A    between atoms: C_2  and  C_3
REMARK    3  A    between atoms: C_2  and  C_4
REMARK    4  A    between atoms: C_2  and  C_5
REMARK    5  A    between atoms: C_8  and  C_9
REMARK    6  A    between atoms: C_10  and  C_11
REMARK    7  A    between atoms: N_13  and  C_14
REMARK                            x       y       z     vdW  Elec       q    Type
REMARK                         _______ _______ _______ _____ _____    ______ ____
ROOT
ATOM      1  C   UNL     1       7.159   7.002  17.671  0.00  0.00    +0.000 C 
ATOM      2  O   UNL     1       7.842   6.045  18.017  0.00  0.00    +0.000 OA
ATOM      3  N   UNL     1       5.820   6.969  17.333  0.00  0.00    +0.000 N 
ATOM      4  H   UNL     1       5.415   7.794  16.909  0.00  0.00    +0.000 HD
ENDROOT
BRANCH   3   5
ATOM      5  C   UNL     1       4.948   5.877  17.553  0.00  0.00    +0.000 A 
ATOM      6  C   UNL     1       4.681   4.918  16.571  0.00  0.00    +0.000 A 
ATOM      7  C   UNL     1       3.921   3.783  16.858  0.00  0.00    +0.000 A 
ATOM      8  C   UNL     1       3.419   3.592  18.139  0.00  0.00    +0.000 A 
ATOM      9  C   UNL     1       2.749   2.347  18.507  0.00  0.00    +0.000 A 
ATOM     10  C   UNL     1       2.288   2.184  19.753  0.00  0.00    +0.000 A 
ATOM     11  C   UNL     1       2.375   3.277  20.753  0.00  0.00    +0.000 A 
ATOM     12  O   UNL     1       1.879   3.149  21.867  0.00  0.00    +0.000 OA
ATOM     13  N   UNL     1       3.057   4.407  20.382  0.00  0.00    +0.000 N 
ATOM     14  C   UNL     1       3.625   4.582  19.110  0.00  0.00    +0.000 A 
ATOM     15  C   UNL     1       4.388   5.719  18.827  0.00  0.00    +0.000 A 
ATOM     16  H   UNL     1       3.118   5.132  21.083  0.00  0.00    +0.000 HD
ENDBRANCH   3   5
BRANCH   1  18
ATOM     17  C   UNL     1       8.494   8.797  18.612  0.00  0.00    +0.000 C 
ATOM     18  C   UNL     1       7.753   8.364  17.578  0.00  0.00    +0.000 C 
BRANCH  17  22
ATOM     19  C   UNL     1      10.071  12.802  18.923  0.00  0.00    +0.000 A 
ATOM     20  C   UNL     1       9.257  12.398  17.855  0.00  0.00    +0.000 A 
ATOM     21  C   UNL     1       8.764  11.090  17.771  0.00  0.00    +0.000 A 
ATOM     22  C   UNL     1       9.074  10.138  18.745  0.00  0.00    +0.000 A 
ATOM     23  C   UNL     1       9.877  10.525  19.817  0.00  0.00    +0.000 A 
ATOM     24  C   UNL     1      10.374  11.834  19.899  0.00  0.00    +0.000 A 
BRANCH  19  26
ATOM     25  C   UNL     1      10.520  15.047  17.740  0.00  0.00    +0.000 C 
ATOM     26  C   UNL     1      10.600  14.240  19.056  0.00  0.00    +0.000 C 
ATOM     27  C   UNL     1      12.079  14.225  19.496  0.00  0.00    +0.000 C 
ATOM     28  C   UNL     1       9.773  15.007  20.111  0.00  0.00    +0.000 C 
ENDBRANCH  19  26
ENDBRANCH  17  22
ENDBRANCH   1  18
TORSDOF 4
ENDMDL
MODEL 5
REMARK VINA RESULT:      -8.9      1.454      1.777
REMARK  Name = 
REMARK  7 active torsions:
REMARK  status: ('A' for Active; 'I' for Inactive)
REMARK    1  A    between atoms: C_1  and  C_2
REMARK    2  A    between atoms: C_2  and  C_3
REMARK    3  A    between atoms: C_2  and  C_4
REMARK    4  A    between atoms: C_2  and  C_5
REMARK    5  A    between atoms: C_8  and  C_9
REMARK    6  A    between atoms: C_10  and  C_11
REMARK    7  A    between atoms: N_13  and  C_14
REMARK                            x       y       z     vdW  Elec       q    Type
REMARK                         _______ _______ _______ _____ _____    ______ ____
ROOT
ATOM      1  C   UNL     1       7.392   7.444  17.894  0.00  0.00    +0.000 C 
ATOM      2  O   UNL     1       7.832   6.517  18.563  0.00  0.00    +0.000 OA
ATOM      3  N   UNL     1       6.137   7.513  17.320  0.00  0.00    +0.000 N 
ATOM      4  H   UNL     1       5.955   8.257  16.659  0.00  0.00    +0.000 HD
ENDROOT
BRANCH   3   5
ATOM      5  C   UNL     1       5.061   6.637  17.599  0.00  0.00    +0.000 A 
ATOM      6  C   UNL     1       3.731   7.067  17.634  0.00  0.00    +0.000 A 
ATOM      7  C   UNL     1       2.682   6.158  17.783  0.00  0.00    +0.000 A 
ATOM      8  C   UNL     1       2.954   4.800  17.895  0.00  0.00    +0.000 A 
ATOM      9  C   UNL     1       1.875   3.815  17.901  0.00  0.00    +0.000 A 
ATOM     10  C   UNL     1       2.167   2.512  17.995  0.00  0.00    +0.000 A 
ATOM     11  C   UNL     1       3.565   2.049  18.171  0.00  0.00    +0.000 A 
ATOM     12  O   UNL     1       3.816   0.860  18.337  0.00  0.00    +0.000 OA
ATOM     13  N   UNL     1       4.549   3.001  18.106  0.00  0.00    +0.000 N 
ATOM     14  C   UNL     1       4.287   4.369  17.928  0.00  0.00    +0.000 A 
ATOM     15  C   UNL     1       5.341   5.276  17.777  0.00  0.00    +0.000 A 
ATOM     16  H   UNL     1       5.495   2.662  18.213  0.00  0.00    +0.000 HD
ENDBRANCH   3   5
BRANCH   1  18
ATOM     17  C   UNL     1       8.596   9.401  18.675  0.00  0.00    +0.000 C 
ATOM     18  C   UNL     1       8.225   8.648  17.626  0.00  0.00    +0.000 C 
BRANCH  17  22
ATOM     19  C   UNL     1      10.612  13.208  18.417  0.00  0.00    +0.000 A 
ATOM     20  C   UNL     1       9.470  12.911  17.659  0.00  0.00    +0.000 A 
ATOM     21  C   UNL     1       8.838  11.666  17.753  0.00  0.00    +0.000 A 
ATOM     22  C   UNL     1       9.330  10.670  18.600  0.00  0.00    +0.000 A 
ATOM     23  C   UNL     1      10.460  10.950  19.366  0.00  0.00    +0.000 A 
ATOM     24  C   UNL     1      11.095  12.196  19.269  0.00  0.00    +0.000 A 
BRANCH  19  26
ATOM     25  C   UNL     1      12.112  14.915  19.634  0.00  0.00    +0.000 C 
ATOM     26  C   UNL     1      11.307  14.579  18.357  0.00  0.00    +0.000 C 
ATOM     27  C   UNL     1      10.262  15.698  18.166  0.00  0.00    +0.000 C 
ATOM     28  C   UNL     1      12.297  14.612  17.173  0.00  0.00    +0.000 C 
ENDBRANCH  19  26
ENDBRANCH  17  22
ENDBRANCH   1  18
TORSDOF 4
ENDMDL
MODEL 6
REMARK VINA RESULT:      -8.8      1.332      1.530
REMARK  Name = 
REMARK  7 active torsions:
REMARK  status: ('A' for Active; 'I' for Inactive)
REMARK    1  A    between atoms: C_1  and  C_2
REMARK    2  A    between atoms: C_2  and  C_3
REMARK    3  A    between atoms: C_2  and  C_4
REMARK    4  A    between atoms: C_2  and  C_5
REMARK    5  A    between atoms: C_8  and  C_9
REMARK    6  A    between atoms: C_10  and  C_11
REMARK    7  A    between atoms: N_13  and  C_14
REMARK                            x       y       z     vdW  Elec       q    Type
REMARK                         _______ _______ _______ _____ _____    ______ ____
ROOT
ATOM      1  C   UNL     1       7.202   6.366  17.706  0.00  0.00    +0.000 C 
ATOM      2  O   UNL     1       7.619   5.381  17.108  0.00  0.00    +0.000 OA
ATOM      3  N   UNL     1       5.898   6.588  18.106  0.00  0.00    +0.000 N 
ATOM      4  H   UNL     1       5.653   7.509  18.444  0.00  0.00    +0.000 HD
ENDROOT
BRANCH   3   5
ATOM      5  C   UNL     1       4.867   5.619  18.106  0.00  0.00    +0.000 A 
ATOM      6  C   UNL     1       4.480   4.934  16.950  0.00  0.00    +0.000 A 
ATOM      7  C   UNL     1       3.551   3.893  17.004  0.00  0.00    +0.000 A 
ATOM      8  C   UNL     1       3.000   3.521  18.224  0.00  0.00    +0.000 A 
ATOM      9  C   UNL     1       2.143   2.343  18.334  0.00  0.00    +0.000 A 
ATOM     10  C   UNL     1       1.637   1.999  19.525  0.00  0.00    +0.000 A 
ATOM     11  C   UNL     1       1.867   2.836  20.728  0.00  0.00    +0.000 A 
ATOM     12  O   UNL     1       1.335   2.558  21.797  0.00  0.00    +0.000 OA
ATOM     13  N   UNL     1       2.719   3.901  20.591  0.00  0.00    +0.000 N 
ATOM     14  C   UNL     1       3.332   4.246  19.376  0.00  0.00    +0.000 A 
ATOM     15  C   UNL     1       4.264   5.289  19.326  0.00  0.00    +0.000 A 
ATOM     16  H   UNL     1       2.874   4.449  21.426  0.00  0.00    +0.000 HD
ENDBRANCH   3   5
BRANCH   1  18
ATOM     17  C   UNL     1       7.676   8.735  17.938  0.00  0.00    +0.000 C 
ATOM     18  C   UNL     1       8.124   7.476  18.073  0.00  0.00    +0.000 C 
BRANCH  17  22
ATOM     19  C   UNL     1       9.869  12.403  18.539  0.00  0.00    +0.000 A 
ATOM     20  C   UNL     1       8.785  12.314  17.654  0.00  0.00    +0.000 A 
ATOM     21  C   UNL     1       8.094  11.110  17.468  0.00  0.00    +0.000 A 
ATOM     22  C   UNL     1       8.467   9.952  18.154  0.00  0.00    +0.000 A 
ATOM     23  C   UNL     1       9.539  10.024  19.042  0.00  0.00    +0.000 A 
ATOM     24  C   UNL     1      10.233  11.228  19.224  0.00  0.00    +0.000 A 
BRANCH  19  26
ATOM     25  C   UNL     1      11.864  13.554  19.694  0.00  0.00    +0.000 C 
ATOM     26  C   UNL     1      10.625  13.720  18.785  0.00  0.00    +0.000 C 
ATOM     27  C   UNL     1       9.695  14.750  19.460  0.00  0.00    +0.000 C 
ATOM     28  C   UNL     1      11.120  14.298  17.442  0.00  0.00    +0.000 C 
ENDBRANCH  19  26
ENDBRANCH  17  22
ENDBRANCH   1  18
TORSDOF 4
ENDMDL
MODEL 7
REMARK VINA RESULT:      -8.7      1.654      1.953
REMARK  Name = 
REMARK  7 active torsions:
REMARK  status: ('A' for Active; 'I' for Inactive)
REMARK    1  A    between atoms: C_1  and  C_2
REMARK    2  A    between atoms: C_2  and  C_3
REMARK    3  A    between atoms: C_2  and  C_4
REMARK    4  A    between atoms: C_2  and  C_5
REMARK    5  A    between atoms: C_8  and  C_9
REMARK    6  A    between atoms: C_10  and  C_11
REMARK    7  A    between atoms: N_13  and  C_14
REMARK                            x       y       z     vdW  Elec       q    Type
REMARK                         _______ _______ _______ _____ _____    ______ ____
ROOT
ATOM      1  C   UNL     1       7.736   7.594  17.904  0.00  0.00    +0.000 C 
ATOM      2  O   UNL     1       8.221   6.897  18.788  0.00  0.00    +0.000 OA
ATOM      3  N   UNL     1       6.679   7.252  17.083  0.00  0.00    +0.000 N 
ATOM      4  H   UNL     1       6.480   7.846  16.289  0.00  0.00    +0.000 HD
ENDROOT
BRANCH   3   5
ATOM      5  C   UNL     1       5.823   6.141  17.272  0.00  0.00    +0.000 A 
ATOM      6  C   UNL     1       4.923   5.710  16.292  0.00  0.00    +0.000 A 
ATOM      7  C   UNL     1       4.185   4.536  16.455  0.00  0.00    +0.000 A 
ATOM      8  C   UNL     1       4.344   3.774  17.605  0.00  0.00    +0.000 A 
ATOM      9  C   UNL     1       3.701   2.469  17.738  0.00  0.00    +0.000 A 
ATOM     10  C   UNL     1       3.883   1.749  18.852  0.00  0.00    +0.000 A 
ATOM     11  C   UNL     1       4.666   2.283  19.992  0.00  0.00    +0.000 A 
ATOM     12  O   UNL     1       4.761   1.653  21.039  0.00  0.00    +0.000 OA
ATOM     13  N   UNL     1       5.295   3.487  19.805  0.00  0.00    +0.000 N 
ATOM     14  C   UNL     1       5.193   4.234  18.621  0.00  0.00    +0.000 A 
ATOM     15  C   UNL     1       5.936   5.409  18.460  0.00  0.00    +0.000 A 
ATOM     16  H   UNL     1       5.835   3.826  20.589  0.00  0.00    +0.000 HD
ENDBRANCH   3   5
BRANCH   1  18
ATOM     17  C   UNL     1       8.887   9.603  18.629  0.00  0.00    +0.000 C 
ATOM     18  C   UNL     1       8.280   8.950  17.625  0.00  0.00    +0.000 C 
BRANCH  17  22
ATOM     19  C   UNL     1      10.224  13.702  18.444  0.00  0.00    +0.000 A 
ATOM     20  C   UNL     1       9.073  13.258  17.777  0.00  0.00    +0.000 A 
ATOM     21  C   UNL     1       8.663  11.921  17.845  0.00  0.00    +0.000 A 
ATOM     22  C   UNL     1       9.394  10.979  18.573  0.00  0.00    +0.000 A 
ATOM     23  C   UNL     1      10.538  11.405  19.246  0.00  0.00    +0.000 A 
ATOM     24  C   UNL     1      10.950  12.743  19.175  0.00  0.00    +0.000 A 
BRANCH  19  26
ATOM     25  C   UNL     1      11.622  15.495  17.230  0.00  0.00    +0.000 C 
ATOM     26  C   UNL     1      10.679  15.171  18.412  0.00  0.00    +0.000 C 
ATOM     27  C   UNL     1      11.434  15.524  19.711  0.00  0.00    +0.000 C 
ATOM     28  C   UNL     1       9.450  16.097  18.281  0.00  0.00    +0.000 C 
ENDBRANCH  19  26
ENDBRANCH  17  22
ENDBRANCH   1  18
TORSDOF 4
ENDMDL
MODEL 8
REMARK VINA RESULT:      -8.5      1.117      1.265
REMARK  Name = 
REMARK  7 active torsions:
REMARK  status: ('A' for Active; 'I' for Inactive)
REMARK    1  A    between atoms: C_1  and  C_2
REMARK    2  A    between atoms: C_2  and  C_3
REMARK    3  A    between atoms: C_2  and  C_4
REMARK    4  A    between atoms: C_2  and  C_5
REMARK    5  A    between atoms: C_8  and  C_9
REMARK    6  A    between atoms: C_10  and  C_11
REMARK    7  A    between atoms: N_13  and  C_14
REMARK                            x       y       z     vdW  Elec       q    Type
REMARK                         _______ _______ _______ _____ _____    ______ ____
ROOT
ATOM      1  C   UNL     1       7.853   8.101  17.919  0.00  0.00    +0.000 C 
ATOM      2  O   UNL     1       8.319   7.354  18.771  0.00  0.00    +0.000 OA
ATOM      3  N   UNL     1       6.979   7.745  16.910  0.00  0.00    +0.000 N 
ATOM      4  H   UNL     1       6.798   8.417  16.177  0.00  0.00    +0.000 HD
ENDROOT
BRANCH   3   5
ATOM      5  C   UNL     1       6.287   6.514  16.826  0.00  0.00    +0.000 A 
ATOM      6  C   UNL     1       6.917   5.321  16.458  0.00  0.00    +0.000 A 
ATOM      7  C   UNL     1       6.239   4.102  16.508  0.00  0.00    +0.000 A 
ATOM      8  C   UNL     1       4.918   4.061  16.934  0.00  0.00    +0.000 A 
ATOM      9  C   UNL     1       4.232   2.788  17.140  0.00  0.00    +0.000 A 
ATOM     10  C   UNL     1       2.962   2.779  17.564  0.00  0.00    +0.000 A 
ATOM     11  C   UNL     1       2.208   4.041  17.759  0.00  0.00    +0.000 A 
ATOM     12  O   UNL     1       1.023   4.023  18.070  0.00  0.00    +0.000 OA
ATOM     13  N   UNL     1       2.905   5.212  17.606  0.00  0.00    +0.000 N 
ATOM     14  C   UNL     1       4.260   5.260  17.239  0.00  0.00    +0.000 A 
ATOM     15  C   UNL     1       4.935   6.484  17.192  0.00  0.00    +0.000 A 
ATOM     16  H   UNL     1       2.377   6.060  17.758  0.00  0.00    +0.000 HD
ENDBRANCH   3   5
BRANCH   1  18
ATOM     17  C   UNL     1       9.293   9.933  18.599  0.00  0.00    +0.000 C 
ATOM     18  C   UNL     1       8.214   9.545  17.899  0.00  0.00    +0.000 C 
BRANCH  17  22
ATOM     19  C   UNL     1      10.623  14.022  18.962  0.00  0.00    +0.000 A 
ATOM     20  C   UNL     1      10.966  13.217  17.866  0.00  0.00    +0.000 A 
ATOM     21  C   UNL     1      10.529  11.889  17.774  0.00  0.00    +0.000 A 
ATOM     22  C   UNL     1       9.744  11.317  18.778  0.00  0.00    +0.000 A 
ATOM     23  C   UNL     1       9.389  12.106  19.872  0.00  0.00    +0.000 A 
ATOM     24  C   UNL     1       9.830  13.434  19.965  0.00  0.00    +0.000 A 
BRANCH  19  26
ATOM     25  C   UNL     1      12.331  15.690  19.934  0.00  0.00    +0.000 C 
ATOM     26  C   UNL     1      11.062  15.492  19.072  0.00  0.00    +0.000 C 
ATOM     27  C   UNL     1       9.939  16.338  19.708  0.00  0.00    +0.000 C 
ATOM     28  C   UNL     1      11.375  16.052  17.668  0.00  0.00    +0.000 C 
ENDBRANCH  19  26
ENDBRANCH  17  22
ENDBRANCH   1  18
TORSDOF 4
ENDMDL
MODEL 9
REMARK VINA RESULT:      -8.5      1.653      2.007
REMARK  Name = 
REMARK  7 active torsions:
REMARK  status: ('A' for Active; 'I' for Inactive)
REMARK    1  A    between atoms: C_1  and  C_2
REMARK    2  A    between atoms: C_2  and  C_3
REMARK    3  A    between atoms: C_2  and  C_4
REMARK    4  A    between atoms: C_2  and  C_5
REMARK    5  A    between atoms: C_8  and  C_9
REMARK    6  A    between atoms: C_10  and  C_11
REMARK    7  A    between atoms: N_13  and  C_14
REMARK                            x       y       z     vdW  Elec       q    Type
REMARK                         _______ _______ _______ _____ _____    ______ ____
ROOT
ATOM      1  C   UNL     1       7.579   7.571  17.923  0.00  0.00    +0.000 C 
ATOM      2  O   UNL     1       8.168   6.711  18.568  0.00  0.00    +0.000 OA
ATOM      3  N   UNL     1       6.296   7.479  17.420  0.00  0.00    +0.000 N 
ATOM      4  H   UNL     1       5.986   8.189  16.769  0.00  0.00    +0.000 HD
ENDROOT
BRANCH   3   5
ATOM      5  C   UNL     1       5.355   6.478  17.759  0.00  0.00    +0.000 A 
ATOM      6  C   UNL     1       4.028   6.513  17.319  0.00  0.00    +0.000 A 
ATOM      7  C   UNL     1       3.159   5.448  17.560  0.00  0.00    +0.000 A 
ATOM      8  C   UNL     1       3.611   4.327  18.246  0.00  0.00    +0.000 A 
ATOM      9  C   UNL     1       2.772   3.140  18.383  0.00  0.00    +0.000 A 
ATOM     10  C   UNL     1       3.239   2.068  19.036  0.00  0.00    +0.000 A 
ATOM     11  C   UNL     1       4.568   2.089  19.693  0.00  0.00    +0.000 A 
ATOM     12  O   UNL     1       4.955   1.134  20.357  0.00  0.00    +0.000 OA
ATOM     13  N   UNL     1       5.343   3.203  19.495  0.00  0.00    +0.000 N 
ATOM     14  C   UNL     1       4.919   4.314  18.749  0.00  0.00    +0.000 A 
ATOM     15  C   UNL     1       5.794   5.378  18.507  0.00  0.00    +0.000 A 
ATOM     16  H   UNL     1       6.251   3.190  19.939  0.00  0.00    +0.000 HD
ENDBRANCH   3   5
BRANCH   1  18
ATOM     17  C   UNL     1       8.763   9.569  18.627  0.00  0.00    +0.000 C 
ATOM     18  C   UNL     1       8.240   8.867  17.609  0.00  0.00    +0.000 C 
BRANCH  17  22
ATOM     19  C   UNL     1      10.372  13.561  18.312  0.00  0.00    +0.000 A 
ATOM     20  C   UNL     1       9.191  13.176  17.663  0.00  0.00    +0.000 A 
ATOM     21  C   UNL     1       8.692  11.872  17.773  0.00  0.00    +0.000 A 
ATOM     22  C   UNL     1       9.362  10.905  18.527  0.00  0.00    +0.000 A 
ATOM     23  C   UNL     1      10.535  11.273  19.184  0.00  0.00    +0.000 A 
ATOM     24  C   UNL     1      11.036  12.578  19.071  0.00  0.00    +0.000 A 
BRANCH  19  26
ATOM     25  C   UNL     1       9.850  16.047  17.878  0.00  0.00    +0.000 C 
ATOM     26  C   UNL     1      10.925  14.995  18.234  0.00  0.00    +0.000 C 
ATOM     27  C   UNL     1      12.027  15.083  17.158  0.00  0.00    +0.000 C 
ATOM     28  C   UNL     1      11.525  15.399  19.598  0.00  0.00    +0.000 C 
ENDBRANCH  19  26
ENDBRANCH  17  22
ENDBRANCH   1  18
TORSDOF 4
ENDMDL
