MODEL 1
REMARK VINA RESULT:      -7.7      0.000      0.000
REMARK  Name = 
REMARK  7 active torsions:
REMARK  status: ('A' for Active; 'I' for Inactive)
REMARK    1  A    between atoms: C_1  and  N_2
REMARK    2  A    between atoms: N_2  and  C_3
REMARK    3  A    between atoms: N_2  and  C_22
REMARK    4  A    between atoms: C_3  and  C_4
REMARK    5  A    between atoms: C_11  and  N_12
REMARK    6  A    between atoms: N_12  and  C_13
REMARK    7  A    between atoms: C_16  and  N_17
REMARK                            x       y       z     vdW  Elec       q    Type
REMARK                         _______ _______ _______ _____ _____    ______ ____
ROOT
ATOM      1  C   UNL     1       4.147   7.220  17.415  0.00  0.00    +0.000 C 
ATOM      2  C   UNL     1       3.227   6.290  18.269  0.00  0.00    +0.000 C 
ATOM      3  C   UNL     1       2.461   7.064  19.317  0.00  0.00    +0.000 A 
ATOM      4  C   UNL     1       2.002   8.334  18.852  0.00  0.00    +0.000 A 
ATOM      5  C   UNL     1       1.297   9.179  19.703  0.00  0.00    +0.000 A 
ATOM      6  C   UNL     1       0.996   8.747  20.986  0.00  0.00    +0.000 A 
ATOM      7  C   UNL     1       1.372   7.469  21.418  0.00  0.00    +0.000 A 
ATOM      8  C   UNL     1       2.133   6.599  20.622  0.00  0.00    +0.000 A 
ATOM      9  C   UNL     1       2.186   8.701  17.399  0.00  0.00    +0.000 C 
ATOM     10  N   UNL     1       3.534   8.472  16.903  0.00  0.00    +0.000 NA
ATOM     11  H   UNL     1       4.117   9.265  17.163  0.00  0.00    +0.000 HD
ENDROOT
BRANCH   8  12
ATOM     12  N   UNL     1       2.493   5.338  21.094  0.00  0.00    +0.000 N 
ATOM     13  H   UNL     1       3.432   5.262  21.462  0.00  0.00    +0.000 HD
BRANCH  12  14
ATOM     14  C   UNL     1       1.602   4.159  21.191  0.00  0.00    +0.000 C 
ATOM     15  C   UNL     1       0.687   4.081  19.956  0.00  0.00    +0.000 C 
ATOM     16  C   UNL     1       1.454   3.723  18.682  0.00  0.00    +0.000 C 
ATOM     17  C   UNL     1       2.190   2.382  18.769  0.00  0.00    +0.000 C 
ATOM     18  C   UNL     1       2.986   2.242  20.076  0.00  0.00    +0.000 C 
ATOM     19  C   UNL     1       2.315   2.801  21.337  0.00  0.00    +0.000 C 
BRANCH  17  20
ATOM     20  N   UNL     1       1.245   1.273  18.579  0.00  0.00    +0.000 NA
ATOM     21  H   UNL     1       1.639   0.391  18.868  0.00  0.00    +0.000 HD
ATOM     22  H   UNL     1       1.011   1.188  17.590  0.00  0.00    +0.000 HD
ENDBRANCH  17  20
ENDBRANCH  12  14
ENDBRANCH   8  12
BRANCH   1  23
ATOM     23  C   UNL     1       5.469   7.591  18.163  0.00  0.00    +0.000 C 
BRANCH  23  25
ATOM     24  C   UNL     1       7.417   8.900  17.583  0.00  0.00    +0.000 C 
ATOM     25  N   UNL     1       6.633   7.710  17.271  0.00  0.00    +0.000 NA
BRANCH  25  26
ATOM     26  C   UNL     1       7.404   6.430  17.213  0.00  0.00    +0.000 C 
ATOM     27  C   UNL     1       7.542   5.760  18.591  0.00  0.00    +0.000 C 
ATOM     28  C   UNL     1       6.291   5.020  19.041  0.00  0.00    +0.000 C 
ATOM     29  C   UNL     1       5.725   4.074  17.981  0.00  0.00    +0.000 C 
ATOM     30  C   UNL     1       6.130   4.334  16.554  0.00  0.00    +0.000 A 
ATOM     31  C   UNL     1       5.698   3.452  15.555  0.00  0.00    +0.000 A 
ATOM     32  C   UNL     1       6.111   3.631  14.241  0.00  0.00    +0.000 A 
ATOM     33  C   UNL     1       6.946   4.694  13.964  0.00  0.00    +0.000 A 
ATOM     34  N   UNL     1       7.362   5.587  14.890  0.00  0.00    +0.000 NA
ATOM     35  C   UNL     1       6.939   5.411  16.171  0.00  0.00    +0.000 A 
ENDBRANCH  25  26
ENDBRANCH  23  25
ENDBRANCH   1  23
TORSDOF 6
ENDMDL
MODEL 2
REMARK VINA RESULT:      -7.6      5.086      8.336
REMARK  Name = 
REMARK  7 active torsions:
REMARK  status: ('A' for Active; 'I' for Inactive)
REMARK    1  A    between atoms: C_1  and  N_2
REMARK    2  A    between atoms: N_2  and  C_3
REMARK    3  A    between atoms: N_2  and  C_22
REMARK    4  A    between atoms: C_3  and  C_4
REMARK    5  A    between atoms: C_11  and  N_12
REMARK    6  A    between atoms: N_12  and  C_13
REMARK    7  A    between atoms: C_16  and  N_17
REMARK                            x       y       z     vdW  Elec       q    Type
REMARK                         _______ _______ _______ _____ _____    ______ ____
ROOT
ATOM      1  C   UNL     1      -0.259  12.246  21.919  0.00  0.00    +0.000 C 
ATOM      2  C   UNL     1      -1.105  12.690  20.682  0.00  0.00    +0.000 C 
ATOM      3  C   UNL     1      -2.581  12.751  21.001  0.00  0.00    +0.000 A 
ATOM      4  C   UNL     1      -2.851  13.265  22.305  0.00  0.00    +0.000 A 
ATOM      5  C   UNL     1      -4.161  13.367  22.762  0.00  0.00    +0.000 A 
ATOM      6  C   UNL     1      -5.201  13.019  21.911  0.00  0.00    +0.000 A 
ATOM      7  C   UNL     1      -4.943  12.593  20.602  0.00  0.00    +0.000 A 
ATOM      8  C   UNL     1      -3.641  12.418  20.111  0.00  0.00    +0.000 A 
ATOM      9  C   UNL     1      -1.713  13.806  23.139  0.00  0.00    +0.000 C 
ATOM     10  N   UNL     1      -0.564  12.918  23.207  0.00  0.00    +0.000 NA
ATOM     11  H   UNL     1      -0.736  12.215  23.923  0.00  0.00    +0.000 HD
ENDROOT
BRANCH   8  12
ATOM     12  N   UNL     1      -3.428  11.984  18.803  0.00  0.00    +0.000 N 
ATOM     13  H   UNL     1      -2.660  12.427  18.316  0.00  0.00    +0.000 HD
BRANCH  12  14
ATOM     14  C   UNL     1      -4.151  10.885  18.124  0.00  0.00    +0.000 C 
ATOM     15  C   UNL     1      -4.909  11.425  16.897  0.00  0.00    +0.000 C 
ATOM     16  C   UNL     1      -3.966  11.853  15.770  0.00  0.00    +0.000 C 
ATOM     17  C   UNL     1      -3.065  10.722  15.266  0.00  0.00    +0.000 C 
ATOM     18  C   UNL     1      -2.401   9.953  16.419  0.00  0.00    +0.000 C 
ATOM     19  C   UNL     1      -3.274   9.707  17.656  0.00  0.00    +0.000 C 
BRANCH  17  20
ATOM     20  N   UNL     1      -3.819   9.833  14.374  0.00  0.00    +0.000 NA
ATOM     21  H   UNL     1      -3.773   8.872  14.675  0.00  0.00    +0.000 HD
ATOM     22  H   UNL     1      -3.422   9.873  13.435  0.00  0.00    +0.000 HD
ENDBRANCH  17  20
ENDBRANCH  12  14
ENDBRANCH   8  12
BRANCH   1  23
ATOM     23  C   UNL     1      -0.314  10.700  22.146  0.00  0.00    +0.000 C 
BRANCH  23  25
ATOM     24  C   UNL     1       1.633   9.323  22.544  0.00  0.00    +0.000 C 
ATOM     25  N   UNL     1       0.812   9.978  21.532  0.00  0.00    +0.000 NA
BRANCH  25  26
ATOM     26  C   UNL     1       0.347   9.099  20.416  0.00  0.00    +0.000 C 
ATOM     27  C   UNL     1      -0.221   9.899  19.230  0.00  0.00    +0.000 C 
ATOM     28  C   UNL     1       0.848  10.514  18.339  0.00  0.00    +0.000 C 
ATOM     29  C   UNL     1       1.936   9.527  17.915  0.00  0.00    +0.000 C 
ATOM     30  C   UNL     1       2.099   8.293  18.763  0.00  0.00    +0.000 A 
ATOM     31  C   UNL     1       3.031   7.322  18.375  0.00  0.00    +0.000 A 
ATOM     32  C   UNL     1       3.155   6.144  19.102  0.00  0.00    +0.000 A 
ATOM     33  C   UNL     1       2.340   5.975  20.202  0.00  0.00    +0.000 A 
ATOM     34  N   UNL     1       1.450   6.898  20.631  0.00  0.00    +0.000 NA
ATOM     35  C   UNL     1       1.348   8.054  19.920  0.00  0.00    +0.000 A 
ENDBRANCH  25  26
ENDBRANCH  23  25
ENDBRANCH   1  23
TORSDOF 6
ENDMDL
MODEL 3
REMARK VINA RESULT:      -7.6      7.672     12.258
REMARK  Name = 
REMARK  7 active torsions:
REMARK  status: ('A' for Active; 'I' for Inactive)
REMARK    1  A    between atoms: C_1  and  N_2
REMARK    2  A    between atoms: N_2  and  C_3
REMARK    3  A    between atoms: N_2  and  C_22
REMARK    4  A    between atoms: C_3  and  C_4
REMARK    5  A    between atoms: C_11  and  N_12
REMARK    6  A    between atoms: N_12  and  C_13
REMARK    7  A    between atoms: C_16  and  N_17
REMARK                            x       y       z     vdW  Elec       q    Type
REMARK                         _______ _______ _______ _____ _____    ______ ____
ROOT
ATOM      1  C   UNL     1      -1.874  11.618  18.167  0.00  0.00    +0.000 C 
ATOM      2  C   UNL     1      -1.554  12.486  19.426  0.00  0.00    +0.000 C 
ATOM      3  C   UNL     1      -1.240  11.634  20.634  0.00  0.00    +0.000 A 
ATOM      4  C   UNL     1      -0.465  10.477  20.317  0.00  0.00    +0.000 A 
ATOM      5  C   UNL     1      -0.108   9.576  21.315  0.00  0.00    +0.000 A 
ATOM      6  C   UNL     1      -0.464   9.849  22.628  0.00  0.00    +0.000 A 
ATOM      7  C   UNL     1      -1.152  11.024  22.954  0.00  0.00    +0.000 A 
ATOM      8  C   UNL     1      -1.585  11.937  21.981  0.00  0.00    +0.000 A 
ATOM      9  C   UNL     1       0.062  10.301  18.912  0.00  0.00    +0.000 C 
ATOM     10  N   UNL     1      -0.943  10.497  17.881  0.00  0.00    +0.000 NA
ATOM     11  H   UNL     1      -1.475   9.634  17.774  0.00  0.00    +0.000 HD
ENDROOT
BRANCH   8  12
ATOM     12  N   UNL     1      -2.274  13.092  22.348  0.00  0.00    +0.000 N 
ATOM     13  H   UNL     1      -2.669  13.626  21.585  0.00  0.00    +0.000 HD
BRANCH  12  14
ATOM     14  C   UNL     1      -2.557  13.532  23.733  0.00  0.00    +0.000 C 
ATOM     15  C   UNL     1      -2.344  15.052  23.862  0.00  0.00    +0.000 C 
ATOM     16  C   UNL     1      -3.407  15.856  23.111  0.00  0.00    +0.000 C 
ATOM     17  C   UNL     1      -4.836  15.571  23.585  0.00  0.00    +0.000 C 
ATOM     18  C   UNL     1      -5.116  14.065  23.705  0.00  0.00    +0.000 C 
ATOM     19  C   UNL     1      -3.969  13.208  24.256  0.00  0.00    +0.000 C 
BRANCH  17  20
ATOM     20  N   UNL     1      -5.104  16.283  24.841  0.00  0.00    +0.000 NA
ATOM     21  H   UNL     1      -5.981  16.004  25.250  0.00  0.00    +0.000 HD
ATOM     22  H   UNL     1      -5.161  17.286  24.661  0.00  0.00    +0.000 HD
ENDBRANCH  17  20
ENDBRANCH  12  14
ENDBRANCH   8  12
BRANCH   1  23
ATOM     23  C   UNL     1      -3.331  11.052  18.196  0.00  0.00    +0.000 C 
BRANCH  23  25
ATOM     24  C   UNL     1      -4.198  11.169  15.942  0.00  0.00    +0.000 C 
ATOM     25  N   UNL     1      -4.247  11.749  17.280  0.00  0.00    +0.000 NA
BRANCH  25  26
ATOM     26  C   UNL     1      -5.613  11.877  17.874  0.00  0.00    +0.000 C 
ATOM     27  C   UNL     1      -5.656  11.462  19.355  0.00  0.00    +0.000 C 
ATOM     28  C   UNL     1      -5.112  12.520  20.304  0.00  0.00    +0.000 C 
ATOM     29  C   UNL     1      -5.696  13.913  20.067  0.00  0.00    +0.000 C 
ATOM     30  C   UNL     1      -6.305  14.172  18.714  0.00  0.00    +0.000 A 
ATOM     31  C   UNL     1      -6.919  15.408  18.472  0.00  0.00    +0.000 A 
ATOM     32  C   UNL     1      -7.547  15.648  17.256  0.00  0.00    +0.000 A 
ATOM     33  C   UNL     1      -7.539  14.641  16.314  0.00  0.00    +0.000 A 
ATOM     34  N   UNL     1      -6.933  13.446  16.492  0.00  0.00    +0.000 NA
ATOM     35  C   UNL     1      -6.308  13.227  17.681  0.00  0.00    +0.000 A 
ENDBRANCH  25  26
ENDBRANCH  23  25
ENDBRANCH   1  23
TORSDOF 6
ENDMDL
MODEL 4
REMARK VINA RESULT:      -7.5      2.124      7.205
REMARK  Name = 
REMARK  7 active torsions:
REMARK  status: ('A' for Active; 'I' for Inactive)
REMARK    1  A    between atoms: C_1  and  N_2
REMARK    2  A    between atoms: N_2  and  C_3
REMARK    3  A    between atoms: N_2  and  C_22
REMARK    4  A    between atoms: C_3  and  C_4
REMARK    5  A    between atoms: C_11  and  N_12
REMARK    6  A    between atoms: N_12  and  C_13
REMARK    7  A    between atoms: C_16  and  N_17
REMARK                            x       y       z     vdW  Elec       q    Type
REMARK                         _______ _______ _______ _____ _____    ______ ____
ROOT
ATOM      1  C   UNL     1       1.441   5.973  19.213  0.00  0.00    +0.000 C 
ATOM      2  C   UNL     1       1.953   4.959  18.140  0.00  0.00    +0.000 C 
ATOM      3  C   UNL     1       2.902   3.942  18.732  0.00  0.00    +0.000 A 
ATOM      4  C   UNL     1       2.513   3.507  20.035  0.00  0.00    +0.000 A 
ATOM      5  C   UNL     1       3.291   2.586  20.729  0.00  0.00    +0.000 A 
ATOM      6  C   UNL     1       4.415   2.054  20.112  0.00  0.00    +0.000 A 
ATOM      7  C   UNL     1       4.753   2.416  18.803  0.00  0.00    +0.000 A 
ATOM      8  C   UNL     1       4.036   3.382  18.080  0.00  0.00    +0.000 A 
ATOM      9  C   UNL     1       1.191   3.964  20.605  0.00  0.00    +0.000 C 
ATOM     10  N   UNL     1       0.971   5.397  20.498  0.00  0.00    +0.000 NA
ATOM     11  H   UNL     1       1.448   5.860  21.270  0.00  0.00    +0.000 HD
ENDROOT
BRANCH   8  12
ATOM     12  N   UNL     1       4.411   3.719  16.781  0.00  0.00    +0.000 N 
ATOM     13  H   UNL     1       3.669   3.701  16.094  0.00  0.00    +0.000 HD
BRANCH  12  14
ATOM     14  C   UNL     1       5.750   4.190  16.357  0.00  0.00    +0.000 C 
ATOM     15  C   UNL     1       5.617   5.442  15.471  0.00  0.00    +0.000 C 
ATOM     16  C   UNL     1       5.147   6.667  16.258  0.00  0.00    +0.000 C 
ATOM     17  C   UNL     1       6.079   7.044  17.414  0.00  0.00    +0.000 C 
ATOM     18  C   UNL     1       6.465   5.825  18.267  0.00  0.00    +0.000 C 
ATOM     19  C   UNL     1       6.727   4.522  17.501  0.00  0.00    +0.000 C 
BRANCH  17  20
ATOM     20  N   UNL     1       7.258   7.755  16.903  0.00  0.00    +0.000 NA
ATOM     21  H   UNL     1       7.033   8.327  16.104  0.00  0.00    +0.000 HD
ATOM     22  H   UNL     1       7.961   7.080  16.602  0.00  0.00    +0.000 HD
ENDBRANCH  17  20
ENDBRANCH  12  14
ENDBRANCH   8  12
BRANCH   1  23
ATOM     23  C   UNL     1       2.497   7.083  19.527  0.00  0.00    +0.000 C 
BRANCH  23  25
ATOM     24  C   UNL     1       2.169   8.735  17.793  0.00  0.00    +0.000 C 
ATOM     25  N   UNL     1       2.028   8.441  19.215  0.00  0.00    +0.000 NA
BRANCH  25  26
ATOM     26  C   UNL     1       0.670   8.691  19.790  0.00  0.00    +0.000 C 
ATOM     27  C   UNL     1       0.665   8.663  21.328  0.00  0.00    +0.000 C 
ATOM     28  C   UNL     1       1.201   9.936  21.966  0.00  0.00    +0.000 C 
ATOM     29  C   UNL     1       0.580  11.213  21.400  0.00  0.00    +0.000 C 
ATOM     30  C   UNL     1      -0.060  11.111  20.040  0.00  0.00    +0.000 A 
ATOM     31  C   UNL     1      -0.708  12.234  19.509  0.00  0.00    +0.000 A 
ATOM     32  C   UNL     1      -1.364  12.148  18.288  0.00  0.00    +0.000 A 
ATOM     33  C   UNL     1      -1.349  10.935  17.630  0.00  0.00    +0.000 A 
ATOM     34  N   UNL     1      -0.711   9.835  18.089  0.00  0.00    +0.000 NA
ATOM     35  C   UNL     1      -0.059   9.935  19.280  0.00  0.00    +0.000 A 
ENDBRANCH  25  26
ENDBRANCH  23  25
ENDBRANCH   1  23
TORSDOF 6
ENDMDL
MODEL 5
REMARK VINA RESULT:      -7.4      4.280      6.906
REMARK  Name = 
REMARK  7 active torsions:
REMARK  status: ('A' for Active; 'I' for Inactive)
REMARK    1  A    between atoms: C_1  and  N_2
REMARK    2  A    between atoms: N_2  and  C_3
REMARK    3  A    between atoms: N_2  and  C_22
REMARK    4  A    between atoms: C_3  and  C_4
REMARK    5  A    between atoms: C_11  and  N_12
REMARK    6  A    between atoms: N_12  and  C_13
REMARK    7  A    between atoms: C_16  and  N_17
REMARK                            x       y       z     vdW  Elec       q    Type
REMARK                         _______ _______ _______ _____ _____    ______ ____
ROOT
ATOM      1  C   UNL     1       0.810  11.055  19.751  0.00  0.00    +0.000 C 
ATOM      2  C   UNL     1      -0.333  11.936  19.151  0.00  0.00    +0.000 C 
ATOM      3  C   UNL     1      -1.413  12.228  20.168  0.00  0.00    +0.000 A 
ATOM      4  C   UNL     1      -0.897  12.475  21.477  0.00  0.00    +0.000 A 
ATOM      5  C   UNL     1      -1.762  12.740  22.534  0.00  0.00    +0.000 A 
ATOM      6  C   UNL     1      -3.125  12.820  22.285  0.00  0.00    +0.000 A 
ATOM      7  C   UNL     1      -3.627  12.660  20.988  0.00  0.00    +0.000 A 
ATOM      8  C   UNL     1      -2.806  12.336  19.898  0.00  0.00    +0.000 A 
ATOM      9  C   UNL     1       0.598  12.562  21.680  0.00  0.00    +0.000 C 
ATOM     10  N   UNL     1       1.335  11.463  21.078  0.00  0.00    +0.000 NA
ATOM     11  H   UNL     1       1.310  10.666  21.712  0.00  0.00    +0.000 HD
ENDROOT
BRANCH   8  12
ATOM     12  N   UNL     1      -3.348  12.178  18.623  0.00  0.00    +0.000 N 
ATOM     13  H   UNL     1      -3.228  12.964  17.998  0.00  0.00    +0.000 HD
BRANCH  12  14
ATOM     14  C   UNL     1      -3.976  10.947  18.092  0.00  0.00    +0.000 C 
ATOM     15  C   UNL     1      -4.689  11.246  16.760  0.00  0.00    +0.000 C 
ATOM     16  C   UNL     1      -3.706  11.547  15.627  0.00  0.00    +0.000 C 
ATOM     17  C   UNL     1      -2.723  10.405  15.352  0.00  0.00    +0.000 C 
ATOM     18  C   UNL     1      -2.089   9.863  16.643  0.00  0.00    +0.000 C 
ATOM     19  C   UNL     1      -3.019   9.762  17.859  0.00  0.00    +0.000 C 
BRANCH  17  20
ATOM     20  N   UNL     1      -3.381   9.346  14.576  0.00  0.00    +0.000 NA
ATOM     21  H   UNL     1      -3.412   8.475  15.081  0.00  0.00    +0.000 HD
ATOM     22  H   UNL     1      -2.860   9.177  13.715  0.00  0.00    +0.000 HD
ENDBRANCH  17  20
ENDBRANCH  12  14
ENDBRANCH   8  12
BRANCH   1  23
ATOM     23  C   UNL     1       0.414   9.544  19.822  0.00  0.00    +0.000 C 
BRANCH  23  25
ATOM     24  C   UNL     1       1.492   9.473  17.660  0.00  0.00    +0.000 C 
ATOM     25  N   UNL     1       1.126   8.706  18.845  0.00  0.00    +0.000 NA
BRANCH  25  26
ATOM     26  C   UNL     1       2.243   7.952  19.492  0.00  0.00    +0.000 C 
ATOM     27  C   UNL     1       1.822   7.294  20.818  0.00  0.00    +0.000 C 
ATOM     28  C   UNL     1       1.022   6.012  20.639  0.00  0.00    +0.000 C 
ATOM     29  C   UNL     1       1.663   5.020  19.667  0.00  0.00    +0.000 C 
ATOM     30  C   UNL     1       2.662   5.579  18.689  0.00  0.00    +0.000 A 
ATOM     31  C   UNL     1       3.331   4.700  17.827  0.00  0.00    +0.000 A 
ATOM     32  C   UNL     1       4.306   5.180  16.961  0.00  0.00    +0.000 A 
ATOM     33  C   UNL     1       4.580   6.532  16.981  0.00  0.00    +0.000 A 
ATOM     34  N   UNL     1       3.938   7.420  17.773  0.00  0.00    +0.000 NA
ATOM     35  C   UNL     1       2.974   6.941  18.607  0.00  0.00    +0.000 A 
ENDBRANCH  25  26
ENDBRANCH  23  25
ENDBRANCH   1  23
TORSDOF 6
ENDMDL
MODEL 6
REMARK VINA RESULT:      -7.3      7.683     10.762
REMARK  Name = 
REMARK  7 active torsions:
REMARK  status: ('A' for Active; 'I' for Inactive)
REMARK    1  A    between atoms: C_1  and  N_2
REMARK    2  A    between atoms: N_2  and  C_3
REMARK    3  A    between atoms: N_2  and  C_22
REMARK    4  A    between atoms: C_3  and  C_4
REMARK    5  A    between atoms: C_11  and  N_12
REMARK    6  A    between atoms: N_12  and  C_13
REMARK    7  A    between atoms: C_16  and  N_17
REMARK                            x       y       z     vdW  Elec       q    Type
REMARK                         _______ _______ _______ _____ _____    ______ ____
ROOT
ATOM      1  C   UNL     1      -1.250  11.399  18.897  0.00  0.00    +0.000 C 
ATOM      2  C   UNL     1      -2.618  11.093  19.589  0.00  0.00    +0.000 C 
ATOM      3  C   UNL     1      -3.787  11.593  18.771  0.00  0.00    +0.000 A 
ATOM      4  C   UNL     1      -3.609  11.405  17.367  0.00  0.00    +0.000 A 
ATOM      5  C   UNL     1      -4.586  11.830  16.473  0.00  0.00    +0.000 A 
ATOM      6  C   UNL     1      -5.758  12.384  16.968  0.00  0.00    +0.000 A 
ATOM      7  C   UNL     1      -5.971  12.494  18.348  0.00  0.00    +0.000 A 
ATOM      8  C   UNL     1      -4.997  12.134  19.291  0.00  0.00    +0.000 A 
ATOM      9  C   UNL     1      -2.408  10.636  16.869  0.00  0.00    +0.000 C 
ATOM     10  N   UNL     1      -1.150  11.073  17.452  0.00  0.00    +0.000 NA
ATOM     11  H   UNL     1      -0.820  11.891  16.943  0.00  0.00    +0.000 HD
ENDROOT
BRANCH   8  12
ATOM     12  N   UNL     1      -5.246  12.267  20.655  0.00  0.00    +0.000 N 
ATOM     13  H   UNL     1      -4.952  11.489  21.231  0.00  0.00    +0.000 HD
BRANCH  12  14
ATOM     14  C   UNL     1      -5.799  13.466  21.325  0.00  0.00    +0.000 C 
ATOM     15  C   UNL     1      -7.310  13.293  21.564  0.00  0.00    +0.000 C 
ATOM     16  C   UNL     1      -7.616  12.236  22.627  0.00  0.00    +0.000 C 
ATOM     17  C   UNL     1      -6.989  12.543  23.991  0.00  0.00    +0.000 C 
ATOM     18  C   UNL     1      -5.510  12.944  23.870  0.00  0.00    +0.000 C 
ATOM     19  C   UNL     1      -5.147  13.831  22.673  0.00  0.00    +0.000 C 
BRANCH  17  20
ATOM     20  N   UNL     1      -7.780  13.561  24.694  0.00  0.00    +0.000 NA
ATOM     21  H   UNL     1      -7.312  13.892  25.523  0.00  0.00    +0.000 HD
ATOM     22  H   UNL     1      -8.669  13.159  24.991  0.00  0.00    +0.000 HD
ENDBRANCH  17  20
ENDBRANCH  12  14
ENDBRANCH   8  12
BRANCH   1  23
ATOM     23  C   UNL     1      -0.806  12.884  19.099  0.00  0.00    +0.000 C 
BRANCH  23  25
ATOM     24  C   UNL     1       1.168  14.151  18.512  0.00  0.00    +0.000 C 
ATOM     25  N   UNL     1       0.643  13.040  19.298  0.00  0.00    +0.000 NA
BRANCH  25  26
ATOM     26  C   UNL     1       0.990  13.062  20.752  0.00  0.00    +0.000 C 
ATOM     27  C   UNL     1       0.772  14.445  21.391  0.00  0.00    +0.000 C 
ATOM     28  C   UNL     1      -0.685  14.752  21.705  0.00  0.00    +0.000 C 
ATOM     29  C   UNL     1      -1.397  13.634  22.466  0.00  0.00    +0.000 C 
ATOM     30  C   UNL     1      -0.784  12.260  22.384  0.00  0.00    +0.000 A 
ATOM     31  C   UNL     1      -1.357  11.217  23.123  0.00  0.00    +0.000 A 
ATOM     32  C   UNL     1      -0.772   9.957  23.118  0.00  0.00    +0.000 A 
ATOM     33  C   UNL     1       0.370   9.777  22.366  0.00  0.00    +0.000 A 
ATOM     34  N   UNL     1       0.939  10.745  21.613  0.00  0.00    +0.000 NA
ATOM     35  C   UNL     1       0.349  11.972  21.614  0.00  0.00    +0.000 A 
ENDBRANCH  25  26
ENDBRANCH  23  25
ENDBRANCH   1  23
TORSDOF 6
ENDMDL
MODEL 7
REMARK VINA RESULT:      -7.3      7.260     12.101
REMARK  Name = 
REMARK  7 active torsions:
REMARK  status: ('A' for Active; 'I' for Inactive)
REMARK    1  A    between atoms: C_1  and  N_2
REMARK    2  A    between atoms: N_2  and  C_3
REMARK    3  A    between atoms: N_2  and  C_22
REMARK    4  A    between atoms: C_3  and  C_4
REMARK    5  A    between atoms: C_11  and  N_12
REMARK    6  A    between atoms: N_12  and  C_13
REMARK    7  A    between atoms: C_16  and  N_17
REMARK                            x       y       z     vdW  Elec       q    Type
REMARK                         _______ _______ _______ _____ _____    ______ ____
ROOT
ATOM      1  C   UNL     1      -2.030  11.986  18.522  0.00  0.00    +0.000 C 
ATOM      2  C   UNL     1      -1.534  12.652  19.845  0.00  0.00    +0.000 C 
ATOM      3  C   UNL     1      -1.180  11.624  20.895  0.00  0.00    +0.000 A 
ATOM      4  C   UNL     1      -0.527  10.475  20.356  0.00  0.00    +0.000 A 
ATOM      5  C   UNL     1      -0.153   9.425  21.189  0.00  0.00    +0.000 A 
ATOM      6  C   UNL     1      -0.369   9.538  22.554  0.00  0.00    +0.000 A 
ATOM      7  C   UNL     1      -0.934  10.699  23.097  0.00  0.00    +0.000 A 
ATOM      8  C   UNL     1      -1.380  11.762  22.298  0.00  0.00    +0.000 A 
ATOM      9  C   UNL     1      -0.141  10.459  18.896  0.00  0.00    +0.000 C 
ATOM     10  N   UNL     1      -1.217  10.858  18.002  0.00  0.00    +0.000 NA
ATOM     11  H   UNL     1      -1.820  10.054  17.837  0.00  0.00    +0.000 HD
ENDROOT
BRANCH   8  12
ATOM     12  N   UNL     1      -1.944  12.897  22.878  0.00  0.00    +0.000 N 
ATOM     13  H   UNL     1      -2.953  12.954  22.834  0.00  0.00    +0.000 HD
BRANCH  12  14
ATOM     14  C   UNL     1      -1.213  13.947  23.624  0.00  0.00    +0.000 C 
ATOM     15  C   UNL     1      -0.538  14.923  22.644  0.00  0.00    +0.000 C 
ATOM     16  C   UNL     1      -1.550  15.793  21.895  0.00  0.00    +0.000 C 
ATOM     17  C   UNL     1      -2.430  16.639  22.821  0.00  0.00    +0.000 C 
ATOM     18  C   UNL     1      -3.006  15.815  23.983  0.00  0.00    +0.000 C 
ATOM     19  C   UNL     1      -2.064  14.776  24.605  0.00  0.00    +0.000 C 
BRANCH  17  20
ATOM     20  N   UNL     1      -1.686  17.813  23.293  0.00  0.00    +0.000 NA
ATOM     21  H   UNL     1      -2.095  18.674  22.963  0.00  0.00    +0.000 HD
ATOM     22  H   UNL     1      -0.730  17.779  22.938  0.00  0.00    +0.000 HD
ENDBRANCH  17  20
ENDBRANCH  12  14
ENDBRANCH   8  12
BRANCH   1  23
ATOM     23  C   UNL     1      -3.518  11.516  18.619  0.00  0.00    +0.000 C 
BRANCH  23  25
ATOM     24  C   UNL     1      -4.523  11.119  16.456  0.00  0.00    +0.000 C 
ATOM     25  N   UNL     1      -4.375  12.065  17.558  0.00  0.00    +0.000 NA
BRANCH  25  26
ATOM     26  C   UNL     1      -5.654  12.601  18.118  0.00  0.00    +0.000 C 
ATOM     27  C   UNL     1      -6.855  11.684  17.834  0.00  0.00    +0.000 C 
ATOM     28  C   UNL     1      -6.930  10.471  18.750  0.00  0.00    +0.000 C 
ATOM     29  C   UNL     1      -6.789  10.814  20.234  0.00  0.00    +0.000 C 
ATOM     30  C   UNL     1      -6.138  12.131  20.566  0.00  0.00    +0.000 A 
ATOM     31  C   UNL     1      -6.053  12.525  21.908  0.00  0.00    +0.000 A 
ATOM     32  C   UNL     1      -5.518  13.764  22.238  0.00  0.00    +0.000 A 
ATOM     33  C   UNL     1      -5.080  14.574  21.210  0.00  0.00    +0.000 A 
ATOM     34  N   UNL     1      -5.115  14.222  19.905  0.00  0.00    +0.000 NA
ATOM     35  C   UNL     1      -5.627  12.999  19.595  0.00  0.00    +0.000 A 
ENDBRANCH  25  26
ENDBRANCH  23  25
ENDBRANCH   1  23
TORSDOF 6
ENDMDL
MODEL 8
REMARK VINA RESULT:      -7.3      2.380      7.537
REMARK  Name = 
REMARK  7 active torsions:
REMARK  status: ('A' for Active; 'I' for Inactive)
REMARK    1  A    between atoms: C_1  and  N_2
REMARK    2  A    between atoms: N_2  and  C_3
REMARK    3  A    between atoms: N_2  and  C_22
REMARK    4  A    between atoms: C_3  and  C_4
REMARK    5  A    between atoms: C_11  and  N_12
REMARK    6  A    between atoms: N_12  and  C_13
REMARK    7  A    between atoms: C_16  and  N_17
REMARK                            x       y       z     vdW  Elec       q    Type
REMARK                         _______ _______ _______ _____ _____    ______ ____
ROOT
ATOM      1  C   UNL     1       2.344   7.022  18.239  0.00  0.00    +0.000 C 
ATOM      2  C   UNL     1       3.828   6.570  18.054  0.00  0.00    +0.000 C 
ATOM      3  C   UNL     1       4.081   5.207  18.656  0.00  0.00    +0.000 A 
ATOM      4  C   UNL     1       3.000   4.296  18.455  0.00  0.00    +0.000 A 
ATOM      5  C   UNL     1       3.066   3.004  18.966  0.00  0.00    +0.000 A 
ATOM      6  C   UNL     1       4.220   2.596  19.620  0.00  0.00    +0.000 A 
ATOM      7  C   UNL     1       5.315   3.460  19.746  0.00  0.00    +0.000 A 
ATOM      8  C   UNL     1       5.280   4.790  19.300  0.00  0.00    +0.000 A 
ATOM      9  C   UNL     1       1.837   4.708  17.584  0.00  0.00    +0.000 C 
ATOM     10  N   UNL     1       1.299   6.020  17.908  0.00  0.00    +0.000 NA
ATOM     11  H   UNL     1       0.659   5.926  18.695  0.00  0.00    +0.000 HD
ENDROOT
BRANCH   8  12
ATOM     12  N   UNL     1       6.390   5.619  19.453  0.00  0.00    +0.000 N 
ATOM     13  H   UNL     1       6.409   6.170  20.301  0.00  0.00    +0.000 HD
BRANCH  12  14
ATOM     14  C   UNL     1       7.561   5.679  18.549  0.00  0.00    +0.000 C 
ATOM     15  C   UNL     1       7.626   4.412  17.677  0.00  0.00    +0.000 C 
ATOM     16  C   UNL     1       6.500   4.357  16.642  0.00  0.00    +0.000 C 
ATOM     17  C   UNL     1       6.495   5.550  15.682  0.00  0.00    +0.000 C 
ATOM     18  C   UNL     1       6.641   6.889  16.422  0.00  0.00    +0.000 C 
ATOM     19  C   UNL     1       7.610   6.900  17.611  0.00  0.00    +0.000 C 
BRANCH  17  20
ATOM     20  N   UNL     1       7.526   5.376  14.652  0.00  0.00    +0.000 NA
ATOM     21  H   UNL     1       7.527   4.440  14.277  0.00  0.00    +0.000 HD
ATOM     22  H   UNL     1       8.448   5.537  15.059  0.00  0.00    +0.000 HD
ENDBRANCH  17  20
ENDBRANCH  12  14
ENDBRANCH   8  12
BRANCH   1  23
ATOM     23  C   UNL     1       2.067   7.564  19.679  0.00  0.00    +0.000 C 
BRANCH  23  25
ATOM     24  C   UNL     1       1.743   9.604  18.424  0.00  0.00    +0.000 C 
ATOM     25  N   UNL     1       1.515   8.927  19.696  0.00  0.00    +0.000 NA
BRANCH  25  26
ATOM     26  C   UNL     1       0.100   8.931  20.180  0.00  0.00    +0.000 C 
ATOM     27  C   UNL     1      -0.036   8.394  21.615  0.00  0.00    +0.000 C 
ATOM     28  C   UNL     1       0.365   9.399  22.686  0.00  0.00    +0.000 C 
ATOM     29  C   UNL     1      -0.282  10.773  22.509  0.00  0.00    +0.000 C 
ATOM     30  C   UNL     1      -0.795  11.109  21.134  0.00  0.00    +0.000 A 
ATOM     31  C   UNL     1      -1.462  12.325  20.937  0.00  0.00    +0.000 A 
ATOM     32  C   UNL     1      -2.004  12.630  19.695  0.00  0.00    +0.000 A 
ATOM     33  C   UNL     1      -1.859  11.705  18.681  0.00  0.00    +0.000 A 
ATOM     34  N   UNL     1      -1.197  10.535  18.817  0.00  0.00    +0.000 NA
ATOM     35  C   UNL     1      -0.657  10.253  20.034  0.00  0.00    +0.000 A 
ENDBRANCH  25  26
ENDBRANCH  23  25
ENDBRANCH   1  23
TORSDOF 6
ENDMDL
MODEL 9
REMARK VINA RESULT:      -7.2      7.530     10.667
REMARK  Name = 
REMARK  7 active torsions:
REMARK  status: ('A' for Active; 'I' for Inactive)
REMARK    1  A    between atoms: C_1  and  N_2
REMARK    2  A    between atoms: N_2  and  C_3
REMARK    3  A    between atoms: N_2  and  C_22
REMARK    4  A    between atoms: C_3  and  C_4
REMARK    5  A    between atoms: C_11  and  N_12
REMARK    6  A    between atoms: N_12  and  C_13
REMARK    7  A    between atoms: C_16  and  N_17
REMARK                            x       y       z     vdW  Elec       q    Type
REMARK                         _______ _______ _______ _____ _____    ______ ____
ROOT
ATOM      1  C   UNL     1      -0.739  10.768  18.772  0.00  0.00    +0.000 C 
ATOM      2  C   UNL     1      -2.130  10.776  19.483  0.00  0.00    +0.000 C 
ATOM      3  C   UNL     1      -3.227  11.270  18.569  0.00  0.00    +0.000 A 
ATOM      4  C   UNL     1      -3.087  10.809  17.225  0.00  0.00    +0.000 A 
ATOM      5  C   UNL     1      -4.005  11.191  16.252  0.00  0.00    +0.000 A 
ATOM      6  C   UNL     1      -5.089  11.975  16.620  0.00  0.00    +0.000 A 
ATOM      7  C   UNL     1      -5.275  12.360  17.953  0.00  0.00    +0.000 A 
ATOM      8  C   UNL     1      -4.351  12.051  18.962  0.00  0.00    +0.000 A 
ATOM      9  C   UNL     1      -2.002   9.811  16.894  0.00  0.00    +0.000 C 
ATOM     10  N   UNL     1      -0.693  10.176  17.411  0.00  0.00    +0.000 NA
ATOM     11  H   UNL     1      -0.261  10.838  16.768  0.00  0.00    +0.000 HD
ENDROOT
BRANCH   8  12
ATOM     12  N   UNL     1      -4.571  12.461  20.276  0.00  0.00    +0.000 N 
ATOM     13  H   UNL     1      -3.856  12.195  20.941  0.00  0.00    +0.000 HD
BRANCH  12  14
ATOM     14  C   UNL     1      -5.684  13.318  20.745  0.00  0.00    +0.000 C 
ATOM     15  C   UNL     1      -6.258  12.769  22.064  0.00  0.00    +0.000 C 
ATOM     16  C   UNL     1      -5.290  12.934  23.237  0.00  0.00    +0.000 C 
ATOM     17  C   UNL     1      -4.896  14.391  23.502  0.00  0.00    +0.000 C 
ATOM     18  C   UNL     1      -4.497  15.127  22.213  0.00  0.00    +0.000 C 
ATOM     19  C   UNL     1      -5.329  14.801  20.966  0.00  0.00    +0.000 C 
BRANCH  17  20
ATOM     20  N   UNL     1      -5.973  15.084  24.220  0.00  0.00    +0.000 NA
ATOM     21  H   UNL     1      -6.319  15.877  23.703  0.00  0.00    +0.000 HD
ATOM     22  H   UNL     1      -5.620  15.436  25.110  0.00  0.00    +0.000 HD
ENDBRANCH  17  20
ENDBRANCH  12  14
ENDBRANCH   8  12
BRANCH   1  23
ATOM     23  C   UNL     1      -0.099  12.193  18.710  0.00  0.00    +0.000 C 
BRANCH  23  25
ATOM     24  C   UNL     1       2.147  12.920  18.191  0.00  0.00    +0.000 C 
ATOM     25  N   UNL     1       1.302  12.226  19.156  0.00  0.00    +0.000 NA
BRANCH  25  26
ATOM     26  C   UNL     1       1.410  12.708  20.567  0.00  0.00    +0.000 C 
ATOM     27  C   UNL     1       1.587  14.233  20.660  0.00  0.00    +0.000 C 
ATOM     28  C   UNL     1       0.296  15.014  20.461  0.00  0.00    +0.000 C 
ATOM     29  C   UNL     1      -0.865  14.504  21.316  0.00  0.00    +0.000 C 
ATOM     30  C   UNL     1      -0.759  13.093  21.833  0.00  0.00    +0.000 A 
ATOM     31  C   UNL     1      -1.761  12.605  22.681  0.00  0.00    +0.000 A 
ATOM     32  C   UNL     1      -1.654  11.331  23.225  0.00  0.00    +0.000 A 
ATOM     33  C   UNL     1      -0.543  10.580  22.900  0.00  0.00    +0.000 A 
ATOM     34  N   UNL     1       0.432  10.999  22.063  0.00  0.00    +0.000 NA
ATOM     35  C   UNL     1       0.309  12.243  21.523  0.00  0.00    +0.000 A 
ENDBRANCH  25  26
ENDBRANCH  23  25
ENDBRANCH   1  23
TORSDOF 6
ENDMDL
