MODEL 1
REMARK VINA RESULT:      -7.8      0.000      0.000
REMARK  Name = 
REMARK  22 active torsions:
REMARK  status: ('A' for Active; 'I' for Inactive)
REMARK    1  A    between atoms: C_1  and  C_2
REMARK    2  A    between atoms: C_2  and  C_3
REMARK    3  A    between atoms: C_3  and  C_25
REMARK    4  A    between atoms: C_4  and  C_5
REMARK    5  A    between atoms: C_5  and  C_6
REMARK    6  A    between atoms: C_5  and  C_7
REMARK    7  A    between atoms: C_7  and  C_8
REMARK    8  A    between atoms: C_9  and  C_10
REMARK    9  A    between atoms: C_10  and  C_11
REMARK   10  A    between atoms: C_12  and  C_13
REMARK   11  A    between atoms: C_13  and  C_14
REMARK   12  A    between atoms: C_13  and  C_15
REMARK   13  A    between atoms: C_15  and  C_17
REMARK   14  A    between atoms: C_17  and  C_18
REMARK   15  A    between atoms: C_17  and  C_19
REMARK   16  A    between atoms: C_19  and  O_20
REMARK   17  A    between atoms: C_19  and  C_21
REMARK   18  A    between atoms: C_21  and  C_22
REMARK   19  A    between atoms: C_21  and  C_23
REMARK   20  A    between atoms: C_23  and  C_24
REMARK   21  A    between atoms: C_26  and  C_27
REMARK   22  A    between atoms: C_33  and  C_34
REMARK                            x       y       z     vdW  Elec       q    Type
REMARK                         _______ _______ _______ _____ _____    ______ ____
ROOT
ATOM      1  C   UNL     1       8.334   9.173  18.343  0.00  0.00    +0.000 C 
ATOM      2  C   UNL     1       8.865  10.267  17.785  0.00  0.00    +0.000 C 
ENDROOT
BRANCH   2   3
ATOM      3  C   UNL     1       9.713  11.218  18.478  0.00  0.00    +0.000 C 
ATOM      4  C   UNL     1      10.258  12.398  17.712  0.00  0.00    +0.000 C 
ATOM      5  C   UNL     1       9.964  11.004  19.785  0.00  0.00    +0.000 C 
BRANCH   5   6
ATOM      6  C   UNL     1      10.749  11.923  20.684  0.00  0.00    +0.000 C 
ATOM      7  C   UNL     1      11.927  12.517  19.923  0.00  0.00    +0.000 C 
BRANCH   6   8
ATOM      8  C   UNL     1       9.831  13.016  21.246  0.00  0.00    +0.000 C 
ATOM      9  O   UNL     1       8.823  12.715  21.894  0.00  0.00    +0.000 OA
BRANCH   8  10
ATOM     10  C   UNL     1      10.122  14.481  20.887  0.00  0.00    +0.000 C 
ATOM     11  C   UNL     1      10.362  15.363  22.119  0.00  0.00    +0.000 C 
BRANCH  10  12
ATOM     12  C   UNL     1       8.972  15.091  20.039  0.00  0.00    +0.000 C 
BRANCH  12  13
ATOM     13  O   UNL     1       8.032  14.056  19.719  0.00  0.00    +0.000 OA
ATOM     14  H   UNL     1       8.288  13.274  20.250  0.00  0.00    +0.000 HD
ENDBRANCH  12  13
BRANCH  12  15
ATOM     15  C   UNL     1       9.368  15.853  18.740  0.00  0.00    +0.000 C 
ATOM     16  C   UNL     1       8.246  15.724  17.697  0.00  0.00    +0.000 C 
BRANCH  15  17
ATOM     17  C   UNL     1       9.729  17.320  19.029  0.00  0.00    +0.000 C 
ATOM     18  C   UNL     1      10.809  17.883  18.119  0.00  0.00    +0.000 C 
ENDBRANCH  15  17
ENDBRANCH  12  15
ENDBRANCH  10  12
ENDBRANCH   8  10
ENDBRANCH   6   8
ENDBRANCH   5   6
ENDBRANCH   2   3
BRANCH   1  19
ATOM     19  C   UNL     1       7.430   8.228  17.603  0.00  0.00    +0.000 C 
BRANCH  19  20
ATOM     20  C   UNL     1       7.763   6.750  17.913  0.00  0.00    +0.000 C 
ATOM     21  C   UNL     1       8.568   6.626  19.216  0.00  0.00    +0.000 C 
BRANCH  20  23
ATOM     22  C   UNL     1       5.544   5.610  17.095  0.00  0.00    +0.000 C 
ATOM     23  C   UNL     1       6.458   5.987  18.016  0.00  0.00    +0.000 C 
BRANCH  22  25
ATOM     24  C   UNL     1       5.646   4.632  14.628  0.00  0.00    +0.000 C 
ATOM     25  C   UNL     1       5.501   5.802  15.585  0.00  0.00    +0.000 C 
ENDBRANCH  22  25
BRANCH  22  26
ATOM     26  C   UNL     1       4.279   5.016  17.551  0.00  0.00    +0.000 C 
ATOM     27  C   UNL     1       3.819   4.908  18.808  0.00  0.00    +0.000 C 
BRANCH  27  28
ATOM     28  C   UNL     1       2.467   4.325  19.178  0.00  0.00    +0.000 C 
ATOM     29  O   UNL     1       2.540   3.724  20.489  0.00  0.00    +0.000 OA
ATOM     30  C   UNL     1       1.487   3.018  20.975  0.00  0.00    +0.000 C 
ATOM     31  O   UNL     1       1.376   2.724  22.149  0.00  0.00    +0.000 OA
ATOM     32  C   UNL     1       0.485   2.569  19.988  0.00  0.00    +0.000 C 
ATOM     33  C   UNL     1       0.699   2.674  18.671  0.00  0.00    +0.000 C 
ATOM     34  C   UNL     1       1.945   3.318  18.129  0.00  0.00    +0.000 C 
ATOM     35  C   UNL     1       2.953   2.226  17.754  0.00  0.00    +0.000 C 
ENDBRANCH  27  28
ENDBRANCH  22  26
ENDBRANCH  20  23
ENDBRANCH  19  20
ENDBRANCH   1  19
TORSDOF 14
ENDMDL
MODEL 2
REMARK VINA RESULT:      -7.6      7.174     10.752
REMARK  Name = 
REMARK  22 active torsions:
REMARK  status: ('A' for Active; 'I' for Inactive)
REMARK    1  A    between atoms: C_1  and  C_2
REMARK    2  A    between atoms: C_2  and  C_3
REMARK    3  A    between atoms: C_3  and  C_25
REMARK    4  A    between atoms: C_4  and  C_5
REMARK    5  A    between atoms: C_5  and  C_6
REMARK    6  A    between atoms: C_5  and  C_7
REMARK    7  A    between atoms: C_7  and  C_8
REMARK    8  A    between atoms: C_9  and  C_10
REMARK    9  A    between atoms: C_10  and  C_11
REMARK   10  A    between atoms: C_12  and  C_13
REMARK   11  A    between atoms: C_13  and  C_14
REMARK   12  A    between atoms: C_13  and  C_15
REMARK   13  A    between atoms: C_15  and  C_17
REMARK   14  A    between atoms: C_17  and  C_18
REMARK   15  A    between atoms: C_17  and  C_19
REMARK   16  A    between atoms: C_19  and  O_20
REMARK   17  A    between atoms: C_19  and  C_21
REMARK   18  A    between atoms: C_21  and  C_22
REMARK   19  A    between atoms: C_21  and  C_23
REMARK   20  A    between atoms: C_23  and  C_24
REMARK   21  A    between atoms: C_26  and  C_27
REMARK   22  A    between atoms: C_33  and  C_34
REMARK                            x       y       z     vdW  Elec       q    Type
REMARK                         _______ _______ _______ _____ _____    ______ ____
ROOT
ATOM      1  C   UNL     1       1.934   9.681  18.516  0.00  0.00    +0.000 C 
ATOM      2  C   UNL     1       2.363   8.541  17.963  0.00  0.00    +0.000 C 
ENDROOT
BRANCH   2   3
ATOM      3  C   UNL     1       2.381   7.254  18.631  0.00  0.00    +0.000 C 
ATOM      4  C   UNL     1       2.101   7.201  20.113  0.00  0.00    +0.000 C 
ATOM      5  C   UNL     1       2.638   6.161  17.887  0.00  0.00    +0.000 C 
BRANCH   5   6
ATOM      6  C   UNL     1       2.615   4.740  18.388  0.00  0.00    +0.000 C 
ATOM      7  C   UNL     1       1.259   4.108  18.105  0.00  0.00    +0.000 C 
BRANCH   6   8
ATOM      8  C   UNL     1       3.756   3.940  17.747  0.00  0.00    +0.000 C 
ATOM      9  O   UNL     1       3.533   3.194  16.787  0.00  0.00    +0.000 OA
BRANCH   8  10
ATOM     10  C   UNL     1       5.149   3.993  18.392  0.00  0.00    +0.000 C 
ATOM     11  C   UNL     1       5.238   5.001  19.545  0.00  0.00    +0.000 C 
BRANCH  10  12
ATOM     12  C   UNL     1       6.242   4.324  17.338  0.00  0.00    +0.000 C 
BRANCH  12  13
ATOM     13  O   UNL     1       7.527   4.286  17.974  0.00  0.00    +0.000 OA
ATOM     14  H   UNL     1       7.615   3.393  18.368  0.00  0.00    +0.000 HD
ENDBRANCH  12  13
BRANCH  12  15
ATOM     15  C   UNL     1       6.092   5.657  16.548  0.00  0.00    +0.000 C 
ATOM     16  C   UNL     1       7.201   6.637  16.964  0.00  0.00    +0.000 C 
BRANCH  15  17
ATOM     17  C   UNL     1       6.066   5.417  15.028  0.00  0.00    +0.000 C 
ATOM     18  C   UNL     1       6.216   3.958  14.628  0.00  0.00    +0.000 C 
ENDBRANCH  15  17
ENDBRANCH  12  15
ENDBRANCH  10  12
ENDBRANCH   8  10
ENDBRANCH   6   8
ENDBRANCH   5   6
ENDBRANCH   2   3
BRANCH   1  19
ATOM     19  C   UNL     1       1.963  11.004  17.805  0.00  0.00    +0.000 C 
BRANCH  19  20
ATOM     20  C   UNL     1       1.673  12.181  18.765  0.00  0.00    +0.000 C 
ATOM     21  C   UNL     1       2.426  13.448  18.328  0.00  0.00    +0.000 C 
BRANCH  20  23
ATOM     22  C   UNL     1      -0.747  12.406  19.756  0.00  0.00    +0.000 C 
ATOM     23  C   UNL     1       0.178  12.424  18.771  0.00  0.00    +0.000 C 
BRANCH  22  25
ATOM     24  C   UNL     1      -0.263  10.776  21.796  0.00  0.00    +0.000 C 
ATOM     25  C   UNL     1      -0.617  12.147  21.252  0.00  0.00    +0.000 C 
ENDBRANCH  22  25
BRANCH  22  26
ATOM     26  C   UNL     1      -2.168  12.521  19.399  0.00  0.00    +0.000 C 
ATOM     27  C   UNL     1      -3.239  12.252  20.163  0.00  0.00    +0.000 C 
BRANCH  27  28
ATOM     28  C   UNL     1      -4.678  12.456  19.723  0.00  0.00    +0.000 C 
ATOM     29  O   UNL     1      -5.566  11.776  20.636  0.00  0.00    +0.000 OA
ATOM     30  C   UNL     1      -6.895  11.703  20.368  0.00  0.00    +0.000 C 
ATOM     31  O   UNL     1      -7.721  11.392  21.204  0.00  0.00    +0.000 OA
ATOM     32  C   UNL     1      -7.300  11.976  18.975  0.00  0.00    +0.000 C 
ATOM     33  C   UNL     1      -6.401  12.088  17.989  0.00  0.00    +0.000 C 
ATOM     34  C   UNL     1      -4.925  12.010  18.265  0.00  0.00    +0.000 C 
ATOM     35  C   UNL     1      -4.428  10.595  17.952  0.00  0.00    +0.000 C 
ENDBRANCH  27  28
ENDBRANCH  22  26
ENDBRANCH  20  23
ENDBRANCH  19  20
ENDBRANCH   1  19
TORSDOF 14
ENDMDL
MODEL 3
REMARK VINA RESULT:      -7.5      7.471     11.407
REMARK  Name = 
REMARK  22 active torsions:
REMARK  status: ('A' for Active; 'I' for Inactive)
REMARK    1  A    between atoms: C_1  and  C_2
REMARK    2  A    between atoms: C_2  and  C_3
REMARK    3  A    between atoms: C_3  and  C_25
REMARK    4  A    between atoms: C_4  and  C_5
REMARK    5  A    between atoms: C_5  and  C_6
REMARK    6  A    between atoms: C_5  and  C_7
REMARK    7  A    between atoms: C_7  and  C_8
REMARK    8  A    between atoms: C_9  and  C_10
REMARK    9  A    between atoms: C_10  and  C_11
REMARK   10  A    between atoms: C_12  and  C_13
REMARK   11  A    between atoms: C_13  and  C_14
REMARK   12  A    between atoms: C_13  and  C_15
REMARK   13  A    between atoms: C_15  and  C_17
REMARK   14  A    between atoms: C_17  and  C_18
REMARK   15  A    between atoms: C_17  and  C_19
REMARK   16  A    between atoms: C_19  and  O_20
REMARK   17  A    between atoms: C_19  and  C_21
REMARK   18  A    between atoms: C_21  and  C_22
REMARK   19  A    between atoms: C_21  and  C_23
REMARK   20  A    between atoms: C_23  and  C_24
REMARK   21  A    between atoms: C_26  and  C_27
REMARK   22  A    between atoms: C_33  and  C_34
REMARK                            x       y       z     vdW  Elec       q    Type
REMARK                         _______ _______ _______ _____ _____    ______ ____
ROOT
ATOM      1  C   UNL     1       1.291   9.373  19.039  0.00  0.00    +0.000 C 
ATOM      2  C   UNL     1       2.095   8.460  18.481  0.00  0.00    +0.000 C 
ENDROOT
BRANCH   2   3
ATOM      3  C   UNL     1       2.251   7.098  18.954  0.00  0.00    +0.000 C 
ATOM      4  C   UNL     1       1.966   6.796  20.405  0.00  0.00    +0.000 C 
ATOM      5  C   UNL     1       2.635   6.162  18.065  0.00  0.00    +0.000 C 
BRANCH   5   6
ATOM      6  C   UNL     1       2.768   4.689  18.351  0.00  0.00    +0.000 C 
ATOM      7  C   UNL     1       1.484   3.964  17.966  0.00  0.00    +0.000 C 
BRANCH   6   8
ATOM      8  C   UNL     1       3.982   4.117  17.609  0.00  0.00    +0.000 C 
ATOM      9  O   UNL     1       3.845   3.584  16.503  0.00  0.00    +0.000 OA
BRANCH   8  10
ATOM     10  C   UNL     1       5.346   4.114  18.317  0.00  0.00    +0.000 C 
ATOM     11  C   UNL     1       5.447   5.167  19.428  0.00  0.00    +0.000 C 
BRANCH  10  12
ATOM     12  C   UNL     1       6.504   4.327  17.304  0.00  0.00    +0.000 C 
BRANCH  12  13
ATOM     13  O   UNL     1       7.753   4.261  18.004  0.00  0.00    +0.000 OA
ATOM     14  H   UNL     1       7.845   3.339  18.322  0.00  0.00    +0.000 HD
ENDBRANCH  12  13
BRANCH  12  15
ATOM     15  C   UNL     1       6.463   5.618  16.434  0.00  0.00    +0.000 C 
ATOM     16  C   UNL     1       7.312   6.718  17.092  0.00  0.00    +0.000 C 
BRANCH  15  17
ATOM     17  C   UNL     1       6.894   5.340  14.983  0.00  0.00    +0.000 C 
ATOM     18  C   UNL     1       6.372   4.027  14.423  0.00  0.00    +0.000 C 
ENDBRANCH  15  17
ENDBRANCH  12  15
ENDBRANCH  10  12
ENDBRANCH   8  10
ENDBRANCH   6   8
ENDBRANCH   5   6
ENDBRANCH   2   3
BRANCH   1  19
ATOM     19  C   UNL     1       1.181  10.786  18.543  0.00  0.00    +0.000 C 
BRANCH  19  20
ATOM     20  C   UNL     1      -0.272  11.310  18.611  0.00  0.00    +0.000 C 
ATOM     21  C   UNL     1      -1.279  10.184  18.332  0.00  0.00    +0.000 C 
BRANCH  20  23
ATOM     22  C   UNL     1      -0.556  11.344  21.220  0.00  0.00    +0.000 C 
ATOM     23  C   UNL     1      -0.495  11.898  19.989  0.00  0.00    +0.000 C 
BRANCH  22  25
ATOM     24  C   UNL     1      -0.114   9.554  23.131  0.00  0.00    +0.000 C 
ATOM     25  C   UNL     1      -0.400   9.901  21.682  0.00  0.00    +0.000 C 
ENDBRANCH  22  25
BRANCH  22  26
ATOM     26  C   UNL     1      -0.960  12.183  22.358  0.00  0.00    +0.000 C 
ATOM     27  C   UNL     1      -2.008  13.019  22.440  0.00  0.00    +0.000 C 
BRANCH  27  28
ATOM     28  C   UNL     1      -2.380  13.806  23.683  0.00  0.00    +0.000 C 
ATOM     29  O   UNL     1      -3.573  14.578  23.431  0.00  0.00    +0.000 OA
ATOM     30  C   UNL     1      -4.018  15.467  24.355  0.00  0.00    +0.000 C 
ATOM     31  O   UNL     1      -5.138  15.941  24.329  0.00  0.00    +0.000 OA
ATOM     32  C   UNL     1      -3.049  15.883  25.387  0.00  0.00    +0.000 C 
ATOM     33  C   UNL     1      -1.752  15.563  25.305  0.00  0.00    +0.000 C 
ATOM     34  C   UNL     1      -1.228  14.704  24.188  0.00  0.00    +0.000 C 
ATOM     35  C   UNL     1      -0.617  15.601  23.107  0.00  0.00    +0.000 C 
ENDBRANCH  27  28
ENDBRANCH  22  26
ENDBRANCH  20  23
ENDBRANCH  19  20
ENDBRANCH   1  19
TORSDOF 14
ENDMDL
MODEL 4
REMARK VINA RESULT:      -7.5      7.033     10.489
REMARK  Name = 
REMARK  22 active torsions:
REMARK  status: ('A' for Active; 'I' for Inactive)
REMARK    1  A    between atoms: C_1  and  C_2
REMARK    2  A    between atoms: C_2  and  C_3
REMARK    3  A    between atoms: C_3  and  C_25
REMARK    4  A    between atoms: C_4  and  C_5
REMARK    5  A    between atoms: C_5  and  C_6
REMARK    6  A    between atoms: C_5  and  C_7
REMARK    7  A    between atoms: C_7  and  C_8
REMARK    8  A    between atoms: C_9  and  C_10
REMARK    9  A    between atoms: C_10  and  C_11
REMARK   10  A    between atoms: C_12  and  C_13
REMARK   11  A    between atoms: C_13  and  C_14
REMARK   12  A    between atoms: C_13  and  C_15
REMARK   13  A    between atoms: C_15  and  C_17
REMARK   14  A    between atoms: C_17  and  C_18
REMARK   15  A    between atoms: C_17  and  C_19
REMARK   16  A    between atoms: C_19  and  O_20
REMARK   17  A    between atoms: C_19  and  C_21
REMARK   18  A    between atoms: C_21  and  C_22
REMARK   19  A    between atoms: C_21  and  C_23
REMARK   20  A    between atoms: C_23  and  C_24
REMARK   21  A    between atoms: C_26  and  C_27
REMARK   22  A    between atoms: C_33  and  C_34
REMARK                            x       y       z     vdW  Elec       q    Type
REMARK                         _______ _______ _______ _____ _____    ______ ____
ROOT
ATOM      1  C   UNL     1       1.908   7.810  20.225  0.00  0.00    +0.000 C 
ATOM      2  C   UNL     1       1.547   6.563  20.550  0.00  0.00    +0.000 C 
ENDROOT
BRANCH   2   3
ATOM      3  C   UNL     1       2.268   5.367  20.158  0.00  0.00    +0.000 C 
ATOM      4  C   UNL     1       2.403   4.241  21.154  0.00  0.00    +0.000 C 
ATOM      5  C   UNL     1       2.775   5.317  18.911  0.00  0.00    +0.000 C 
BRANCH   5   6
ATOM      6  C   UNL     1       3.477   4.131  18.301  0.00  0.00    +0.000 C 
ATOM      7  C   UNL     1       2.455   3.090  17.859  0.00  0.00    +0.000 C 
BRANCH   6   8
ATOM      8  C   UNL     1       4.359   4.587  17.133  0.00  0.00    +0.000 C 
ATOM      9  O   UNL     1       4.530   3.853  16.154  0.00  0.00    +0.000 OA
BRANCH   8  10
ATOM     10  C   UNL     1       5.118   5.917  17.256  0.00  0.00    +0.000 C 
ATOM     11  C   UNL     1       4.925   6.832  16.040  0.00  0.00    +0.000 C 
BRANCH  10  12
ATOM     12  C   UNL     1       6.637   5.677  17.479  0.00  0.00    +0.000 C 
BRANCH  12  13
ATOM     13  O   UNL     1       6.899   4.268  17.425  0.00  0.00    +0.000 OA
ATOM     14  H   UNL     1       7.755   4.162  16.962  0.00  0.00    +0.000 HD
ENDBRANCH  12  13
BRANCH  12  15
ATOM     15  C   UNL     1       7.273   6.274  18.769  0.00  0.00    +0.000 C 
ATOM     16  C   UNL     1       7.934   5.155  19.591  0.00  0.00    +0.000 C 
BRANCH  15  17
ATOM     17  C   UNL     1       8.254   7.414  18.445  0.00  0.00    +0.000 C 
ATOM     18  C   UNL     1       7.654   8.525  17.598  0.00  0.00    +0.000 C 
ENDBRANCH  15  17
ENDBRANCH  12  15
ENDBRANCH  10  12
ENDBRANCH   8  10
ENDBRANCH   6   8
ENDBRANCH   5   6
ENDBRANCH   2   3
BRANCH   1  19
ATOM     19  C   UNL     1       1.116   9.024  20.619  0.00  0.00    +0.000 C 
BRANCH  19  20
ATOM     20  C   UNL     1       0.967  10.021  19.447  0.00  0.00    +0.000 C 
ATOM     21  C   UNL     1       1.018   9.295  18.094  0.00  0.00    +0.000 C 
BRANCH  20  23
ATOM     22  C   UNL     1      -0.679  11.925  20.193  0.00  0.00    +0.000 C 
ATOM     23  C   UNL     1      -0.351  10.749  19.614  0.00  0.00    +0.000 C 
BRANCH  22  25
ATOM     24  C   UNL     1       1.687  13.001  20.738  0.00  0.00    +0.000 C 
ATOM     25  C   UNL     1       0.177  12.977  20.886  0.00  0.00    +0.000 C 
ENDBRANCH  22  25
BRANCH  22  26
ATOM     26  C   UNL     1      -2.099  12.274  20.337  0.00  0.00    +0.000 C 
ATOM     27  C   UNL     1      -3.023  12.402  19.372  0.00  0.00    +0.000 C 
BRANCH  27  28
ATOM     28  C   UNL     1      -4.488  12.714  19.624  0.00  0.00    +0.000 C 
ATOM     29  O   UNL     1      -4.881  12.190  20.911  0.00  0.00    +0.000 OA
ATOM     30  C   UNL     1      -6.183  12.228  21.294  0.00  0.00    +0.000 C 
ATOM     31  O   UNL     1      -6.537  12.060  22.444  0.00  0.00    +0.000 OA
ATOM     32  C   UNL     1      -7.177  12.439  20.223  0.00  0.00    +0.000 C 
ATOM     33  C   UNL     1      -6.838  12.394  18.929  0.00  0.00    +0.000 C 
ATOM     34  C   UNL     1      -5.411  12.192  18.501  0.00  0.00    +0.000 C 
ATOM     35  C   UNL     1      -5.194  10.716  18.150  0.00  0.00    +0.000 C 
ENDBRANCH  27  28
ENDBRANCH  22  26
ENDBRANCH  20  23
ENDBRANCH  19  20
ENDBRANCH   1  19
TORSDOF 14
ENDMDL
MODEL 5
REMARK VINA RESULT:      -7.5      5.556     11.613
REMARK  Name = 
REMARK  22 active torsions:
REMARK  status: ('A' for Active; 'I' for Inactive)
REMARK    1  A    between atoms: C_1  and  C_2
REMARK    2  A    between atoms: C_2  and  C_3
REMARK    3  A    between atoms: C_3  and  C_25
REMARK    4  A    between atoms: C_4  and  C_5
REMARK    5  A    between atoms: C_5  and  C_6
REMARK    6  A    between atoms: C_5  and  C_7
REMARK    7  A    between atoms: C_7  and  C_8
REMARK    8  A    between atoms: C_9  and  C_10
REMARK    9  A    between atoms: C_10  and  C_11
REMARK   10  A    between atoms: C_12  and  C_13
REMARK   11  A    between atoms: C_13  and  C_14
REMARK   12  A    between atoms: C_13  and  C_15
REMARK   13  A    between atoms: C_15  and  C_17
REMARK   14  A    between atoms: C_17  and  C_18
REMARK   15  A    between atoms: C_17  and  C_19
REMARK   16  A    between atoms: C_19  and  O_20
REMARK   17  A    between atoms: C_19  and  C_21
REMARK   18  A    between atoms: C_21  and  C_22
REMARK   19  A    between atoms: C_21  and  C_23
REMARK   20  A    between atoms: C_23  and  C_24
REMARK   21  A    between atoms: C_26  and  C_27
REMARK   22  A    between atoms: C_33  and  C_34
REMARK                            x       y       z     vdW  Elec       q    Type
REMARK                         _______ _______ _______ _____ _____    ______ ____
ROOT
ATOM      1  C   UNL     1       1.412   7.575  20.923  0.00  0.00    +0.000 C 
ATOM      2  C   UNL     1       1.898   6.782  19.960  0.00  0.00    +0.000 C 
ENDROOT
BRANCH   2   3
ATOM      3  C   UNL     1       2.120   5.356  20.100  0.00  0.00    +0.000 C 
ATOM      4  C   UNL     1       2.380   4.792  21.476  0.00  0.00    +0.000 C 
ATOM      5  C   UNL     1       2.073   4.599  18.987  0.00  0.00    +0.000 C 
BRANCH   5   6
ATOM      6  C   UNL     1       2.195   3.097  18.947  0.00  0.00    +0.000 C 
ATOM      7  C   UNL     1       0.878   2.478  18.498  0.00  0.00    +0.000 C 
BRANCH   6   8
ATOM      8  C   UNL     1       3.353   2.690  18.027  0.00  0.00    +0.000 C 
ATOM      9  O   UNL     1       3.639   1.498  17.872  0.00  0.00    +0.000 OA
BRANCH   8  10
ATOM     10  C   UNL     1       4.220   3.792  17.400  0.00  0.00    +0.000 C 
ATOM     11  C   UNL     1       4.662   3.464  15.967  0.00  0.00    +0.000 C 
BRANCH  10  12
ATOM     12  C   UNL     1       5.476   4.080  18.268  0.00  0.00    +0.000 C 
BRANCH  12  13
ATOM     13  O   UNL     1       5.385   3.323  19.482  0.00  0.00    +0.000 OA
ATOM     14  H   UNL     1       6.234   3.452  19.954  0.00  0.00    +0.000 HD
ENDBRANCH  12  13
BRANCH  12  15
ATOM     15  C   UNL     1       5.785   5.569  18.605  0.00  0.00    +0.000 C 
ATOM     16  C   UNL     1       7.208   5.689  19.175  0.00  0.00    +0.000 C 
BRANCH  15  17
ATOM     17  C   UNL     1       5.564   6.485  17.389  0.00  0.00    +0.000 C 
ATOM     18  C   UNL     1       4.235   7.222  17.402  0.00  0.00    +0.000 C 
ENDBRANCH  15  17
ENDBRANCH  12  15
ENDBRANCH  10  12
ENDBRANCH   8  10
ENDBRANCH   6   8
ENDBRANCH   5   6
ENDBRANCH   2   3
BRANCH   1  19
ATOM     19  C   UNL     1       1.228   9.056  20.754  0.00  0.00    +0.000 C 
BRANCH  19  20
ATOM     20  C   UNL     1      -0.198   9.508  21.147  0.00  0.00    +0.000 C 
ATOM     21  C   UNL     1      -0.488   9.201  22.624  0.00  0.00    +0.000 C 
BRANCH  20  23
ATOM     22  C   UNL     1      -0.698  11.702  19.794  0.00  0.00    +0.000 C 
ATOM     23  C   UNL     1      -0.309  10.995  20.878  0.00  0.00    +0.000 C 
BRANCH  22  25
ATOM     24  C   UNL     1      -0.686   9.980  17.772  0.00  0.00    +0.000 C 
ATOM     25  C   UNL     1      -1.194  11.252  18.426  0.00  0.00    +0.000 C 
ENDBRANCH  22  25
BRANCH  22  26
ATOM     26  C   UNL     1      -0.529  13.162  19.799  0.00  0.00    +0.000 C 
ATOM     27  C   UNL     1       0.613  13.865  19.725  0.00  0.00    +0.000 C 
BRANCH  27  28
ATOM     28  C   UNL     1       0.684  15.380  19.681  0.00  0.00    +0.000 C 
ATOM     29  O   UNL     1      -0.327  15.889  18.785  0.00  0.00    +0.000 OA
ATOM     30  C   UNL     1      -0.366  17.210  18.479  0.00  0.00    +0.000 C 
ATOM     31  O   UNL     1      -1.330  17.740  17.961  0.00  0.00    +0.000 OA
ATOM     32  C   UNL     1       0.857  17.987  18.763  0.00  0.00    +0.000 C 
ATOM     33  C   UNL     1       2.004  17.391  19.110  0.00  0.00    +0.000 C 
ATOM     34  C   UNL     1       2.087  15.901  19.296  0.00  0.00    +0.000 C 
ATOM     35  C   UNL     1       2.661  15.266  18.025  0.00  0.00    +0.000 C 
ENDBRANCH  27  28
ENDBRANCH  22  26
ENDBRANCH  20  23
ENDBRANCH  19  20
ENDBRANCH   1  19
TORSDOF 14
ENDMDL
MODEL 6
REMARK VINA RESULT:      -7.5      5.475     11.481
REMARK  Name = 
REMARK  22 active torsions:
REMARK  status: ('A' for Active; 'I' for Inactive)
REMARK    1  A    between atoms: C_1  and  C_2
REMARK    2  A    between atoms: C_2  and  C_3
REMARK    3  A    between atoms: C_3  and  C_25
REMARK    4  A    between atoms: C_4  and  C_5
REMARK    5  A    between atoms: C_5  and  C_6
REMARK    6  A    between atoms: C_5  and  C_7
REMARK    7  A    between atoms: C_7  and  C_8
REMARK    8  A    between atoms: C_9  and  C_10
REMARK    9  A    between atoms: C_10  and  C_11
REMARK   10  A    between atoms: C_12  and  C_13
REMARK   11  A    between atoms: C_13  and  C_14
REMARK   12  A    between atoms: C_13  and  C_15
REMARK   13  A    between atoms: C_15  and  C_17
REMARK   14  A    between atoms: C_17  and  C_18
REMARK   15  A    between atoms: C_17  and  C_19
REMARK   16  A    between atoms: C_19  and  O_20
REMARK   17  A    between atoms: C_19  and  C_21
REMARK   18  A    between atoms: C_21  and  C_22
REMARK   19  A    between atoms: C_21  and  C_23
REMARK   20  A    between atoms: C_23  and  C_24
REMARK   21  A    between atoms: C_26  and  C_27
REMARK   22  A    between atoms: C_33  and  C_34
REMARK                            x       y       z     vdW  Elec       q    Type
REMARK                         _______ _______ _______ _____ _____    ______ ____
ROOT
ATOM      1  C   UNL     1       2.129   7.737  17.749  0.00  0.00    +0.000 C 
ATOM      2  C   UNL     1       3.428   7.895  17.471  0.00  0.00    +0.000 C 
ENDROOT
BRANCH   2   3
ATOM      3  C   UNL     1       4.384   6.811  17.347  0.00  0.00    +0.000 C 
ATOM      4  C   UNL     1       5.072   6.596  16.021  0.00  0.00    +0.000 C 
ATOM      5  C   UNL     1       4.620   6.052  18.435  0.00  0.00    +0.000 C 
BRANCH   5   6
ATOM      6  C   UNL     1       5.636   4.942  18.520  0.00  0.00    +0.000 C 
ATOM      7  C   UNL     1       6.809   5.373  19.392  0.00  0.00    +0.000 C 
BRANCH   6   8
ATOM      8  C   UNL     1       4.974   3.666  19.056  0.00  0.00    +0.000 C 
ATOM      9  O   UNL     1       5.134   3.325  20.233  0.00  0.00    +0.000 OA
BRANCH   8  10
ATOM     10  C   UNL     1       4.210   2.763  18.076  0.00  0.00    +0.000 C 
ATOM     11  C   UNL     1       4.358   3.206  16.614  0.00  0.00    +0.000 C 
BRANCH  10  12
ATOM     12  C   UNL     1       2.701   2.692  18.438  0.00  0.00    +0.000 C 
BRANCH  12  13
ATOM     13  O   UNL     1       2.017   1.931  17.434  0.00  0.00    +0.000 OA
ATOM     14  H   UNL     1       1.347   1.391  17.904  0.00  0.00    +0.000 HD
ENDBRANCH  12  13
BRANCH  12  15
ATOM     15  C   UNL     1       1.957   4.041  18.665  0.00  0.00    +0.000 C 
ATOM     16  C   UNL     1       0.984   4.302  17.503  0.00  0.00    +0.000 C 
BRANCH  15  17
ATOM     17  C   UNL     1       1.253   4.080  20.033  0.00  0.00    +0.000 C 
ATOM     18  C   UNL     1       2.090   4.697  21.142  0.00  0.00    +0.000 C 
ENDBRANCH  15  17
ENDBRANCH  12  15
ENDBRANCH  10  12
ENDBRANCH   8  10
ENDBRANCH   6   8
ENDBRANCH   5   6
ENDBRANCH   2   3
BRANCH   1  19
ATOM     19  C   UNL     1       1.175   8.886  17.904  0.00  0.00    +0.000 C 
BRANCH  19  20
ATOM     20  C   UNL     1       0.830   9.153  19.388  0.00  0.00    +0.000 C 
ATOM     21  C   UNL     1       1.713   8.309  20.321  0.00  0.00    +0.000 C 
BRANCH  20  23
ATOM     22  C   UNL     1       0.628  11.438  20.664  0.00  0.00    +0.000 C 
ATOM     23  C   UNL     1       1.027  10.631  19.657  0.00  0.00    +0.000 C 
BRANCH  22  25
ATOM     24  C   UNL     1      -1.582  11.655  22.121  0.00  0.00    +0.000 C 
ATOM     25  C   UNL     1      -0.164  11.146  21.932  0.00  0.00    +0.000 C 
ENDBRANCH  22  25
BRANCH  22  26
ATOM     26  C   UNL     1       0.843  12.887  20.542  0.00  0.00    +0.000 C 
ATOM     27  C   UNL     1       0.470  13.698  19.539  0.00  0.00    +0.000 C 
BRANCH  27  28
ATOM     28  C   UNL     1       0.689  15.200  19.528  0.00  0.00    +0.000 C 
ATOM     29  O   UNL     1      -0.164  15.808  18.534  0.00  0.00    +0.000 OA
ATOM     30  C   UNL     1      -0.044  17.129  18.247  0.00  0.00    +0.000 C 
ATOM     31  O   UNL     1      -0.891  17.751  17.636  0.00  0.00    +0.000 OA
ATOM     32  C   UNL     1       1.208  17.783  18.675  0.00  0.00    +0.000 C 
ATOM     33  C   UNL     1       2.249  17.078  19.136  0.00  0.00    +0.000 C 
ATOM     34  C   UNL     1       2.169  15.586  19.306  0.00  0.00    +0.000 C 
ATOM     35  C   UNL     1       2.816  14.906  18.095  0.00  0.00    +0.000 C 
ENDBRANCH  27  28
ENDBRANCH  22  26
ENDBRANCH  20  23
ENDBRANCH  19  20
ENDBRANCH   1  19
TORSDOF 14
ENDMDL
MODEL 7
REMARK VINA RESULT:      -7.4      3.698      5.206
REMARK  Name = 
REMARK  22 active torsions:
REMARK  status: ('A' for Active; 'I' for Inactive)
REMARK    1  A    between atoms: C_1  and  C_2
REMARK    2  A    between atoms: C_2  and  C_3
REMARK    3  A    between atoms: C_3  and  C_25
REMARK    4  A    between atoms: C_4  and  C_5
REMARK    5  A    between atoms: C_5  and  C_6
REMARK    6  A    between atoms: C_5  and  C_7
REMARK    7  A    between atoms: C_7  and  C_8
REMARK    8  A    between atoms: C_9  and  C_10
REMARK    9  A    between atoms: C_10  and  C_11
REMARK   10  A    between atoms: C_12  and  C_13
REMARK   11  A    between atoms: C_13  and  C_14
REMARK   12  A    between atoms: C_13  and  C_15
REMARK   13  A    between atoms: C_15  and  C_17
REMARK   14  A    between atoms: C_17  and  C_18
REMARK   15  A    between atoms: C_17  and  C_19
REMARK   16  A    between atoms: C_19  and  O_20
REMARK   17  A    between atoms: C_19  and  C_21
REMARK   18  A    between atoms: C_21  and  C_22
REMARK   19  A    between atoms: C_21  and  C_23
REMARK   20  A    between atoms: C_23  and  C_24
REMARK   21  A    between atoms: C_26  and  C_27
REMARK   22  A    between atoms: C_33  and  C_34
REMARK                            x       y       z     vdW  Elec       q    Type
REMARK                         _______ _______ _______ _____ _____    ______ ____
ROOT
ATOM      1  C   UNL     1       7.487   8.081  17.707  0.00  0.00    +0.000 C 
ATOM      2  C   UNL     1       8.636   8.533  18.222  0.00  0.00    +0.000 C 
ENDROOT
BRANCH   2   3
ATOM      3  C   UNL     1       8.845   9.881  18.715  0.00  0.00    +0.000 C 
ATOM      4  C   UNL     1       9.088  10.086  20.191  0.00  0.00    +0.000 C 
ATOM      5  C   UNL     1       8.824  10.890  17.822  0.00  0.00    +0.000 C 
BRANCH   5   6
ATOM      6  C   UNL     1       9.103  12.337  18.134  0.00  0.00    +0.000 C 
ATOM      7  C   UNL     1      10.384  12.783  17.439  0.00  0.00    +0.000 C 
BRANCH   6   8
ATOM      8  C   UNL     1       7.907  13.203  17.721  0.00  0.00    +0.000 C 
ATOM      9  O   UNL     1       7.178  12.857  16.784  0.00  0.00    +0.000 OA
BRANCH   8  10
ATOM     10  C   UNL     1       7.703  14.559  18.412  0.00  0.00    +0.000 C 
ATOM     11  C   UNL     1       8.597  15.666  17.837  0.00  0.00    +0.000 C 
BRANCH  10  12
ATOM     12  C   UNL     1       7.946  14.450  19.943  0.00  0.00    +0.000 C 
BRANCH  12  13
ATOM     13  O   UNL     1       6.781  14.918  20.634  0.00  0.00    +0.000 OA
ATOM     14  H   UNL     1       6.013  14.481  20.211  0.00  0.00    +0.000 HD
ENDBRANCH  12  13
BRANCH  12  15
ATOM     15  C   UNL     1       9.210  15.157  20.517  0.00  0.00    +0.000 C 
ATOM     16  C   UNL     1       8.788  16.263  21.498  0.00  0.00    +0.000 C 
BRANCH  15  17
ATOM     17  C   UNL     1      10.183  14.151  21.157  0.00  0.00    +0.000 C 
ATOM     18  C   UNL     1       9.509  13.115  22.042  0.00  0.00    +0.000 C 
ENDBRANCH  15  17
ENDBRANCH  12  15
ENDBRANCH  10  12
ENDBRANCH   8  10
ENDBRANCH   6   8
ENDBRANCH   5   6
ENDBRANCH   2   3
BRANCH   1  19
ATOM     19  C   UNL     1       7.317   6.687  17.173  0.00  0.00    +0.000 C 
BRANCH  19  20
ATOM     20  C   UNL     1       5.996   6.042  17.654  0.00  0.00    +0.000 C 
ATOM     21  C   UNL     1       6.182   5.349  19.012  0.00  0.00    +0.000 C 
BRANCH  20  23
ATOM     22  C   UNL     1       3.604   7.100  17.871  0.00  0.00    +0.000 C 
ATOM     23  C   UNL     1       4.949   7.133  17.749  0.00  0.00    +0.000 C 
BRANCH  22  25
ATOM     24  C   UNL     1       2.431   5.181  19.282  0.00  0.00    +0.000 C 
ATOM     25  C   UNL     1       2.632   5.932  17.979  0.00  0.00    +0.000 C 
ENDBRANCH  22  25
BRANCH  22  26
ATOM     26  C   UNL     1       2.850   8.358  17.766  0.00  0.00    +0.000 C 
ATOM     27  C   UNL     1       1.634   8.639  18.261  0.00  0.00    +0.000 C 
BRANCH  27  28
ATOM     28  C   UNL     1       0.956   9.992  18.149  0.00  0.00    +0.000 C 
ATOM     29  O   UNL     1       1.910  11.039  18.431  0.00  0.00    +0.000 OA
ATOM     30  C   UNL     1       1.499  12.329  18.525  0.00  0.00    +0.000 C 
ATOM     31  O   UNL     1       2.268  13.271  18.489  0.00  0.00    +0.000 OA
ATOM     32  C   UNL     1       0.053  12.545  18.726  0.00  0.00    +0.000 C 
ATOM     33  C   UNL     1      -0.779  11.533  19.002  0.00  0.00    +0.000 C 
ATOM     34  C   UNL     1      -0.290  10.112  19.055  0.00  0.00    +0.000 C 
ATOM     35  C   UNL     1      -0.041   9.719  20.514  0.00  0.00    +0.000 C 
ENDBRANCH  27  28
ENDBRANCH  22  26
ENDBRANCH  20  23
ENDBRANCH  19  20
ENDBRANCH   1  19
TORSDOF 14
ENDMDL
MODEL 8
REMARK VINA RESULT:      -7.4      2.970     11.170
REMARK  Name = 
REMARK  22 active torsions:
REMARK  status: ('A' for Active; 'I' for Inactive)
REMARK    1  A    between atoms: C_1  and  C_2
REMARK    2  A    between atoms: C_2  and  C_3
REMARK    3  A    between atoms: C_3  and  C_25
REMARK    4  A    between atoms: C_4  and  C_5
REMARK    5  A    between atoms: C_5  and  C_6
REMARK    6  A    between atoms: C_5  and  C_7
REMARK    7  A    between atoms: C_7  and  C_8
REMARK    8  A    between atoms: C_9  and  C_10
REMARK    9  A    between atoms: C_10  and  C_11
REMARK   10  A    between atoms: C_12  and  C_13
REMARK   11  A    between atoms: C_13  and  C_14
REMARK   12  A    between atoms: C_13  and  C_15
REMARK   13  A    between atoms: C_15  and  C_17
REMARK   14  A    between atoms: C_17  and  C_18
REMARK   15  A    between atoms: C_17  and  C_19
REMARK   16  A    between atoms: C_19  and  O_20
REMARK   17  A    between atoms: C_19  and  C_21
REMARK   18  A    between atoms: C_21  and  C_22
REMARK   19  A    between atoms: C_21  and  C_23
REMARK   20  A    between atoms: C_23  and  C_24
REMARK   21  A    between atoms: C_26  and  C_27
REMARK   22  A    between atoms: C_33  and  C_34
REMARK                            x       y       z     vdW  Elec       q    Type
REMARK                         _______ _______ _______ _____ _____    ______ ____
ROOT
ATOM      1  C   UNL     1       8.466  10.051  18.334  0.00  0.00    +0.000 C 
ATOM      2  C   UNL     1       8.852   8.777  18.469  0.00  0.00    +0.000 C 
ENDROOT
BRANCH   2   3
ATOM      3  C   UNL     1       7.982   7.629  18.298  0.00  0.00    +0.000 C 
ATOM      4  C   UNL     1       8.177   6.430  19.195  0.00  0.00    +0.000 C 
ATOM      5  C   UNL     1       7.029   7.695  17.348  0.00  0.00    +0.000 C 
BRANCH   5   6
ATOM      6  C   UNL     1       5.986   6.641  17.084  0.00  0.00    +0.000 C 
ATOM      7  C   UNL     1       4.792   7.256  16.364  0.00  0.00    +0.000 C 
BRANCH   6   8
ATOM      8  C   UNL     1       6.598   5.488  16.278  0.00  0.00    +0.000 C 
ATOM      9  O   UNL     1       7.522   5.701  15.485  0.00  0.00    +0.000 OA
BRANCH   8  10
ATOM     10  C   UNL     1       5.964   4.093  16.387  0.00  0.00    +0.000 C 
ATOM     11  C   UNL     1       5.272   3.647  15.093  0.00  0.00    +0.000 C 
BRANCH  10  12
ATOM     12  C   UNL     1       4.947   4.029  17.560  0.00  0.00    +0.000 C 
BRANCH  12  13
ATOM     13  O   UNL     1       5.559   3.363  18.671  0.00  0.00    +0.000 OA
ATOM     14  H   UNL     1       5.483   2.402  18.495  0.00  0.00    +0.000 HD
ENDBRANCH  12  13
BRANCH  12  15
ATOM     15  C   UNL     1       3.559   3.385  17.267  0.00  0.00    +0.000 C 
ATOM     16  C   UNL     1       3.440   2.045  18.010  0.00  0.00    +0.000 C 
BRANCH  15  17
ATOM     17  C   UNL     1       2.404   4.344  17.605  0.00  0.00    +0.000 C 
ATOM     18  C   UNL     1       1.594   3.931  18.823  0.00  0.00    +0.000 C 
ENDBRANCH  15  17
ENDBRANCH  12  15
ENDBRANCH  10  12
ENDBRANCH   8  10
ENDBRANCH   6   8
ENDBRANCH   5   6
ENDBRANCH   2   3
BRANCH   1  19
ATOM     19  C   UNL     1       9.387  11.217  18.554  0.00  0.00    +0.000 C 
BRANCH  19  20
ATOM     20  C   UNL     1       9.815  11.343  20.034  0.00  0.00    +0.000 C 
ATOM     21  C   UNL     1      11.311  11.677  20.151  0.00  0.00    +0.000 C 
BRANCH  20  23
ATOM     22  C   UNL     1       8.361  12.519  21.876  0.00  0.00    +0.000 C 
ATOM     23  C   UNL     1       8.973  12.427  20.676  0.00  0.00    +0.000 C 
BRANCH  22  25
ATOM     24  C   UNL     1       8.308  12.048  24.489  0.00  0.00    +0.000 C 
ATOM     25  C   UNL     1       8.309  11.555  23.054  0.00  0.00    +0.000 C 
ENDBRANCH  22  25
BRANCH  22  26
ATOM     26  C   UNL     1       7.465  13.656  22.133  0.00  0.00    +0.000 C 
ATOM     27  C   UNL     1       7.671  14.953  21.853  0.00  0.00    +0.000 C 
BRANCH  27  28
ATOM     28  C   UNL     1       6.658  16.055  22.105  0.00  0.00    +0.000 C 
ATOM     29  O   UNL     1       5.504  15.509  22.780  0.00  0.00    +0.000 OA
ATOM     30  C   UNL     1       4.407  16.280  22.988  0.00  0.00    +0.000 C 
ATOM     31  O   UNL     1       3.527  15.978  23.771  0.00  0.00    +0.000 OA
ATOM     32  C   UNL     1       4.300  17.504  22.171  0.00  0.00    +0.000 C 
ATOM     33  C   UNL     1       5.126  17.740  21.144  0.00  0.00    +0.000 C 
ATOM     34  C   UNL     1       6.251  16.799  20.814  0.00  0.00    +0.000 C 
ATOM     35  C   UNL     1       5.815  15.874  19.672  0.00  0.00    +0.000 C 
ENDBRANCH  27  28
ENDBRANCH  22  26
ENDBRANCH  20  23
ENDBRANCH  19  20
ENDBRANCH   1  19
TORSDOF 14
ENDMDL
MODEL 9
REMARK VINA RESULT:      -7.4      5.613     11.827
REMARK  Name = 
REMARK  22 active torsions:
REMARK  status: ('A' for Active; 'I' for Inactive)
REMARK    1  A    between atoms: C_1  and  C_2
REMARK    2  A    between atoms: C_2  and  C_3
REMARK    3  A    between atoms: C_3  and  C_25
REMARK    4  A    between atoms: C_4  and  C_5
REMARK    5  A    between atoms: C_5  and  C_6
REMARK    6  A    between atoms: C_5  and  C_7
REMARK    7  A    between atoms: C_7  and  C_8
REMARK    8  A    between atoms: C_9  and  C_10
REMARK    9  A    between atoms: C_10  and  C_11
REMARK   10  A    between atoms: C_12  and  C_13
REMARK   11  A    between atoms: C_13  and  C_14
REMARK   12  A    between atoms: C_13  and  C_15
REMARK   13  A    between atoms: C_15  and  C_17
REMARK   14  A    between atoms: C_17  and  C_18
REMARK   15  A    between atoms: C_17  and  C_19
REMARK   16  A    between atoms: C_19  and  O_20
REMARK   17  A    between atoms: C_19  and  C_21
REMARK   18  A    between atoms: C_21  and  C_22
REMARK   19  A    between atoms: C_21  and  C_23
REMARK   20  A    between atoms: C_23  and  C_24
REMARK   21  A    between atoms: C_26  and  C_27
REMARK   22  A    between atoms: C_33  and  C_34
REMARK                            x       y       z     vdW  Elec       q    Type
REMARK                         _______ _______ _______ _____ _____    ______ ____
ROOT
ATOM      1  C   UNL     1       1.185   8.169  20.408  0.00  0.00    +0.000 C 
ATOM      2  C   UNL     1       2.386   7.961  19.858  0.00  0.00    +0.000 C 
ENDROOT
BRANCH   2   3
ATOM      3  C   UNL     1       2.613   7.242  18.618  0.00  0.00    +0.000 C 
ATOM      4  C   UNL     1       1.458   7.054  17.666  0.00  0.00    +0.000 C 
ATOM      5  C   UNL     1       3.856   6.785  18.373  0.00  0.00    +0.000 C 
BRANCH   5   6
ATOM      6  C   UNL     1       4.298   6.094  17.109  0.00  0.00    +0.000 C 
ATOM      7  C   UNL     1       5.575   6.737  16.581  0.00  0.00    +0.000 C 
BRANCH   6   8
ATOM      8  C   UNL     1       4.488   4.595  17.369  0.00  0.00    +0.000 C 
ATOM      9  O   UNL     1       5.077   3.886  16.546  0.00  0.00    +0.000 OA
BRANCH   8  10
ATOM     10  C   UNL     1       3.830   3.972  18.610  0.00  0.00    +0.000 C 
ATOM     11  C   UNL     1       4.788   3.084  19.414  0.00  0.00    +0.000 C 
BRANCH  10  12
ATOM     12  C   UNL     1       2.572   3.146  18.223  0.00  0.00    +0.000 C 
BRANCH  12  13
ATOM     13  O   UNL     1       2.366   3.248  16.807  0.00  0.00    +0.000 OA
ATOM     14  H   UNL     1       3.113   2.776  16.384  0.00  0.00    +0.000 HD
ENDBRANCH  12  13
BRANCH  12  15
ATOM     15  C   UNL     1       1.244   3.477  18.966  0.00  0.00    +0.000 C 
ATOM     16  C   UNL     1       0.389   2.205  19.094  0.00  0.00    +0.000 C 
BRANCH  15  17
ATOM     17  C   UNL     1       1.505   4.142  20.328  0.00  0.00    +0.000 C 
ATOM     18  C   UNL     1       1.639   3.162  21.482  0.00  0.00    +0.000 C 
ENDBRANCH  15  17
ENDBRANCH  12  15
ENDBRANCH  10  12
ENDBRANCH   8  10
ENDBRANCH   6   8
ENDBRANCH   5   6
ENDBRANCH   2   3
BRANCH   1  19
ATOM     19  C   UNL     1       0.991   8.888  21.713  0.00  0.00    +0.000 C 
BRANCH  19  20
ATOM     20  C   UNL     1      -0.291   9.753  21.710  0.00  0.00    +0.000 C 
ATOM     21  C   UNL     1      -0.757  10.055  23.142  0.00  0.00    +0.000 C 
BRANCH  20  23
ATOM     22  C   UNL     1      -0.441  11.543  19.796  0.00  0.00    +0.000 C 
ATOM     23  C   UNL     1       0.011  11.036  20.963  0.00  0.00    +0.000 C 
BRANCH  22  25
ATOM     24  C   UNL     1      -1.116   9.864  17.852  0.00  0.00    +0.000 C 
ATOM     25  C   UNL     1      -1.454  11.006  18.792  0.00  0.00    +0.000 C 
ENDBRANCH  22  25
BRANCH  22  26
ATOM     26  C   UNL     1       0.187  12.758  19.257  0.00  0.00    +0.000 C 
ATOM     27  C   UNL     1      -0.262  14.022  19.322  0.00  0.00    +0.000 C 
BRANCH  27  28
ATOM     28  C   UNL     1       0.487  15.226  18.782  0.00  0.00    +0.000 C 
ATOM     29  O   UNL     1       1.525  15.609  19.710  0.00  0.00    +0.000 OA
ATOM     30  C   UNL     1       2.239  16.745  19.505  0.00  0.00    +0.000 C 
ATOM     31  O   UNL     1       3.284  16.981  20.080  0.00  0.00    +0.000 OA
ATOM     32  C   UNL     1       1.656  17.727  18.570  0.00  0.00    +0.000 C 
ATOM     33  C   UNL     1       0.406  17.602  18.106  0.00  0.00    +0.000 C 
ATOM     34  C   UNL     1      -0.445  16.416  18.463  0.00  0.00    +0.000 C 
ATOM     35  C   UNL     1      -1.385  16.797  19.611  0.00  0.00    +0.000 C 
ENDBRANCH  27  28
ENDBRANCH  22  26
ENDBRANCH  20  23
ENDBRANCH  19  20
ENDBRANCH   1  19
TORSDOF 14
ENDMDL
