MODEL 1
REMARK VINA RESULT:      -8.5      0.000      0.000
REMARK  Name = 
REMARK  24 active torsions:
REMARK  status: ('A' for Active; 'I' for Inactive)
REMARK    1  A    between atoms: C_1  and  C_2
REMARK    2  A    between atoms: C_2  and  C_3
REMARK    3  A    between atoms: C_2  and  C_4
REMARK    4  A    between atoms: C_4  and  C_5
REMARK    5  A    between atoms: C_5  and  C_6
REMARK    6  A    between atoms: C_6  and  C_7
REMARK    7  A    between atoms: C_7  and  C_8
REMARK    8  A    between atoms: C_7  and  O_9
REMARK    9  A    between atoms: C_7  and  C_10
REMARK   10  A    between atoms: C_13  and  C_14
REMARK   11  A    between atoms: C_14  and  C_15
REMARK   12  A    between atoms: C_17  and  C_18
REMARK   13  A    between atoms: C_18  and  C_19
REMARK   14  A    between atoms: C_18  and  O_20
REMARK   15  A    between atoms: C_18  and  C_21
REMARK   16  A    between atoms: C_21  and  C_22
REMARK   17  A    between atoms: C_22  and  C_23
REMARK   18  A    between atoms: C_23  and  C_24
REMARK   19  A    between atoms: C_24  and  C_25
REMARK   20  A    between atoms: C_24  and  C_26
REMARK   21  A    between atoms: C_27  and  O_28
REMARK   22  A    between atoms: C_30  and  C_31
REMARK   23  A    between atoms: C_31  and  O_32
REMARK   24  A    between atoms: C_34  and  O_35
REMARK                            x       y       z     vdW  Elec       q    Type
REMARK                         _______ _______ _______ _____ _____    ______ ____
ROOT
ATOM      1  C   UNL     1       3.391   4.894  19.269  0.00  0.00    +0.000 A 
ATOM      2  C   UNL     1       4.753   5.262  19.255  0.00  0.00    +0.000 A 
ATOM      3  C   UNL     1       5.637   4.983  18.204  0.00  0.00    +0.000 A 
ATOM      4  C   UNL     1       5.115   4.196  17.172  0.00  0.00    +0.000 A 
ATOM      5  C   UNL     1       3.782   3.765  17.173  0.00  0.00    +0.000 A 
ATOM      6  C   UNL     1       2.901   4.093  18.225  0.00  0.00    +0.000 A 
ENDROOT
BRANCH   3   7
ATOM      7  C   UNL     1       7.054   5.557  18.203  0.00  0.00    +0.000 C 
ATOM      8  C   UNL     1       7.677   5.676  19.614  0.00  0.00    +0.000 C 
BRANCH   7   9
ATOM      9  O   UNL     1       7.857   4.636  17.447  0.00  0.00    +0.000 OA
ATOM     10  H   UNL     1       7.462   3.753  17.572  0.00  0.00    +0.000 HD
ENDBRANCH   7   9
BRANCH   7  11
ATOM     11  C   UNL     1       7.116   6.937  17.492  0.00  0.00    +0.000 C 
BRANCH  11  12
ATOM     12  C   UNL     1       8.284   7.835  17.949  0.00  0.00    +0.000 C 
BRANCH  12  13
ATOM     13  C   UNL     1       7.906   9.316  17.895  0.00  0.00    +0.000 C 
BRANCH  13  14
ATOM     14  C   UNL     1       9.065  10.259  18.271  0.00  0.00    +0.000 C 
ATOM     15  C   UNL     1       8.814  11.703  17.826  0.00  0.00    +0.000 C 
ATOM     16  C   UNL     1       9.287  10.215  19.785  0.00  0.00    +0.000 C 
ENDBRANCH  13  14
ENDBRANCH  12  13
ENDBRANCH  11  12
ENDBRANCH   7  11
ENDBRANCH   3   7
BRANCH   4  17
ATOM     17  O   UNL     1       5.879   3.778  16.113  0.00  0.00    +0.000 OA
ATOM     18  H   UNL     1       5.306   3.805  15.321  0.00  0.00    +0.000 HD
ENDBRANCH   4  17
BRANCH   1  19
ATOM     19  C   UNL     1       2.563   5.463  20.412  0.00  0.00    +0.000 C 
BRANCH  19  23
ATOM     20  C   UNL     1       1.065   9.478  19.538  0.00  0.00    +0.000 A 
ATOM     21  C   UNL     1       1.862   8.760  18.624  0.00  0.00    +0.000 A 
ATOM     22  C   UNL     1       2.342   7.477  18.910  0.00  0.00    +0.000 A 
ATOM     23  C   UNL     1       2.016   6.849  20.113  0.00  0.00    +0.000 A 
ATOM     24  C   UNL     1       1.223   7.548  21.036  0.00  0.00    +0.000 A 
ATOM     25  C   UNL     1       0.773   8.844  20.754  0.00  0.00    +0.000 A 
BRANCH  25  26
ATOM     26  O   UNL     1       0.040   9.505  21.703  0.00  0.00    +0.000 OA
ATOM     27  H   UNL     1      -0.520  10.166  21.267  0.00  0.00    +0.000 HD
ENDBRANCH  25  26
BRANCH  20  28
ATOM     28  C   UNL     1       0.562  10.888  19.203  0.00  0.00    +0.000 C 
ATOM     29  C   UNL     1       1.023  11.899  20.270  0.00  0.00    +0.000 C 
BRANCH  28  30
ATOM     30  O   UNL     1       1.152  11.325  17.956  0.00  0.00    +0.000 OA
ATOM     31  H   UNL     1       1.105  12.301  17.953  0.00  0.00    +0.000 HD
ENDBRANCH  28  30
BRANCH  28  32
ATOM     32  C   UNL     1      -0.977  10.924  18.967  0.00  0.00    +0.000 C 
BRANCH  32  33
ATOM     33  C   UNL     1      -1.389  10.212  17.671  0.00  0.00    +0.000 C 
BRANCH  33  34
ATOM     34  C   UNL     1      -2.824   9.674  17.668  0.00  0.00    +0.000 C 
BRANCH  34  36
ATOM     35  C   UNL     1      -4.357  11.555  16.938  0.00  0.00    +0.000 C 
ATOM     36  C   UNL     1      -3.648  10.271  16.506  0.00  0.00    +0.000 C 
ATOM     37  C   UNL     1      -2.794  10.554  15.265  0.00  0.00    +0.000 C 
ENDBRANCH  34  36
ENDBRANCH  33  34
ENDBRANCH  32  33
ENDBRANCH  28  32
ENDBRANCH  20  28
ENDBRANCH  19  23
ENDBRANCH   1  19
BRANCH   6  38
ATOM     38  C   UNL     1       1.471   3.618  18.103  0.00  0.00    +0.000 C 
BRANCH  38  39
ATOM     39  O   UNL     1       1.160   2.554  18.992  0.00  0.00    +0.000 OA
ATOM     40  H   UNL     1       0.344   2.144  18.657  0.00  0.00    +0.000 HD
ENDBRANCH  38  39
ENDBRANCH   6  38
TORSDOF 18
ENDMDL
MODEL 2
REMARK VINA RESULT:      -7.8      1.018      1.538
REMARK  Name = 
REMARK  24 active torsions:
REMARK  status: ('A' for Active; 'I' for Inactive)
REMARK    1  A    between atoms: C_1  and  C_2
REMARK    2  A    between atoms: C_2  and  C_3
REMARK    3  A    between atoms: C_2  and  C_4
REMARK    4  A    between atoms: C_4  and  C_5
REMARK    5  A    between atoms: C_5  and  C_6
REMARK    6  A    between atoms: C_6  and  C_7
REMARK    7  A    between atoms: C_7  and  C_8
REMARK    8  A    between atoms: C_7  and  O_9
REMARK    9  A    between atoms: C_7  and  C_10
REMARK   10  A    between atoms: C_13  and  C_14
REMARK   11  A    between atoms: C_14  and  C_15
REMARK   12  A    between atoms: C_17  and  C_18
REMARK   13  A    between atoms: C_18  and  C_19
REMARK   14  A    between atoms: C_18  and  O_20
REMARK   15  A    between atoms: C_18  and  C_21
REMARK   16  A    between atoms: C_21  and  C_22
REMARK   17  A    between atoms: C_22  and  C_23
REMARK   18  A    between atoms: C_23  and  C_24
REMARK   19  A    between atoms: C_24  and  C_25
REMARK   20  A    between atoms: C_24  and  C_26
REMARK   21  A    between atoms: C_27  and  O_28
REMARK   22  A    between atoms: C_30  and  C_31
REMARK   23  A    between atoms: C_31  and  O_32
REMARK   24  A    between atoms: C_34  and  O_35
REMARK                            x       y       z     vdW  Elec       q    Type
REMARK                         _______ _______ _______ _____ _____    ______ ____
ROOT
ATOM      1  C   UNL     1       3.648   4.882  19.210  0.00  0.00    +0.000 A 
ATOM      2  C   UNL     1       5.031   5.164  19.195  0.00  0.00    +0.000 A 
ATOM      3  C   UNL     1       5.887   4.872  18.126  0.00  0.00    +0.000 A 
ATOM      4  C   UNL     1       5.309   4.158  17.070  0.00  0.00    +0.000 A 
ATOM      5  C   UNL     1       3.952   3.811  17.069  0.00  0.00    +0.000 A 
ATOM      6  C   UNL     1       3.101   4.153  18.142  0.00  0.00    +0.000 A 
ENDROOT
BRANCH   3   7
ATOM      7  C   UNL     1       7.337   5.357  18.131  0.00  0.00    +0.000 C 
ATOM      8  C   UNL     1       7.945   5.480  19.548  0.00  0.00    +0.000 C 
BRANCH   7   9
ATOM      9  O   UNL     1       8.092   4.366  17.415  0.00  0.00    +0.000 OA
ATOM     10  H   UNL     1       7.623   3.519  17.531  0.00  0.00    +0.000 HD
ENDBRANCH   7   9
BRANCH   7  11
ATOM     11  C   UNL     1       7.496   6.709  17.381  0.00  0.00    +0.000 C 
BRANCH  11  12
ATOM     12  C   UNL     1       7.686   7.929  18.305  0.00  0.00    +0.000 C 
BRANCH  12  13
ATOM     13  C   UNL     1       7.839   9.221  17.501  0.00  0.00    +0.000 C 
BRANCH  13  14
ATOM     14  C   UNL     1       8.907  10.175  18.069  0.00  0.00    +0.000 C 
ATOM     15  C   UNL     1       8.531  11.649  17.891  0.00  0.00    +0.000 C 
ATOM     16  C   UNL     1       9.124   9.872  19.553  0.00  0.00    +0.000 C 
ENDBRANCH  13  14
ENDBRANCH  12  13
ENDBRANCH  11  12
ENDBRANCH   7  11
ENDBRANCH   3   7
BRANCH   4  17
ATOM     17  O   UNL     1       6.036   3.735  15.988  0.00  0.00    +0.000 OA
ATOM     18  H   UNL     1       6.950   4.060  16.114  0.00  0.00    +0.000 HD
ENDBRANCH   4  17
BRANCH   1  19
ATOM     19  C   UNL     1       2.867   5.457  20.381  0.00  0.00    +0.000 C 
BRANCH  19  23
ATOM     20  C   UNL     1       1.034   9.332  19.517  0.00  0.00    +0.000 A 
ATOM     21  C   UNL     1       0.832   8.663  20.742  0.00  0.00    +0.000 A 
ATOM     22  C   UNL     1       1.418   7.422  21.011  0.00  0.00    +0.000 A 
ATOM     23  C   UNL     1       2.256   6.815  20.076  0.00  0.00    +0.000 A 
ATOM     24  C   UNL     1       2.469   7.464  18.850  0.00  0.00    +0.000 A 
ATOM     25  C   UNL     1       1.853   8.692  18.576  0.00  0.00    +0.000 A 
BRANCH  25  26
ATOM     26  O   UNL     1       2.053   9.268  17.351  0.00  0.00    +0.000 OA
ATOM     27  H   UNL     1       2.969   9.111  17.073  0.00  0.00    +0.000 HD
ENDBRANCH  25  26
BRANCH  20  28
ATOM     28  C   UNL     1       0.369  10.687  19.243  0.00  0.00    +0.000 C 
ATOM     29  C   UNL     1       0.803  11.730  20.291  0.00  0.00    +0.000 C 
BRANCH  28  30
ATOM     30  O   UNL     1       0.820  11.193  17.964  0.00  0.00    +0.000 OA
ATOM     31  H   UNL     1       0.451  10.597  17.284  0.00  0.00    +0.000 HD
ENDBRANCH  28  30
BRANCH  28  32
ATOM     32  C   UNL     1      -1.179  10.570  19.119  0.00  0.00    +0.000 C 
BRANCH  32  33
ATOM     33  C   UNL     1      -1.775  11.633  18.185  0.00  0.00    +0.000 C 
BRANCH  33  34
ATOM     34  C   UNL     1      -3.233  11.998  18.485  0.00  0.00    +0.000 C 
BRANCH  34  36
ATOM     35  C   UNL     1      -3.394  10.879  16.217  0.00  0.00    +0.000 C 
ATOM     36  C   UNL     1      -4.161  11.632  17.304  0.00  0.00    +0.000 C 
ATOM     37  C   UNL     1      -5.371  10.800  17.744  0.00  0.00    +0.000 C 
ENDBRANCH  34  36
ENDBRANCH  33  34
ENDBRANCH  32  33
ENDBRANCH  28  32
ENDBRANCH  20  28
ENDBRANCH  19  23
ENDBRANCH   1  19
BRANCH   6  38
ATOM     38  C   UNL     1       1.644   3.772  18.016  0.00  0.00    +0.000 C 
BRANCH  38  39
ATOM     39  O   UNL     1       0.961   4.511  17.011  0.00  0.00    +0.000 OA
ATOM     40  H   UNL     1       1.172   4.084  16.163  0.00  0.00    +0.000 HD
ENDBRANCH  38  39
ENDBRANCH   6  38
TORSDOF 18
ENDMDL
MODEL 3
REMARK VINA RESULT:      -7.8      0.959      1.408
REMARK  Name = 
REMARK  24 active torsions:
REMARK  status: ('A' for Active; 'I' for Inactive)
REMARK    1  A    between atoms: C_1  and  C_2
REMARK    2  A    between atoms: C_2  and  C_3
REMARK    3  A    between atoms: C_2  and  C_4
REMARK    4  A    between atoms: C_4  and  C_5
REMARK    5  A    between atoms: C_5  and  C_6
REMARK    6  A    between atoms: C_6  and  C_7
REMARK    7  A    between atoms: C_7  and  C_8
REMARK    8  A    between atoms: C_7  and  O_9
REMARK    9  A    between atoms: C_7  and  C_10
REMARK   10  A    between atoms: C_13  and  C_14
REMARK   11  A    between atoms: C_14  and  C_15
REMARK   12  A    between atoms: C_17  and  C_18
REMARK   13  A    between atoms: C_18  and  C_19
REMARK   14  A    between atoms: C_18  and  O_20
REMARK   15  A    between atoms: C_18  and  C_21
REMARK   16  A    between atoms: C_21  and  C_22
REMARK   17  A    between atoms: C_22  and  C_23
REMARK   18  A    between atoms: C_23  and  C_24
REMARK   19  A    between atoms: C_24  and  C_25
REMARK   20  A    between atoms: C_24  and  C_26
REMARK   21  A    between atoms: C_27  and  O_28
REMARK   22  A    between atoms: C_30  and  C_31
REMARK   23  A    between atoms: C_31  and  O_32
REMARK   24  A    between atoms: C_34  and  O_35
REMARK                            x       y       z     vdW  Elec       q    Type
REMARK                         _______ _______ _______ _____ _____    ______ ____
ROOT
ATOM      1  C   UNL     1       3.610   4.925  18.872  0.00  0.00    +0.000 A 
ATOM      2  C   UNL     1       4.925   5.434  18.798  0.00  0.00    +0.000 A 
ATOM      3  C   UNL     1       5.788   5.239  17.712  0.00  0.00    +0.000 A 
ATOM      4  C   UNL     1       5.310   4.390  16.707  0.00  0.00    +0.000 A 
ATOM      5  C   UNL     1       4.031   3.821  16.768  0.00  0.00    +0.000 A 
ATOM      6  C   UNL     1       3.164   4.066  17.854  0.00  0.00    +0.000 A 
ENDROOT
BRANCH   3   7
ATOM      7  C   UNL     1       7.135   5.959  17.646  0.00  0.00    +0.000 C 
ATOM      8  C   UNL     1       8.016   5.742  18.900  0.00  0.00    +0.000 C 
BRANCH   7   9
ATOM      9  O   UNL     1       7.832   5.401  16.520  0.00  0.00    +0.000 OA
ATOM     10  H   UNL     1       8.024   6.142  15.915  0.00  0.00    +0.000 HD
ENDBRANCH   7   9
BRANCH   7  11
ATOM     11  C   UNL     1       6.964   7.482  17.393  0.00  0.00    +0.000 C 
BRANCH  11  12
ATOM     12  C   UNL     1       7.807   8.379  18.321  0.00  0.00    +0.000 C 
BRANCH  12  13
ATOM     13  C   UNL     1       8.586   9.430  17.528  0.00  0.00    +0.000 C 
BRANCH  13  14
ATOM     14  C   UNL     1       8.824  10.736  18.309  0.00  0.00    +0.000 C 
ATOM     15  C   UNL     1      10.312  11.071  18.452  0.00  0.00    +0.000 C 
ATOM     16  C   UNL     1       8.099  11.888  17.610  0.00  0.00    +0.000 C 
ENDBRANCH  13  14
ENDBRANCH  12  13
ENDBRANCH  11  12
ENDBRANCH   7  11
ENDBRANCH   3   7
BRANCH   4  17
ATOM     17  O   UNL     1       6.068   4.044  15.619  0.00  0.00    +0.000 OA
ATOM     18  H   UNL     1       5.810   3.135  15.370  0.00  0.00    +0.000 HD
ENDBRANCH   4  17
BRANCH   1  19
ATOM     19  C   UNL     1       2.775   5.416  20.045  0.00  0.00    +0.000 C 
BRANCH  19  23
ATOM     20  C   UNL     1       1.175   9.449  19.496  0.00  0.00    +0.000 A 
ATOM     21  C   UNL     1       1.106   8.776  20.733  0.00  0.00    +0.000 A 
ATOM     22  C   UNL     1       1.616   7.485  20.902  0.00  0.00    +0.000 A 
ATOM     23  C   UNL     1       2.245   6.826  19.845  0.00  0.00    +0.000 A 
ATOM     24  C   UNL     1       2.324   7.479  18.605  0.00  0.00    +0.000 A 
ATOM     25  C   UNL     1       1.782   8.760  18.437  0.00  0.00    +0.000 A 
BRANCH  25  26
ATOM     26  O   UNL     1       1.842   9.340  17.199  0.00  0.00    +0.000 OA
ATOM     27  H   UNL     1       1.072   9.060  16.680  0.00  0.00    +0.000 HD
ENDBRANCH  25  26
BRANCH  20  28
ATOM     28  C   UNL     1       0.597  10.861  19.336  0.00  0.00    +0.000 C 
ATOM     29  C   UNL     1       1.118  11.793  20.446  0.00  0.00    +0.000 C 
BRANCH  28  30
ATOM     30  O   UNL     1       1.057  11.429  18.087  0.00  0.00    +0.000 OA
ATOM     31  H   UNL     1       0.311  11.947  17.726  0.00  0.00    +0.000 HD
ENDBRANCH  28  30
BRANCH  28  32
ATOM     32  C   UNL     1      -0.958  10.853  19.238  0.00  0.00    +0.000 C 
BRANCH  32  33
ATOM     33  C   UNL     1      -1.459  11.151  17.818  0.00  0.00    +0.000 C 
BRANCH  33  34
ATOM     34  C   UNL     1      -1.896   9.915  17.025  0.00  0.00    +0.000 C 
BRANCH  34  36
ATOM     35  C   UNL     1      -3.993  11.339  16.970  0.00  0.00    +0.000 C 
ATOM     36  C   UNL     1      -3.280  10.127  16.370  0.00  0.00    +0.000 C 
ATOM     37  C   UNL     1      -3.190  10.292  14.848  0.00  0.00    +0.000 C 
ENDBRANCH  34  36
ENDBRANCH  33  34
ENDBRANCH  32  33
ENDBRANCH  28  32
ENDBRANCH  20  28
ENDBRANCH  19  23
ENDBRANCH   1  19
BRANCH   6  38
ATOM     38  C   UNL     1       1.789   3.443  17.795  0.00  0.00    +0.000 C 
BRANCH  38  39
ATOM     39  O   UNL     1       1.730   2.166  18.418  0.00  0.00    +0.000 OA
ATOM     40  H   UNL     1       2.072   2.284  19.321  0.00  0.00    +0.000 HD
ENDBRANCH  38  39
ENDBRANCH   6  38
TORSDOF 18
ENDMDL
MODEL 4
REMARK VINA RESULT:      -7.7      1.575      3.170
REMARK  Name = 
REMARK  24 active torsions:
REMARK  status: ('A' for Active; 'I' for Inactive)
REMARK    1  A    between atoms: C_1  and  C_2
REMARK    2  A    between atoms: C_2  and  C_3
REMARK    3  A    between atoms: C_2  and  C_4
REMARK    4  A    between atoms: C_4  and  C_5
REMARK    5  A    between atoms: C_5  and  C_6
REMARK    6  A    between atoms: C_6  and  C_7
REMARK    7  A    between atoms: C_7  and  C_8
REMARK    8  A    between atoms: C_7  and  O_9
REMARK    9  A    between atoms: C_7  and  C_10
REMARK   10  A    between atoms: C_13  and  C_14
REMARK   11  A    between atoms: C_14  and  C_15
REMARK   12  A    between atoms: C_17  and  C_18
REMARK   13  A    between atoms: C_18  and  C_19
REMARK   14  A    between atoms: C_18  and  O_20
REMARK   15  A    between atoms: C_18  and  C_21
REMARK   16  A    between atoms: C_21  and  C_22
REMARK   17  A    between atoms: C_22  and  C_23
REMARK   18  A    between atoms: C_23  and  C_24
REMARK   19  A    between atoms: C_24  and  C_25
REMARK   20  A    between atoms: C_24  and  C_26
REMARK   21  A    between atoms: C_27  and  O_28
REMARK   22  A    between atoms: C_30  and  C_31
REMARK   23  A    between atoms: C_31  and  O_32
REMARK   24  A    between atoms: C_34  and  O_35
REMARK                            x       y       z     vdW  Elec       q    Type
REMARK                         _______ _______ _______ _____ _____    ______ ____
ROOT
ATOM      1  C   UNL     1       3.455   5.189  19.014  0.00  0.00    +0.000 A 
ATOM      2  C   UNL     1       4.844   5.428  19.084  0.00  0.00    +0.000 A 
ATOM      3  C   UNL     1       5.737   5.220  18.025  0.00  0.00    +0.000 A 
ATOM      4  C   UNL     1       5.186   4.635  16.879  0.00  0.00    +0.000 A 
ATOM      5  C   UNL     1       3.821   4.332  16.788  0.00  0.00    +0.000 A 
ATOM      6  C   UNL     1       2.935   4.590  17.856  0.00  0.00    +0.000 A 
ENDROOT
BRANCH   3   7
ATOM      7  C   UNL     1       7.198   5.656  18.137  0.00  0.00    +0.000 C 
ATOM      8  C   UNL     1       7.707   5.748  19.595  0.00  0.00    +0.000 C 
BRANCH   7   9
ATOM      9  O   UNL     1       7.970   4.646  17.467  0.00  0.00    +0.000 OA
ATOM     10  H   UNL     1       7.994   3.873  18.062  0.00  0.00    +0.000 HD
ENDBRANCH   7   9
BRANCH   7  11
ATOM     11  C   UNL     1       7.454   7.007  17.415  0.00  0.00    +0.000 C 
BRANCH  11  12
ATOM     12  C   UNL     1       8.212   8.048  18.263  0.00  0.00    +0.000 C 
BRANCH  12  13
ATOM     13  C   UNL     1       8.162   9.436  17.623  0.00  0.00    +0.000 C 
BRANCH  13  14
ATOM     14  C   UNL     1       8.800  10.536  18.492  0.00  0.00    +0.000 C 
ATOM     15  C   UNL     1       9.267  10.011  19.853  0.00  0.00    +0.000 C 
ATOM     16  C   UNL     1       9.981  11.157  17.743  0.00  0.00    +0.000 C 
ENDBRANCH  13  14
ENDBRANCH  12  13
ENDBRANCH  11  12
ENDBRANCH   7  11
ENDBRANCH   3   7
BRANCH   4  17
ATOM     17  O   UNL     1       5.947   4.301  15.789  0.00  0.00    +0.000 OA
ATOM     18  H   UNL     1       6.875   4.254  16.093  0.00  0.00    +0.000 HD
ENDBRANCH   4  17
BRANCH   1  19
ATOM     19  C   UNL     1       2.640   5.666  20.207  0.00  0.00    +0.000 C 
BRANCH  19  23
ATOM     20  C   UNL     1       0.979   9.679  19.695  0.00  0.00    +0.000 A 
ATOM     21  C   UNL     1       0.795   8.937  20.879  0.00  0.00    +0.000 A 
ATOM     22  C   UNL     1       1.326   7.652  21.036  0.00  0.00    +0.000 A 
ATOM     23  C   UNL     1       2.089   7.071  20.023  0.00  0.00    +0.000 A 
ATOM     24  C   UNL     1       2.284   7.793  18.836  0.00  0.00    +0.000 A 
ATOM     25  C   UNL     1       1.723   9.067  18.676  0.00  0.00    +0.000 A 
BRANCH  25  26
ATOM     26  O   UNL     1       1.900   9.717  17.485  0.00  0.00    +0.000 OA
ATOM     27  H   UNL     1       1.448   9.223  16.783  0.00  0.00    +0.000 HD
ENDBRANCH  25  26
BRANCH  20  28
ATOM     28  C   UNL     1       0.376  11.082  19.545  0.00  0.00    +0.000 C 
ATOM     29  C   UNL     1      -0.505  11.165  18.284  0.00  0.00    +0.000 C 
BRANCH  28  30
ATOM     30  O   UNL     1      -0.501  11.349  20.665  0.00  0.00    +0.000 OA
ATOM     31  H   UNL     1      -1.409  11.379  20.306  0.00  0.00    +0.000 HD
ENDBRANCH  28  30
BRANCH  28  32
ATOM     32  C   UNL     1       1.461  12.198  19.595  0.00  0.00    +0.000 C 
BRANCH  32  33
ATOM     33  C   UNL     1       1.346  13.181  18.421  0.00  0.00    +0.000 C 
BRANCH  33  34
ATOM     34  C   UNL     1       0.938  14.604  18.820  0.00  0.00    +0.000 C 
BRANCH  34  36
ATOM     35  C   UNL     1       2.855  15.593  20.151  0.00  0.00    +0.000 C 
ATOM     36  C   UNL     1       2.148  15.565  18.795  0.00  0.00    +0.000 C 
ATOM     37  C   UNL     1       3.161  15.207  17.701  0.00  0.00    +0.000 C 
ENDBRANCH  34  36
ENDBRANCH  33  34
ENDBRANCH  32  33
ENDBRANCH  28  32
ENDBRANCH  20  28
ENDBRANCH  19  23
ENDBRANCH   1  19
BRANCH   6  38
ATOM     38  C   UNL     1       1.474   4.270  17.634  0.00  0.00    +0.000 C 
BRANCH  38  39
ATOM     39  O   UNL     1       1.120   2.961  18.062  0.00  0.00    +0.000 OA
ATOM     40  H   UNL     1       0.485   3.071  18.790  0.00  0.00    +0.000 HD
ENDBRANCH  38  39
ENDBRANCH   6  38
TORSDOF 18
ENDMDL
MODEL 5
REMARK VINA RESULT:      -7.7      1.289      1.795
REMARK  Name = 
REMARK  24 active torsions:
REMARK  status: ('A' for Active; 'I' for Inactive)
REMARK    1  A    between atoms: C_1  and  C_2
REMARK    2  A    between atoms: C_2  and  C_3
REMARK    3  A    between atoms: C_2  and  C_4
REMARK    4  A    between atoms: C_4  and  C_5
REMARK    5  A    between atoms: C_5  and  C_6
REMARK    6  A    between atoms: C_6  and  C_7
REMARK    7  A    between atoms: C_7  and  C_8
REMARK    8  A    between atoms: C_7  and  O_9
REMARK    9  A    between atoms: C_7  and  C_10
REMARK   10  A    between atoms: C_13  and  C_14
REMARK   11  A    between atoms: C_14  and  C_15
REMARK   12  A    between atoms: C_17  and  C_18
REMARK   13  A    between atoms: C_18  and  C_19
REMARK   14  A    between atoms: C_18  and  O_20
REMARK   15  A    between atoms: C_18  and  C_21
REMARK   16  A    between atoms: C_21  and  C_22
REMARK   17  A    between atoms: C_22  and  C_23
REMARK   18  A    between atoms: C_23  and  C_24
REMARK   19  A    between atoms: C_24  and  C_25
REMARK   20  A    between atoms: C_24  and  C_26
REMARK   21  A    between atoms: C_27  and  O_28
REMARK   22  A    between atoms: C_30  and  C_31
REMARK   23  A    between atoms: C_31  and  O_32
REMARK   24  A    between atoms: C_34  and  O_35
REMARK                            x       y       z     vdW  Elec       q    Type
REMARK                         _______ _______ _______ _____ _____    ______ ____
ROOT
ATOM      1  C   UNL     1       3.711   5.149  18.882  0.00  0.00    +0.000 A 
ATOM      2  C   UNL     1       4.983   5.756  18.813  0.00  0.00    +0.000 A 
ATOM      3  C   UNL     1       5.875   5.605  17.743  0.00  0.00    +0.000 A 
ATOM      4  C   UNL     1       5.478   4.699  16.752  0.00  0.00    +0.000 A 
ATOM      5  C   UNL     1       4.246   4.034  16.810  0.00  0.00    +0.000 A 
ATOM      6  C   UNL     1       3.347   4.236  17.880  0.00  0.00    +0.000 A 
ENDROOT
BRANCH   3   7
ATOM      7  C   UNL     1       7.163   6.425  17.677  0.00  0.00    +0.000 C 
ATOM      8  C   UNL     1       8.210   6.022  18.743  0.00  0.00    +0.000 C 
BRANCH   7   9
ATOM      9  O   UNL     1       7.735   6.169  16.384  0.00  0.00    +0.000 OA
ATOM     10  H   UNL     1       7.138   6.575  15.729  0.00  0.00    +0.000 HD
ENDBRANCH   7   9
BRANCH   7  11
ATOM     11  C   UNL     1       6.882   7.949  17.780  0.00  0.00    +0.000 C 
BRANCH  11  12
ATOM     12  C   UNL     1       8.124   8.839  17.570  0.00  0.00    +0.000 C 
BRANCH  12  13
ATOM     13  C   UNL     1       8.735   9.272  18.904  0.00  0.00    +0.000 C 
BRANCH  13  14
ATOM     14  C   UNL     1       9.506  10.602  18.824  0.00  0.00    +0.000 C 
ATOM     15  C   UNL     1       8.835  11.613  17.889  0.00  0.00    +0.000 C 
ATOM     16  C   UNL     1       9.637  11.202  20.225  0.00  0.00    +0.000 C 
ENDBRANCH  13  14
ENDBRANCH  12  13
ENDBRANCH  11  12
ENDBRANCH   7  11
ENDBRANCH   3   7
BRANCH   4  17
ATOM     17  O   UNL     1       6.276   4.388  15.682  0.00  0.00    +0.000 OA
ATOM     18  H   UNL     1       6.972   5.073  15.638  0.00  0.00    +0.000 HD
ENDBRANCH   4  17
BRANCH   1  19
ATOM     19  C   UNL     1       2.824   5.600  20.033  0.00  0.00    +0.000 C 
BRANCH  19  23
ATOM     20  C   UNL     1       0.954   9.499  19.378  0.00  0.00    +0.000 A 
ATOM     21  C   UNL     1       0.811   8.793  20.589  0.00  0.00    +0.000 A 
ATOM     22  C   UNL     1       1.408   7.544  20.792  0.00  0.00    +0.000 A 
ATOM     23  C   UNL     1       2.200   6.966  19.799  0.00  0.00    +0.000 A 
ATOM     24  C   UNL     1       2.354   7.654  18.585  0.00  0.00    +0.000 A 
ATOM     25  C   UNL     1       1.727   8.889  18.379  0.00  0.00    +0.000 A 
BRANCH  25  26
ATOM     26  O   UNL     1       1.869   9.503  17.164  0.00  0.00    +0.000 OA
ATOM     27  H   UNL     1       1.023   9.469  16.692  0.00  0.00    +0.000 HD
ENDBRANCH  25  26
BRANCH  20  28
ATOM     28  C   UNL     1       0.278  10.862  19.178  0.00  0.00    +0.000 C 
ATOM     29  C   UNL     1      -0.023  11.526  20.535  0.00  0.00    +0.000 C 
BRANCH  28  30
ATOM     30  O   UNL     1       1.187  11.752  18.489  0.00  0.00    +0.000 OA
ATOM     31  H   UNL     1       1.119  12.619  18.935  0.00  0.00    +0.000 HD
ENDBRANCH  28  30
BRANCH  28  32
ATOM     32  C   UNL     1      -0.980  10.767  18.264  0.00  0.00    +0.000 C 
BRANCH  32  33
ATOM     33  C   UNL     1      -2.107  11.705  18.717  0.00  0.00    +0.000 C 
BRANCH  33  34
ATOM     34  C   UNL     1      -3.336  11.713  17.802  0.00  0.00    +0.000 C 
BRANCH  34  36
ATOM     35  C   UNL     1      -4.730  12.532  19.753  0.00  0.00    +0.000 C 
ATOM     36  C   UNL     1      -4.641  11.523  18.608  0.00  0.00    +0.000 C 
ATOM     37  C   UNL     1      -5.894  11.635  17.732  0.00  0.00    +0.000 C 
ENDBRANCH  34  36
ENDBRANCH  33  34
ENDBRANCH  32  33
ENDBRANCH  28  32
ENDBRANCH  20  28
ENDBRANCH  19  23
ENDBRANCH   1  19
BRANCH   6  38
ATOM     38  C   UNL     1       2.025   3.506  17.818  0.00  0.00    +0.000 C 
BRANCH  38  39
ATOM     39  O   UNL     1       0.981   4.293  17.259  0.00  0.00    +0.000 OA
ATOM     40  H   UNL     1       1.232   5.223  17.397  0.00  0.00    +0.000 HD
ENDBRANCH  38  39
ENDBRANCH   6  38
TORSDOF 18
ENDMDL
MODEL 6
REMARK VINA RESULT:      -7.6      1.533      2.997
REMARK  Name = 
REMARK  24 active torsions:
REMARK  status: ('A' for Active; 'I' for Inactive)
REMARK    1  A    between atoms: C_1  and  C_2
REMARK    2  A    between atoms: C_2  and  C_3
REMARK    3  A    between atoms: C_2  and  C_4
REMARK    4  A    between atoms: C_4  and  C_5
REMARK    5  A    between atoms: C_5  and  C_6
REMARK    6  A    between atoms: C_6  and  C_7
REMARK    7  A    between atoms: C_7  and  C_8
REMARK    8  A    between atoms: C_7  and  O_9
REMARK    9  A    between atoms: C_7  and  C_10
REMARK   10  A    between atoms: C_13  and  C_14
REMARK   11  A    between atoms: C_14  and  C_15
REMARK   12  A    between atoms: C_17  and  C_18
REMARK   13  A    between atoms: C_18  and  C_19
REMARK   14  A    between atoms: C_18  and  O_20
REMARK   15  A    between atoms: C_18  and  C_21
REMARK   16  A    between atoms: C_21  and  C_22
REMARK   17  A    between atoms: C_22  and  C_23
REMARK   18  A    between atoms: C_23  and  C_24
REMARK   19  A    between atoms: C_24  and  C_25
REMARK   20  A    between atoms: C_24  and  C_26
REMARK   21  A    between atoms: C_27  and  O_28
REMARK   22  A    between atoms: C_30  and  C_31
REMARK   23  A    between atoms: C_31  and  O_32
REMARK   24  A    between atoms: C_34  and  O_35
REMARK                            x       y       z     vdW  Elec       q    Type
REMARK                         _______ _______ _______ _____ _____    ______ ____
ROOT
ATOM      1  C   UNL     1       3.470   5.037  19.075  0.00  0.00    +0.000 A 
ATOM      2  C   UNL     1       4.846   5.344  19.130  0.00  0.00    +0.000 A 
ATOM      3  C   UNL     1       5.757   5.078  18.100  0.00  0.00    +0.000 A 
ATOM      4  C   UNL     1       5.243   4.364  17.011  0.00  0.00    +0.000 A 
ATOM      5  C   UNL     1       3.894   3.993  16.942  0.00  0.00    +0.000 A 
ATOM      6  C   UNL     1       2.987   4.309  17.976  0.00  0.00    +0.000 A 
ENDROOT
BRANCH   3   7
ATOM      7  C   UNL     1       7.196   5.588  18.178  0.00  0.00    +0.000 C 
ATOM      8  C   UNL     1       7.753   5.652  19.620  0.00  0.00    +0.000 C 
BRANCH   7   9
ATOM      9  O   UNL     1       7.995   4.646  17.443  0.00  0.00    +0.000 OA
ATOM     10  H   UNL     1       7.374   4.042  16.995  0.00  0.00    +0.000 HD
ENDBRANCH   7   9
BRANCH   7  11
ATOM     11  C   UNL     1       7.354   6.977  17.501  0.00  0.00    +0.000 C 
BRANCH  11  12
ATOM     12  C   UNL     1       8.232   7.971  18.287  0.00  0.00    +0.000 C 
BRANCH  12  13
ATOM     13  C   UNL     1       8.306   9.329  17.586  0.00  0.00    +0.000 C 
BRANCH  13  14
ATOM     14  C   UNL     1       8.445  10.515  18.558  0.00  0.00    +0.000 C 
ATOM     15  C   UNL     1       9.414  10.221  19.708  0.00  0.00    +0.000 C 
ATOM     16  C   UNL     1       8.913  11.753  17.790  0.00  0.00    +0.000 C 
ENDBRANCH  13  14
ENDBRANCH  12  13
ENDBRANCH  11  12
ENDBRANCH   7  11
ENDBRANCH   3   7
BRANCH   4  17
ATOM     17  O   UNL     1       6.029   3.964  15.961  0.00  0.00    +0.000 OA
ATOM     18  H   UNL     1       6.935   3.851  16.311  0.00  0.00    +0.000 HD
ENDBRANCH   4  17
BRANCH   1  19
ATOM     19  C   UNL     1       2.623   5.587  20.213  0.00  0.00    +0.000 C 
BRANCH  19  23
ATOM     20  C   UNL     1       1.185   9.659  19.522  0.00  0.00    +0.000 A 
ATOM     21  C   UNL     1       1.037   9.012  20.766  0.00  0.00    +0.000 A 
ATOM     22  C   UNL     1       1.496   7.708  20.980  0.00  0.00    +0.000 A 
ATOM     23  C   UNL     1       2.150   7.010  19.965  0.00  0.00    +0.000 A 
ATOM     24  C   UNL     1       2.306   7.636  18.719  0.00  0.00    +0.000 A 
ATOM     25  C   UNL     1       1.816   8.930  18.503  0.00  0.00    +0.000 A 
BRANCH  25  26
ATOM     26  O   UNL     1       1.950   9.484  17.259  0.00  0.00    +0.000 OA
ATOM     27  H   UNL     1       1.232  10.120  17.116  0.00  0.00    +0.000 HD
ENDBRANCH  25  26
BRANCH  20  28
ATOM     28  C   UNL     1       0.661  11.085  19.310  0.00  0.00    +0.000 C 
ATOM     29  C   UNL     1      -0.639  11.072  18.484  0.00  0.00    +0.000 C 
BRANCH  28  30
ATOM     30  O   UNL     1       0.316  11.664  20.591  0.00  0.00    +0.000 OA
ATOM     31  H   UNL     1      -0.414  11.125  20.952  0.00  0.00    +0.000 HD
ENDBRANCH  28  30
BRANCH  28  32
ATOM     32  C   UNL     1       1.746  12.028  18.709  0.00  0.00    +0.000 C 
BRANCH  32  33
ATOM     33  C   UNL     1       1.813  13.381  19.431  0.00  0.00    +0.000 C 
BRANCH  33  34
ATOM     34  C   UNL     1       1.382  14.579  18.579  0.00  0.00    +0.000 C 
BRANCH  34  36
ATOM     35  C   UNL     1      -0.378  16.395  18.753  0.00  0.00    +0.000 C 
ATOM     36  C   UNL     1       0.797  15.712  19.453  0.00  0.00    +0.000 C 
ATOM     37  C   UNL     1       0.349  15.218  20.833  0.00  0.00    +0.000 C 
ENDBRANCH  34  36
ENDBRANCH  33  34
ENDBRANCH  32  33
ENDBRANCH  28  32
ENDBRANCH  20  28
ENDBRANCH  19  23
ENDBRANCH   1  19
BRANCH   6  38
ATOM     38  C   UNL     1       1.545   3.905  17.777  0.00  0.00    +0.000 C 
BRANCH  38  39
ATOM     39  O   UNL     1       1.316   2.522  18.018  0.00  0.00    +0.000 OA
ATOM     40  H   UNL     1       1.156   2.114  17.150  0.00  0.00    +0.000 HD
ENDBRANCH  38  39
ENDBRANCH   6  38
TORSDOF 18
ENDMDL
MODEL 7
REMARK VINA RESULT:      -7.6      0.789      1.159
REMARK  Name = 
REMARK  24 active torsions:
REMARK  status: ('A' for Active; 'I' for Inactive)
REMARK    1  A    between atoms: C_1  and  C_2
REMARK    2  A    between atoms: C_2  and  C_3
REMARK    3  A    between atoms: C_2  and  C_4
REMARK    4  A    between atoms: C_4  and  C_5
REMARK    5  A    between atoms: C_5  and  C_6
REMARK    6  A    between atoms: C_6  and  C_7
REMARK    7  A    between atoms: C_7  and  C_8
REMARK    8  A    between atoms: C_7  and  O_9
REMARK    9  A    between atoms: C_7  and  C_10
REMARK   10  A    between atoms: C_13  and  C_14
REMARK   11  A    between atoms: C_14  and  C_15
REMARK   12  A    between atoms: C_17  and  C_18
REMARK   13  A    between atoms: C_18  and  C_19
REMARK   14  A    between atoms: C_18  and  O_20
REMARK   15  A    between atoms: C_18  and  C_21
REMARK   16  A    between atoms: C_21  and  C_22
REMARK   17  A    between atoms: C_22  and  C_23
REMARK   18  A    between atoms: C_23  and  C_24
REMARK   19  A    between atoms: C_24  and  C_25
REMARK   20  A    between atoms: C_24  and  C_26
REMARK   21  A    between atoms: C_27  and  O_28
REMARK   22  A    between atoms: C_30  and  C_31
REMARK   23  A    between atoms: C_31  and  O_32
REMARK   24  A    between atoms: C_34  and  O_35
REMARK                            x       y       z     vdW  Elec       q    Type
REMARK                         _______ _______ _______ _____ _____    ______ ____
ROOT
ATOM      1  C   UNL     1       3.650   5.025  18.896  0.00  0.00    +0.000 A 
ATOM      2  C   UNL     1       5.035   5.296  18.920  0.00  0.00    +0.000 A 
ATOM      3  C   UNL     1       5.883   5.179  17.811  0.00  0.00    +0.000 A 
ATOM      4  C   UNL     1       5.293   4.656  16.655  0.00  0.00    +0.000 A 
ATOM      5  C   UNL     1       3.933   4.324  16.605  0.00  0.00    +0.000 A 
ATOM      6  C   UNL     1       3.091   4.489  17.725  0.00  0.00    +0.000 A 
ENDROOT
BRANCH   3   7
ATOM      7  C   UNL     1       7.337   5.645  17.888  0.00  0.00    +0.000 C 
ATOM      8  C   UNL     1       7.893   5.707  19.330  0.00  0.00    +0.000 C 
BRANCH   7   9
ATOM      9  O   UNL     1       8.107   4.672  17.163  0.00  0.00    +0.000 OA
ATOM     10  H   UNL     1       8.786   4.339  17.779  0.00  0.00    +0.000 HD
ENDBRANCH   7   9
BRANCH   7  11
ATOM     11  C   UNL     1       7.539   7.022  17.197  0.00  0.00    +0.000 C 
BRANCH  11  12
ATOM     12  C   UNL     1       7.832   8.183  18.168  0.00  0.00    +0.000 C 
BRANCH  12  13
ATOM     13  C   UNL     1       8.438   9.383  17.438  0.00  0.00    +0.000 C 
BRANCH  13  14
ATOM     14  C   UNL     1       8.867  10.522  18.382  0.00  0.00    +0.000 C 
ATOM     15  C   UNL     1       9.263  10.014  19.772  0.00  0.00    +0.000 C 
ATOM     16  C   UNL     1      10.035  11.289  17.759  0.00  0.00    +0.000 C 
ENDBRANCH  13  14
ENDBRANCH  12  13
ENDBRANCH  11  12
ENDBRANCH   7  11
ENDBRANCH   3   7
BRANCH   4  17
ATOM     17  O   UNL     1       6.011   4.412  15.513  0.00  0.00    +0.000 OA
ATOM     18  H   UNL     1       6.872   4.040  15.791  0.00  0.00    +0.000 HD
ENDBRANCH   4  17
BRANCH   1  19
ATOM     19  C   UNL     1       2.880   5.404  20.152  0.00  0.00    +0.000 C 
BRANCH  19  23
ATOM     20  C   UNL     1       1.045   9.361  19.838  0.00  0.00    +0.000 A 
ATOM     21  C   UNL     1       1.684   8.741  18.745  0.00  0.00    +0.000 A 
ATOM     22  C   UNL     1       2.272   7.477  18.852  0.00  0.00    +0.000 A 
ATOM     23  C   UNL     1       2.217   6.768  20.052  0.00  0.00    +0.000 A 
ATOM     24  C   UNL     1       1.586   7.368  21.152  0.00  0.00    +0.000 A 
ATOM     25  C   UNL     1       1.027   8.647  21.045  0.00  0.00    +0.000 A 
BRANCH  25  26
ATOM     26  O   UNL     1       0.461   9.212  22.156  0.00  0.00    +0.000 OA
ATOM     27  H   UNL     1       1.145   9.687  22.653  0.00  0.00    +0.000 HD
ENDBRANCH  25  26
BRANCH  20  28
ATOM     28  C   UNL     1       0.418  10.754  19.696  0.00  0.00    +0.000 C 
ATOM     29  C   UNL     1      -0.682  10.968  20.752  0.00  0.00    +0.000 C 
BRANCH  28  30
ATOM     30  O   UNL     1       1.424  11.761  19.956  0.00  0.00    +0.000 OA
ATOM     31  H   UNL     1       1.480  12.313  19.151  0.00  0.00    +0.000 HD
ENDBRANCH  28  30
BRANCH  28  32
ATOM     32  C   UNL     1      -0.079  11.031  18.246  0.00  0.00    +0.000 C 
BRANCH  32  33
ATOM     33  C   UNL     1      -1.595  10.839  18.098  0.00  0.00    +0.000 C 
BRANCH  33  34
ATOM     34  C   UNL     1      -2.014   9.983  16.899  0.00  0.00    +0.000 C 
BRANCH  34  36
ATOM     35  C   UNL     1      -2.996  10.043  14.563  0.00  0.00    +0.000 C 
ATOM     36  C   UNL     1      -2.836  10.804  15.879  0.00  0.00    +0.000 C 
ATOM     37  C   UNL     1      -4.219  11.191  16.415  0.00  0.00    +0.000 C 
ENDBRANCH  34  36
ENDBRANCH  33  34
ENDBRANCH  32  33
ENDBRANCH  28  32
ENDBRANCH  20  28
ENDBRANCH  19  23
ENDBRANCH   1  19
BRANCH   6  38
ATOM     38  C   UNL     1       1.629   4.146  17.547  0.00  0.00    +0.000 C 
BRANCH  38  39
ATOM     39  O   UNL     1       1.296   2.856  18.043  0.00  0.00    +0.000 OA
ATOM     40  H   UNL     1       0.933   2.989  18.935  0.00  0.00    +0.000 HD
ENDBRANCH  38  39
ENDBRANCH   6  38
TORSDOF 18
ENDMDL
MODEL 8
REMARK VINA RESULT:      -7.6      1.780      2.460
REMARK  Name = 
REMARK  24 active torsions:
REMARK  status: ('A' for Active; 'I' for Inactive)
REMARK    1  A    between atoms: C_1  and  C_2
REMARK    2  A    between atoms: C_2  and  C_3
REMARK    3  A    between atoms: C_2  and  C_4
REMARK    4  A    between atoms: C_4  and  C_5
REMARK    5  A    between atoms: C_5  and  C_6
REMARK    6  A    between atoms: C_6  and  C_7
REMARK    7  A    between atoms: C_7  and  C_8
REMARK    8  A    between atoms: C_7  and  O_9
REMARK    9  A    between atoms: C_7  and  C_10
REMARK   10  A    between atoms: C_13  and  C_14
REMARK   11  A    between atoms: C_14  and  C_15
REMARK   12  A    between atoms: C_17  and  C_18
REMARK   13  A    between atoms: C_18  and  C_19
REMARK   14  A    between atoms: C_18  and  O_20
REMARK   15  A    between atoms: C_18  and  C_21
REMARK   16  A    between atoms: C_21  and  C_22
REMARK   17  A    between atoms: C_22  and  C_23
REMARK   18  A    between atoms: C_23  and  C_24
REMARK   19  A    between atoms: C_24  and  C_25
REMARK   20  A    between atoms: C_24  and  C_26
REMARK   21  A    between atoms: C_27  and  O_28
REMARK   22  A    between atoms: C_30  and  C_31
REMARK   23  A    between atoms: C_31  and  O_32
REMARK   24  A    between atoms: C_34  and  O_35
REMARK                            x       y       z     vdW  Elec       q    Type
REMARK                         _______ _______ _______ _____ _____    ______ ____
ROOT
ATOM      1  C   UNL     1       3.589   5.126  18.882  0.00  0.00    +0.000 A 
ATOM      2  C   UNL     1       4.866   5.723  18.816  0.00  0.00    +0.000 A 
ATOM      3  C   UNL     1       5.766   5.550  17.757  0.00  0.00    +0.000 A 
ATOM      4  C   UNL     1       5.372   4.634  16.775  0.00  0.00    +0.000 A 
ATOM      5  C   UNL     1       4.134   3.980  16.830  0.00  0.00    +0.000 A 
ATOM      6  C   UNL     1       3.227   4.202  17.888  0.00  0.00    +0.000 A 
ENDROOT
BRANCH   3   7
ATOM      7  C   UNL     1       7.061   6.360  17.692  0.00  0.00    +0.000 C 
ATOM      8  C   UNL     1       8.117   5.926  18.737  0.00  0.00    +0.000 C 
BRANCH   7   9
ATOM      9  O   UNL     1       7.615   6.124  16.387  0.00  0.00    +0.000 OA
ATOM     10  H   UNL     1       7.184   5.321  16.041  0.00  0.00    +0.000 HD
ENDBRANCH   7   9
BRANCH   7  11
ATOM     11  C   UNL     1       6.796   7.884  17.828  0.00  0.00    +0.000 C 
BRANCH  11  12
ATOM     12  C   UNL     1       8.023   8.771  17.537  0.00  0.00    +0.000 C 
BRANCH  12  13
ATOM     13  C   UNL     1       8.769   9.134  18.823  0.00  0.00    +0.000 C 
BRANCH  13  14
ATOM     14  C   UNL     1       9.442  10.519  18.772  0.00  0.00    +0.000 C 
ATOM     15  C   UNL     1       8.679  11.509  17.886  0.00  0.00    +0.000 C 
ATOM     16  C   UNL     1       9.563  11.080  20.190  0.00  0.00    +0.000 C 
ENDBRANCH  13  14
ENDBRANCH  12  13
ENDBRANCH  11  12
ENDBRANCH   7  11
ENDBRANCH   3   7
BRANCH   4  17
ATOM     17  O   UNL     1       6.178   4.303  15.716  0.00  0.00    +0.000 OA
ATOM     18  H   UNL     1       5.602   4.244  14.928  0.00  0.00    +0.000 HD
ENDBRANCH   4  17
BRANCH   1  19
ATOM     19  C   UNL     1       2.695   5.599  20.018  0.00  0.00    +0.000 C 
BRANCH  19  23
ATOM     20  C   UNL     1       1.095   9.627  19.433  0.00  0.00    +0.000 A 
ATOM     21  C   UNL     1       0.966   8.940  20.657  0.00  0.00    +0.000 A 
ATOM     22  C   UNL     1       1.477   7.650  20.837  0.00  0.00    +0.000 A 
ATOM     23  C   UNL     1       2.165   7.008  19.807  0.00  0.00    +0.000 A 
ATOM     24  C   UNL     1       2.303   7.676  18.581  0.00  0.00    +0.000 A 
ATOM     25  C   UNL     1       1.761   8.955  18.399  0.00  0.00    +0.000 A 
BRANCH  25  26
ATOM     26  O   UNL     1       1.881   9.550  17.172  0.00  0.00    +0.000 OA
ATOM     27  H   UNL     1       2.806   9.503  16.886  0.00  0.00    +0.000 HD
ENDBRANCH  25  26
BRANCH  20  28
ATOM     28  C   UNL     1       0.515  11.037  19.259  0.00  0.00    +0.000 C 
ATOM     29  C   UNL     1       1.642  12.082  19.154  0.00  0.00    +0.000 C 
BRANCH  28  30
ATOM     30  O   UNL     1      -0.213  11.105  18.010  0.00  0.00    +0.000 OA
ATOM     31  H   UNL     1      -0.590  10.217  17.859  0.00  0.00    +0.000 HD
ENDBRANCH  28  30
BRANCH  28  32
ATOM     32  C   UNL     1      -0.527  11.386  20.364  0.00  0.00    +0.000 C 
BRANCH  32  33
ATOM     33  C   UNL     1      -1.881  11.812  19.780  0.00  0.00    +0.000 C 
BRANCH  33  34
ATOM     34  C   UNL     1      -2.440  13.117  20.355  0.00  0.00    +0.000 C 
BRANCH  34  36
ATOM     35  C   UNL     1      -3.442  12.554  22.614  0.00  0.00    +0.000 C 
ATOM     36  C   UNL     1      -3.743  12.871  21.149  0.00  0.00    +0.000 C 
ATOM     37  C   UNL     1      -4.710  14.058  21.074  0.00  0.00    +0.000 C 
ENDBRANCH  34  36
ENDBRANCH  33  34
ENDBRANCH  32  33
ENDBRANCH  28  32
ENDBRANCH  20  28
ENDBRANCH  19  23
ENDBRANCH   1  19
BRANCH   6  38
ATOM     38  C   UNL     1       1.900   3.482  17.824  0.00  0.00    +0.000 C 
BRANCH  38  39
ATOM     39  O   UNL     1       0.884   4.243  17.184  0.00  0.00    +0.000 OA
ATOM     40  H   UNL     1       1.319   4.735  16.467  0.00  0.00    +0.000 HD
ENDBRANCH  38  39
ENDBRANCH   6  38
TORSDOF 18
ENDMDL
MODEL 9
REMARK VINA RESULT:      -7.5      2.211      4.038
REMARK  Name = 
REMARK  24 active torsions:
REMARK  status: ('A' for Active; 'I' for Inactive)
REMARK    1  A    between atoms: C_1  and  C_2
REMARK    2  A    between atoms: C_2  and  C_3
REMARK    3  A    between atoms: C_2  and  C_4
REMARK    4  A    between atoms: C_4  and  C_5
REMARK    5  A    between atoms: C_5  and  C_6
REMARK    6  A    between atoms: C_6  and  C_7
REMARK    7  A    between atoms: C_7  and  C_8
REMARK    8  A    between atoms: C_7  and  O_9
REMARK    9  A    between atoms: C_7  and  C_10
REMARK   10  A    between atoms: C_13  and  C_14
REMARK   11  A    between atoms: C_14  and  C_15
REMARK   12  A    between atoms: C_17  and  C_18
REMARK   13  A    between atoms: C_18  and  C_19
REMARK   14  A    between atoms: C_18  and  O_20
REMARK   15  A    between atoms: C_18  and  C_21
REMARK   16  A    between atoms: C_21  and  C_22
REMARK   17  A    between atoms: C_22  and  C_23
REMARK   18  A    between atoms: C_23  and  C_24
REMARK   19  A    between atoms: C_24  and  C_25
REMARK   20  A    between atoms: C_24  and  C_26
REMARK   21  A    between atoms: C_27  and  O_28
REMARK   22  A    between atoms: C_30  and  C_31
REMARK   23  A    between atoms: C_31  and  O_32
REMARK   24  A    between atoms: C_34  and  O_35
REMARK                            x       y       z     vdW  Elec       q    Type
REMARK                         _______ _______ _______ _____ _____    ______ ____
ROOT
ATOM      1  C   UNL     1       2.819   5.362  19.709  0.00  0.00    +0.000 A 
ATOM      2  C   UNL     1       4.002   5.544  18.960  0.00  0.00    +0.000 A 
ATOM      3  C   UNL     1       4.331   4.815  17.810  0.00  0.00    +0.000 A 
ATOM      4  C   UNL     1       3.450   3.778  17.483  0.00  0.00    +0.000 A 
ATOM      5  C   UNL     1       2.292   3.528  18.231  0.00  0.00    +0.000 A 
ATOM      6  C   UNL     1       1.962   4.305  19.363  0.00  0.00    +0.000 A 
ENDROOT
BRANCH   3   7
ATOM      7  C   UNL     1       5.554   5.187  16.973  0.00  0.00    +0.000 C 
ATOM      8  C   UNL     1       6.284   6.457  17.472  0.00  0.00    +0.000 C 
BRANCH   7   9
ATOM      9  O   UNL     1       6.468   4.084  17.087  0.00  0.00    +0.000 OA
ATOM     10  H   UNL     1       7.367   4.464  17.082  0.00  0.00    +0.000 HD
ENDBRANCH   7   9
BRANCH   7  11
ATOM     11  C   UNL     1       5.196   5.354  15.470  0.00  0.00    +0.000 C 
BRANCH  11  12
ATOM     12  C   UNL     1       6.346   5.014  14.501  0.00  0.00    +0.000 C 
BRANCH  12  13
ATOM     13  C   UNL     1       6.153   3.635  13.866  0.00  0.00    +0.000 C 
BRANCH  13  14
ATOM     14  C   UNL     1       6.077   3.673  12.329  0.00  0.00    +0.000 C 
ATOM     15  C   UNL     1       6.950   2.599  11.671  0.00  0.00    +0.000 C 
ATOM     16  C   UNL     1       4.623   3.501  11.885  0.00  0.00    +0.000 C 
ENDBRANCH  13  14
ENDBRANCH  12  13
ENDBRANCH  11  12
ENDBRANCH   7  11
ENDBRANCH   3   7
BRANCH   4  17
ATOM     17  O   UNL     1       3.677   2.929  16.430  0.00  0.00    +0.000 OA
ATOM     18  H   UNL     1       4.645   2.805  16.368  0.00  0.00    +0.000 HD
ENDBRANCH   4  17
BRANCH   1  19
ATOM     19  C   UNL     1       2.563   6.387  20.802  0.00  0.00    +0.000 C 
BRANCH  19  23
ATOM     20  C   UNL     1       0.342   9.874  19.376  0.00  0.00    +0.000 A 
ATOM     21  C   UNL     1       0.128   9.320  20.654  0.00  0.00    +0.000 A 
ATOM     22  C   UNL     1       0.839   8.202  21.104  0.00  0.00    +0.000 A 
ATOM     23  C   UNL     1       1.816   7.613  20.302  0.00  0.00    +0.000 A 
ATOM     24  C   UNL     1       2.043   8.149  19.025  0.00  0.00    +0.000 A 
ATOM     25  C   UNL     1       1.305   9.249  18.571  0.00  0.00    +0.000 A 
BRANCH  25  26
ATOM     26  O   UNL     1       1.529   9.711  17.302  0.00  0.00    +0.000 OA
ATOM     27  H   UNL     1       2.002   9.032  16.796  0.00  0.00    +0.000 HD
ENDBRANCH  25  26
BRANCH  20  28
ATOM     28  C   UNL     1      -0.460  11.093  18.903  0.00  0.00    +0.000 C 
ATOM     29  C   UNL     1      -0.953  11.922  20.106  0.00  0.00    +0.000 C 
BRANCH  28  30
ATOM     30  O   UNL     1       0.402  11.969  18.140  0.00  0.00    +0.000 OA
ATOM     31  H   UNL     1      -0.004  12.058  17.255  0.00  0.00    +0.000 HD
ENDBRANCH  28  30
BRANCH  28  32
ATOM     32  C   UNL     1      -1.613  10.700  17.932  0.00  0.00    +0.000 C 
BRANCH  32  33
ATOM     33  C   UNL     1      -2.626  11.837  17.732  0.00  0.00    +0.000 C 
BRANCH  33  34
ATOM     34  C   UNL     1      -3.995  11.385  17.214  0.00  0.00    +0.000 C 
BRANCH  34  36
ATOM     35  C   UNL     1      -6.125  10.708  18.410  0.00  0.00    +0.000 C 
ATOM     36  C   UNL     1      -5.133  11.843  18.155  0.00  0.00    +0.000 C 
ATOM     37  C   UNL     1      -4.610  12.372  19.495  0.00  0.00    +0.000 C 
ENDBRANCH  34  36
ENDBRANCH  33  34
ENDBRANCH  32  33
ENDBRANCH  28  32
ENDBRANCH  20  28
ENDBRANCH  19  23
ENDBRANCH   1  19
BRANCH   6  38
ATOM     38  C   UNL     1       0.665   3.982  20.068  0.00  0.00    +0.000 C 
BRANCH  38  39
ATOM     39  O   UNL     1       0.825   3.047  21.127  0.00  0.00    +0.000 OA
ATOM     40  H   UNL     1       1.762   3.079  21.384  0.00  0.00    +0.000 HD
ENDBRANCH  38  39
ENDBRANCH   6  38
TORSDOF 18
ENDMDL
