MODEL 1
REMARK VINA RESULT:      -7.5      0.000      0.000
REMARK  Name = 
REMARK  12 active torsions:
REMARK  status: ('A' for Active; 'I' for Inactive)
REMARK    1  A    between atoms: C_1  and  C_2
REMARK    2  A    between atoms: C_2  and  C_3
REMARK    3  A    between atoms: C_3  and  C_4
REMARK    4  A    between atoms: C_11  and  C_12
REMARK    5  A    between atoms: C_14  and  O_15
REMARK    6  A    between atoms: O_15  and  C_16
REMARK    7  A    between atoms: C_16  and  C_17
REMARK    8  A    between atoms: C_16  and  C_18
REMARK    9  A    between atoms: N_20  and  C_21
REMARK   10  A    between atoms: C_21  and  C_22
REMARK   11  A    between atoms: C_22  and  C_23
REMARK   12  A    between atoms: C_23  and  N_24
REMARK                            x       y       z     vdW  Elec       q    Type
REMARK                         _______ _______ _______ _____ _____    ______ ____
ROOT
ATOM      1  O   UNL     1       0.095  10.085  19.015  0.00  0.00    +0.000 OA
ENDROOT
BRANCH   1  12
ATOM      2  C   UNL     1      -1.660  11.851  20.639  0.00  0.00    +0.000 A 
ATOM      3  C   UNL     1      -2.577  12.632  21.234  0.00  0.00    +0.000 A 
ATOM      4  C   UNL     1      -3.835  13.050  20.614  0.00  0.00    +0.000 A 
ATOM      5  O   UNL     1      -4.603  13.811  21.194  0.00  0.00    +0.000 OA
ATOM      6  O   UNL     1      -4.087  12.551  19.360  0.00  0.00    +0.000 OA
ATOM      7  C   UNL     1      -3.175  11.690  18.709  0.00  0.00    +0.000 A 
ATOM      8  C   UNL     1      -3.605  11.263  17.451  0.00  0.00    +0.000 A 
ATOM      9  C   UNL     1      -2.803  10.411  16.707  0.00  0.00    +0.000 A 
ATOM     10  C   UNL     1      -3.229   9.927  15.352  0.00  0.00    +0.000 C 
ATOM     11  C   UNL     1      -1.571  10.015  17.240  0.00  0.00    +0.000 A 
ATOM     12  C   UNL     1      -1.125  10.454  18.506  0.00  0.00    +0.000 A 
ATOM     13  C   UNL     1      -1.945  11.312  19.281  0.00  0.00    +0.000 A 
BRANCH   2  14
ATOM     14  C   UNL     1      -0.403  11.549  21.417  0.00  0.00    +0.000 C 
BRANCH  14  16
ATOM     15  C   UNL     1       0.090   9.411  22.732  0.00  0.00    +0.000 C 
ATOM     16  C   UNL     1      -0.646  10.747  22.704  0.00  0.00    +0.000 C 
ENDBRANCH  14  16
ENDBRANCH   2  14
ENDBRANCH   1  12
BRANCH   1  17
ATOM     17  C   UNL     1       1.204   9.835  18.135  0.00  0.00    +0.000 C 
ATOM     18  C   UNL     1       2.175  11.009  18.172  0.00  0.00    +0.000 C 
BRANCH  17  19
ATOM     19  C   UNL     1       1.943   8.584  18.622  0.00  0.00    +0.000 C 
ATOM     20  O   UNL     1       1.851   8.182  19.775  0.00  0.00    +0.000 OA
ATOM     21  N   UNL     1       2.664   7.940  17.646  0.00  0.00    +0.000 N 
ATOM     22  H   UNL     1       2.715   8.390  16.740  0.00  0.00    +0.000 HD
BRANCH  21  23
ATOM     23  C   UNL     1       3.549   6.847  17.942  0.00  0.00    +0.000 C 
BRANCH  23  24
ATOM     24  C   UNL     1       2.826   5.503  17.966  0.00  0.00    +0.000 C 
BRANCH  24  25
ATOM     25  C   UNL     1       3.407   4.687  19.121  0.00  0.00    +0.000 C 
BRANCH  25  26
ATOM     26  N   UNL     1       3.168   3.238  19.094  0.00  0.00    +0.000 NA
ATOM     27  C   UNL     1       1.733   2.985  18.800  0.00  0.00    +0.000 C 
ATOM     28  C   UNL     1       0.797   3.336  19.974  0.00  0.00    +0.000 C 
ATOM     29  O   UNL     1       1.166   2.630  21.165  0.00  0.00    +0.000 OA
ATOM     30  C   UNL     1       2.534   2.880  21.515  0.00  0.00    +0.000 C 
ATOM     31  C   UNL     1       3.487   2.542  20.357  0.00  0.00    +0.000 C 
ENDBRANCH  25  26
ENDBRANCH  24  25
ENDBRANCH  23  24
ENDBRANCH  21  23
ENDBRANCH  17  19
ENDBRANCH   1  17
TORSDOF 9
ENDMDL
MODEL 2
REMARK VINA RESULT:      -7.3      1.226      1.368
REMARK  Name = 
REMARK  12 active torsions:
REMARK  status: ('A' for Active; 'I' for Inactive)
REMARK    1  A    between atoms: C_1  and  C_2
REMARK    2  A    between atoms: C_2  and  C_3
REMARK    3  A    between atoms: C_3  and  C_4
REMARK    4  A    between atoms: C_11  and  C_12
REMARK    5  A    between atoms: C_14  and  O_15
REMARK    6  A    between atoms: O_15  and  C_16
REMARK    7  A    between atoms: C_16  and  C_17
REMARK    8  A    between atoms: C_16  and  C_18
REMARK    9  A    between atoms: N_20  and  C_21
REMARK   10  A    between atoms: C_21  and  C_22
REMARK   11  A    between atoms: C_22  and  C_23
REMARK   12  A    between atoms: C_23  and  N_24
REMARK                            x       y       z     vdW  Elec       q    Type
REMARK                         _______ _______ _______ _____ _____    ______ ____
ROOT
ATOM      1  O   UNL     1      -0.116  10.130  18.953  0.00  0.00    +0.000 OA
ENDROOT
BRANCH   1  12
ATOM      2  C   UNL     1      -1.868  11.825  20.656  0.00  0.00    +0.000 A 
ATOM      3  C   UNL     1      -2.784  12.579  21.286  0.00  0.00    +0.000 A 
ATOM      4  C   UNL     1      -4.045  13.019  20.689  0.00  0.00    +0.000 A 
ATOM      5  O   UNL     1      -4.812  13.755  21.303  0.00  0.00    +0.000 OA
ATOM      6  O   UNL     1      -4.301  12.572  19.416  0.00  0.00    +0.000 OA
ATOM      7  C   UNL     1      -3.390  11.741  18.726  0.00  0.00    +0.000 A 
ATOM      8  C   UNL     1      -3.824  11.364  17.454  0.00  0.00    +0.000 A 
ATOM      9  C   UNL     1      -3.024  10.545  16.673  0.00  0.00    +0.000 A 
ATOM     10  C   UNL     1      -3.455  10.117  15.301  0.00  0.00    +0.000 C 
ATOM     11  C   UNL     1      -1.789  10.131  17.183  0.00  0.00    +0.000 A 
ATOM     12  C   UNL     1      -1.339  10.518  18.465  0.00  0.00    +0.000 A 
ATOM     13  C   UNL     1      -2.157  11.342  19.278  0.00  0.00    +0.000 A 
BRANCH   2  14
ATOM     14  C   UNL     1      -0.607  11.494  21.415  0.00  0.00    +0.000 C 
BRANCH  14  16
ATOM     15  C   UNL     1      -0.034   9.607  23.045  0.00  0.00    +0.000 C 
ATOM     16  C   UNL     1      -0.858  10.866  22.795  0.00  0.00    +0.000 C 
ENDBRANCH  14  16
ENDBRANCH   2  14
ENDBRANCH   1  12
BRANCH   1  17
ATOM     17  C   UNL     1       1.077  10.347  18.180  0.00  0.00    +0.000 C 
ATOM     18  C   UNL     1       1.911  11.457  18.807  0.00  0.00    +0.000 C 
BRANCH  17  19
ATOM     19  C   UNL     1       1.906   9.057  18.190  0.00  0.00    +0.000 C 
ATOM     20  O   UNL     1       2.573   8.706  17.224  0.00  0.00    +0.000 OA
ATOM     21  N   UNL     1       1.868   8.373  19.380  0.00  0.00    +0.000 N 
ATOM     22  H   UNL     1       1.241   8.725  20.093  0.00  0.00    +0.000 HD
BRANCH  21  23
ATOM     23  C   UNL     1       2.446   7.066  19.532  0.00  0.00    +0.000 C 
BRANCH  23  24
ATOM     24  C   UNL     1       1.651   6.186  20.493  0.00  0.00    +0.000 C 
BRANCH  24  25
ATOM     25  C   UNL     1       1.921   4.729  20.115  0.00  0.00    +0.000 C 
BRANCH  25  26
ATOM     26  N   UNL     1       2.847   4.495  18.999  0.00  0.00    +0.000 NA
ATOM     27  C   UNL     1       2.183   3.636  17.985  0.00  0.00    +0.000 C 
ATOM     28  C   UNL     1       2.017   2.172  18.438  0.00  0.00    +0.000 C 
ATOM     29  O   UNL     1       3.276   1.590  18.797  0.00  0.00    +0.000 OA
ATOM     30  C   UNL     1       3.937   2.362  19.809  0.00  0.00    +0.000 C 
ATOM     31  C   UNL     1       4.109   3.829  19.382  0.00  0.00    +0.000 C 
ENDBRANCH  25  26
ENDBRANCH  24  25
ENDBRANCH  23  24
ENDBRANCH  21  23
ENDBRANCH  17  19
ENDBRANCH   1  17
TORSDOF 9
ENDMDL
MODEL 3
REMARK VINA RESULT:      -7.1      0.983      1.335
REMARK  Name = 
REMARK  12 active torsions:
REMARK  status: ('A' for Active; 'I' for Inactive)
REMARK    1  A    between atoms: C_1  and  C_2
REMARK    2  A    between atoms: C_2  and  C_3
REMARK    3  A    between atoms: C_3  and  C_4
REMARK    4  A    between atoms: C_11  and  C_12
REMARK    5  A    between atoms: C_14  and  O_15
REMARK    6  A    between atoms: O_15  and  C_16
REMARK    7  A    between atoms: C_16  and  C_17
REMARK    8  A    between atoms: C_16  and  C_18
REMARK    9  A    between atoms: N_20  and  C_21
REMARK   10  A    between atoms: C_21  and  C_22
REMARK   11  A    between atoms: C_22  and  C_23
REMARK   12  A    between atoms: C_23  and  N_24
REMARK                            x       y       z     vdW  Elec       q    Type
REMARK                         _______ _______ _______ _____ _____    ______ ____
ROOT
ATOM      1  O   UNL     1      -0.392  10.647  19.212  0.00  0.00    +0.000 OA
ENDROOT
BRANCH   1  12
ATOM      2  C   UNL     1      -2.547  12.253  20.483  0.00  0.00    +0.000 A 
ATOM      3  C   UNL     1      -3.624  12.933  20.909  0.00  0.00    +0.000 A 
ATOM      4  C   UNL     1      -4.849  13.113  20.129  0.00  0.00    +0.000 A 
ATOM      5  O   UNL     1      -5.776  13.794  20.557  0.00  0.00    +0.000 OA
ATOM      6  O   UNL     1      -4.886  12.489  18.906  0.00  0.00    +0.000 OA
ATOM      7  C   UNL     1      -3.796  11.726  18.432  0.00  0.00    +0.000 A 
ATOM      8  C   UNL     1      -4.018  11.146  17.181  0.00  0.00    +0.000 A 
ATOM      9  C   UNL     1      -3.027  10.368  16.603  0.00  0.00    +0.000 A 
ATOM     10  C   UNL     1      -3.226   9.726  15.261  0.00  0.00    +0.000 C 
ATOM     11  C   UNL     1      -1.820  10.200  17.290  0.00  0.00    +0.000 A 
ATOM     12  C   UNL     1      -1.585  10.794  18.550  0.00  0.00    +0.000 A 
ATOM     13  C   UNL     1      -2.599  11.577  19.157  0.00  0.00    +0.000 A 
BRANCH   2  14
ATOM     14  C   UNL     1      -1.356  12.199  21.408  0.00  0.00    +0.000 C 
BRANCH  14  16
ATOM     15  C   UNL     1      -0.766  10.290  23.005  0.00  0.00    +0.000 C 
ATOM     16  C   UNL     1      -1.643  11.511  22.751  0.00  0.00    +0.000 C 
ENDBRANCH  14  16
ENDBRANCH   2  14
ENDBRANCH   1  12
BRANCH   1  17
ATOM     17  C   UNL     1       0.837  10.527  18.474  0.00  0.00    +0.000 C 
ATOM     18  C   UNL     1       1.770  11.680  18.822  0.00  0.00    +0.000 C 
BRANCH  17  19
ATOM     19  C   UNL     1       1.522   9.216  18.877  0.00  0.00    +0.000 C 
ATOM     20  O   UNL     1       1.449   8.767  20.015  0.00  0.00    +0.000 OA
ATOM     21  N   UNL     1       2.171   8.580  17.847  0.00  0.00    +0.000 N 
ATOM     22  H   UNL     1       2.214   9.068  16.961  0.00  0.00    +0.000 HD
BRANCH  21  23
ATOM     23  C   UNL     1       3.004   7.428  18.061  0.00  0.00    +0.000 C 
BRANCH  23  24
ATOM     24  C   UNL     1       2.201   6.131  18.112  0.00  0.00    +0.000 C 
BRANCH  24  25
ATOM     25  C   UNL     1       3.167   5.005  18.480  0.00  0.00    +0.000 C 
BRANCH  25  26
ATOM     26  N   UNL     1       2.934   4.325  19.760  0.00  0.00    +0.000 NA
ATOM     27  C   UNL     1       3.714   3.059  19.790  0.00  0.00    +0.000 C 
ATOM     28  C   UNL     1       3.145   1.969  18.861  0.00  0.00    +0.000 C 
ATOM     29  O   UNL     1       1.774   1.686  19.166  0.00  0.00    +0.000 OA
ATOM     30  C   UNL     1       0.971   2.872  19.105  0.00  0.00    +0.000 C 
ATOM     31  C   UNL     1       1.522   3.978  20.021  0.00  0.00    +0.000 C 
ENDBRANCH  25  26
ENDBRANCH  24  25
ENDBRANCH  23  24
ENDBRANCH  21  23
ENDBRANCH  17  19
ENDBRANCH   1  17
TORSDOF 9
ENDMDL
MODEL 4
REMARK VINA RESULT:      -7.0      2.501      4.510
REMARK  Name = 
REMARK  12 active torsions:
REMARK  status: ('A' for Active; 'I' for Inactive)
REMARK    1  A    between atoms: C_1  and  C_2
REMARK    2  A    between atoms: C_2  and  C_3
REMARK    3  A    between atoms: C_3  and  C_4
REMARK    4  A    between atoms: C_11  and  C_12
REMARK    5  A    between atoms: C_14  and  O_15
REMARK    6  A    between atoms: O_15  and  C_16
REMARK    7  A    between atoms: C_16  and  C_17
REMARK    8  A    between atoms: C_16  and  C_18
REMARK    9  A    between atoms: N_20  and  C_21
REMARK   10  A    between atoms: C_21  and  C_22
REMARK   11  A    between atoms: C_22  and  C_23
REMARK   12  A    between atoms: C_23  and  N_24
REMARK                            x       y       z     vdW  Elec       q    Type
REMARK                         _______ _______ _______ _____ _____    ______ ____
ROOT
ATOM      1  O   UNL     1       0.035  10.717  18.879  0.00  0.00    +0.000 OA
ENDROOT
BRANCH   1  12
ATOM      2  C   UNL     1      -2.871  11.007  18.324  0.00  0.00    +0.000 A 
ATOM      3  C   UNL     1      -4.181  11.277  18.198  0.00  0.00    +0.000 A 
ATOM      4  C   UNL     1      -4.908  12.246  19.017  0.00  0.00    +0.000 A 
ATOM      5  O   UNL     1      -6.118  12.403  18.886  0.00  0.00    +0.000 OA
ATOM      6  O   UNL     1      -4.161  12.946  19.933  0.00  0.00    +0.000 OA
ATOM      7  C   UNL     1      -2.772  12.731  20.074  0.00  0.00    +0.000 A 
ATOM      8  C   UNL     1      -2.171  13.546  21.036  0.00  0.00    +0.000 A 
ATOM      9  C   UNL     1      -0.810  13.437  21.271  0.00  0.00    +0.000 A 
ATOM     10  C   UNL     1      -0.126  14.295  22.294  0.00  0.00    +0.000 C 
ATOM     11  C   UNL     1      -0.077  12.494  20.541  0.00  0.00    +0.000 A 
ATOM     12  C   UNL     1      -0.681  11.658  19.576  0.00  0.00    +0.000 A 
ATOM     13  C   UNL     1      -2.070  11.774  19.317  0.00  0.00    +0.000 A 
BRANCH   2  14
ATOM     14  C   UNL     1      -2.295   9.949  17.415  0.00  0.00    +0.000 C 
BRANCH  14  16
ATOM     15  C   UNL     1      -2.865  10.454  14.973  0.00  0.00    +0.000 C 
ATOM     16  C   UNL     1      -3.183   9.616  16.207  0.00  0.00    +0.000 C 
ENDBRANCH  14  16
ENDBRANCH   2  14
ENDBRANCH   1  12
BRANCH   1  17
ATOM     17  C   UNL     1       1.087   9.979  19.525  0.00  0.00    +0.000 C 
ATOM     18  C   UNL     1       0.505   9.088  20.615  0.00  0.00    +0.000 C 
BRANCH  17  19
ATOM     19  C   UNL     1       1.767   9.085  18.483  0.00  0.00    +0.000 C 
ATOM     20  O   UNL     1       1.962   9.458  17.333  0.00  0.00    +0.000 OA
ATOM     21  N   UNL     1       2.174   7.866  18.968  0.00  0.00    +0.000 N 
ATOM     22  H   UNL     1       1.913   7.639  19.920  0.00  0.00    +0.000 HD
BRANCH  21  23
ATOM     23  C   UNL     1       2.683   6.831  18.110  0.00  0.00    +0.000 C 
BRANCH  23  24
ATOM     24  C   UNL     1       3.620   5.875  18.844  0.00  0.00    +0.000 C 
BRANCH  24  25
ATOM     25  C   UNL     1       4.553   5.255  17.804  0.00  0.00    +0.000 C 
BRANCH  25  26
ATOM     26  N   UNL     1       5.607   6.121  17.260  0.00  0.00    +0.000 NA
ATOM     27  C   UNL     1       5.927   5.689  15.874  0.00  0.00    +0.000 C 
ATOM     28  C   UNL     1       6.694   4.353  15.812  0.00  0.00    +0.000 C 
ATOM     29  O   UNL     1       7.902   4.408  16.580  0.00  0.00    +0.000 OA
ATOM     30  C   UNL     1       7.638   4.778  17.940  0.00  0.00    +0.000 C 
ATOM     31  C   UNL     1       6.869   6.106  18.028  0.00  0.00    +0.000 C 
ENDBRANCH  25  26
ENDBRANCH  24  25
ENDBRANCH  23  24
ENDBRANCH  21  23
ENDBRANCH  17  19
ENDBRANCH   1  17
TORSDOF 9
ENDMDL
MODEL 5
REMARK VINA RESULT:      -7.0      2.271      3.078
REMARK  Name = 
REMARK  12 active torsions:
REMARK  status: ('A' for Active; 'I' for Inactive)
REMARK    1  A    between atoms: C_1  and  C_2
REMARK    2  A    between atoms: C_2  and  C_3
REMARK    3  A    between atoms: C_3  and  C_4
REMARK    4  A    between atoms: C_11  and  C_12
REMARK    5  A    between atoms: C_14  and  O_15
REMARK    6  A    between atoms: O_15  and  C_16
REMARK    7  A    between atoms: C_16  and  C_17
REMARK    8  A    between atoms: C_16  and  C_18
REMARK    9  A    between atoms: N_20  and  C_21
REMARK   10  A    between atoms: C_21  and  C_22
REMARK   11  A    between atoms: C_22  and  C_23
REMARK   12  A    between atoms: C_23  and  N_24
REMARK                            x       y       z     vdW  Elec       q    Type
REMARK                         _______ _______ _______ _____ _____    ______ ____
ROOT
ATOM      1  O   UNL     1      -0.170  10.502  19.116  0.00  0.00    +0.000 OA
ENDROOT
BRANCH   1  12
ATOM      2  C   UNL     1      -2.237  12.111  20.523  0.00  0.00    +0.000 A 
ATOM      3  C   UNL     1      -3.278  12.806  21.009  0.00  0.00    +0.000 A 
ATOM      4  C   UNL     1      -4.508  13.080  20.266  0.00  0.00    +0.000 A 
ATOM      5  O   UNL     1      -5.399  13.770  20.751  0.00  0.00    +0.000 OA
ATOM      6  O   UNL     1      -4.591  12.533  19.008  0.00  0.00    +0.000 OA
ATOM      7  C   UNL     1      -3.541  11.758  18.468  0.00  0.00    +0.000 A 
ATOM      8  C   UNL     1      -3.807  11.264  17.190  0.00  0.00    +0.000 A 
ATOM      9  C   UNL     1      -2.858  10.483  16.547  0.00  0.00    +0.000 A 
ATOM     10  C   UNL     1      -3.106   9.932  15.174  0.00  0.00    +0.000 C 
ATOM     11  C   UNL     1      -1.648  10.227  17.200  0.00  0.00    +0.000 A 
ATOM     12  C   UNL     1      -1.368  10.734  18.488  0.00  0.00    +0.000 A 
ATOM     13  C   UNL     1      -2.338  11.519  19.160  0.00  0.00    +0.000 A 
BRANCH   2  14
ATOM     14  C   UNL     1      -1.033  11.955  21.419  0.00  0.00    +0.000 C 
BRANCH  14  16
ATOM     15  C   UNL     1       0.869  13.554  20.812  0.00  0.00    +0.000 C 
ATOM     16  C   UNL     1      -0.315  13.277  21.732  0.00  0.00    +0.000 C 
ENDBRANCH  14  16
ENDBRANCH   2  14
ENDBRANCH   1  12
BRANCH   1  17
ATOM     17  C   UNL     1       0.965  10.034  18.367  0.00  0.00    +0.000 C 
ATOM     18  C   UNL     1       2.031  11.121  18.300  0.00  0.00    +0.000 C 
BRANCH  17  19
ATOM     19  C   UNL     1       1.560   8.819  19.088  0.00  0.00    +0.000 C 
ATOM     20  O   UNL     1       1.387   8.625  20.285  0.00  0.00    +0.000 OA
ATOM     21  N   UNL     1       2.250   7.961  18.267  0.00  0.00    +0.000 N 
ATOM     22  H   UNL     1       2.377   8.247  17.305  0.00  0.00    +0.000 HD
BRANCH  21  23
ATOM     23  C   UNL     1       3.013   6.857  18.782  0.00  0.00    +0.000 C 
BRANCH  23  24
ATOM     24  C   UNL     1       3.057   5.678  17.813  0.00  0.00    +0.000 C 
BRANCH  24  25
ATOM     25  C   UNL     1       4.498   5.169  17.771  0.00  0.00    +0.000 C 
BRANCH  25  26
ATOM     26  N   UNL     1       5.493   6.048  17.142  0.00  0.00    +0.000 NA
ATOM     27  C   UNL     1       5.766   5.569  15.762  0.00  0.00    +0.000 C 
ATOM     28  C   UNL     1       6.578   4.260  15.719  0.00  0.00    +0.000 C 
ATOM     29  O   UNL     1       7.817   4.390  16.427  0.00  0.00    +0.000 OA
ATOM     30  C   UNL     1       7.602   4.808  17.781  0.00  0.00    +0.000 C 
ATOM     31  C   UNL     1       6.788   6.111  17.851  0.00  0.00    +0.000 C 
ENDBRANCH  25  26
ENDBRANCH  24  25
ENDBRANCH  23  24
ENDBRANCH  21  23
ENDBRANCH  17  19
ENDBRANCH   1  17
TORSDOF 9
ENDMDL
MODEL 6
REMARK VINA RESULT:      -6.9      2.147      2.679
REMARK  Name = 
REMARK  12 active torsions:
REMARK  status: ('A' for Active; 'I' for Inactive)
REMARK    1  A    between atoms: C_1  and  C_2
REMARK    2  A    between atoms: C_2  and  C_3
REMARK    3  A    between atoms: C_3  and  C_4
REMARK    4  A    between atoms: C_11  and  C_12
REMARK    5  A    between atoms: C_14  and  O_15
REMARK    6  A    between atoms: O_15  and  C_16
REMARK    7  A    between atoms: C_16  and  C_17
REMARK    8  A    between atoms: C_16  and  C_18
REMARK    9  A    between atoms: N_20  and  C_21
REMARK   10  A    between atoms: C_21  and  C_22
REMARK   11  A    between atoms: C_22  and  C_23
REMARK   12  A    between atoms: C_23  and  N_24
REMARK                            x       y       z     vdW  Elec       q    Type
REMARK                         _______ _______ _______ _____ _____    ______ ____
ROOT
ATOM      1  O   UNL     1      -1.097  11.465  19.227  0.00  0.00    +0.000 OA
ENDROOT
BRANCH   1  12
ATOM      2  C   UNL     1      -3.720  12.545  20.115  0.00  0.00    +0.000 A 
ATOM      3  C   UNL     1      -4.973  12.967  20.354  0.00  0.00    +0.000 A 
ATOM      4  C   UNL     1      -6.073  12.879  19.394  0.00  0.00    +0.000 A 
ATOM      5  O   UNL     1      -7.181  13.335  19.659  0.00  0.00    +0.000 OA
ATOM      6  O   UNL     1      -5.784  12.273  18.196  0.00  0.00    +0.000 OA
ATOM      7  C   UNL     1      -4.493  11.773  17.912  0.00  0.00    +0.000 A 
ATOM      8  C   UNL     1      -4.388  11.170  16.657  0.00  0.00    +0.000 A 
ATOM      9  C   UNL     1      -3.174  10.634  16.256  0.00  0.00    +0.000 A 
ATOM     10  C   UNL     1      -3.018   9.976  14.917  0.00  0.00    +0.000 C 
ATOM     11  C   UNL     1      -2.079  10.731  17.123  0.00  0.00    +0.000 A 
ATOM     12  C   UNL     1      -2.177  11.351  18.388  0.00  0.00    +0.000 A 
ATOM     13  C   UNL     1      -3.418  11.886  18.814  0.00  0.00    +0.000 A 
BRANCH   2  14
ATOM     14  C   UNL     1      -2.703  12.747  21.211  0.00  0.00    +0.000 C 
BRANCH  14  16
ATOM     15  C   UNL     1      -2.820  13.579  23.627  0.00  0.00    +0.000 C 
ATOM     16  C   UNL     1      -3.258  12.516  22.625  0.00  0.00    +0.000 C 
ENDBRANCH  14  16
ENDBRANCH   2  14
ENDBRANCH   1  12
BRANCH   1  17
ATOM     17  C   UNL     1       0.238  11.288  18.720  0.00  0.00    +0.000 C 
ATOM     18  C   UNL     1       1.091  12.504  19.060  0.00  0.00    +0.000 C 
BRANCH  17  19
ATOM     19  C   UNL     1       0.858  10.061  19.397  0.00  0.00    +0.000 C 
ATOM     20  O   UNL     1       0.833   9.906  20.612  0.00  0.00    +0.000 OA
ATOM     21  N   UNL     1       1.390   9.145  18.522  0.00  0.00    +0.000 N 
ATOM     22  H   UNL     1       1.406   9.400  17.543  0.00  0.00    +0.000 HD
BRANCH  21  23
ATOM     23  C   UNL     1       2.156   8.014  18.970  0.00  0.00    +0.000 C 
BRANCH  23  24
ATOM     24  C   UNL     1       3.079   7.470  17.882  0.00  0.00    +0.000 C 
BRANCH  24  25
ATOM     25  C   UNL     1       3.029   5.944  17.955  0.00  0.00    +0.000 C 
BRANCH  25  26
ATOM     26  N   UNL     1       4.114   5.212  17.289  0.00  0.00    +0.000 NA
ATOM     27  C   UNL     1       3.978   3.761  17.582  0.00  0.00    +0.000 C 
ATOM     28  C   UNL     1       4.333   3.395  19.036  0.00  0.00    +0.000 C 
ATOM     29  O   UNL     1       5.659   3.822  19.374  0.00  0.00    +0.000 OA
ATOM     30  C   UNL     1       5.826   5.229  19.150  0.00  0.00    +0.000 C 
ATOM     31  C   UNL     1       5.472   5.619  17.705  0.00  0.00    +0.000 C 
ENDBRANCH  25  26
ENDBRANCH  24  25
ENDBRANCH  23  24
ENDBRANCH  21  23
ENDBRANCH  17  19
ENDBRANCH   1  17
TORSDOF 9
ENDMDL
MODEL 7
REMARK VINA RESULT:      -6.8      2.996      9.160
REMARK  Name = 
REMARK  12 active torsions:
REMARK  status: ('A' for Active; 'I' for Inactive)
REMARK    1  A    between atoms: C_1  and  C_2
REMARK    2  A    between atoms: C_2  and  C_3
REMARK    3  A    between atoms: C_3  and  C_4
REMARK    4  A    between atoms: C_11  and  C_12
REMARK    5  A    between atoms: C_14  and  O_15
REMARK    6  A    between atoms: O_15  and  C_16
REMARK    7  A    between atoms: C_16  and  C_17
REMARK    8  A    between atoms: C_16  and  C_18
REMARK    9  A    between atoms: N_20  and  C_21
REMARK   10  A    between atoms: C_21  and  C_22
REMARK   11  A    between atoms: C_22  and  C_23
REMARK   12  A    between atoms: C_23  and  N_24
REMARK                            x       y       z     vdW  Elec       q    Type
REMARK                         _______ _______ _______ _____ _____    ______ ____
ROOT
ATOM      1  O   UNL     1       3.068   6.813  18.913  0.00  0.00    +0.000 OA
ENDROOT
BRANCH   1  12
ATOM      2  C   UNL     1       5.065   5.944  16.890  0.00  0.00    +0.000 A 
ATOM      3  C   UNL     1       5.872   5.392  15.968  0.00  0.00    +0.000 A 
ATOM      4  C   UNL     1       5.766   4.010  15.499  0.00  0.00    +0.000 A 
ATOM      5  O   UNL     1       6.573   3.553  14.695  0.00  0.00    +0.000 OA
ATOM      6  O   UNL     1       4.731   3.271  16.019  0.00  0.00    +0.000 OA
ATOM      7  C   UNL     1       3.830   3.819  16.958  0.00  0.00    +0.000 A 
ATOM      8  C   UNL     1       2.828   2.933  17.359  0.00  0.00    +0.000 A 
ATOM      9  C   UNL     1       1.875   3.349  18.276  0.00  0.00    +0.000 A 
ATOM     10  C   UNL     1       0.781   2.428  18.732  0.00  0.00    +0.000 C 
ATOM     11  C   UNL     1       1.957   4.649  18.786  0.00  0.00    +0.000 A 
ATOM     12  C   UNL     1       2.975   5.546  18.393  0.00  0.00    +0.000 A 
ATOM     13  C   UNL     1       3.944   5.136  17.444  0.00  0.00    +0.000 A 
BRANCH   2  14
ATOM     14  C   UNL     1       5.343   7.375  17.279  0.00  0.00    +0.000 C 
BRANCH  14  16
ATOM     15  C   UNL     1       7.624   6.819  18.294  0.00  0.00    +0.000 C 
ATOM     16  C   UNL     1       6.838   7.722  17.349  0.00  0.00    +0.000 C 
ENDBRANCH  14  16
ENDBRANCH   2  14
ENDBRANCH   1  12
BRANCH   1  17
ATOM     17  C   UNL     1       1.879   7.548  19.251  0.00  0.00    +0.000 C 
ATOM     18  C   UNL     1       1.869   7.870  20.740  0.00  0.00    +0.000 C 
BRANCH  17  19
ATOM     19  C   UNL     1       1.884   8.869  18.473  0.00  0.00    +0.000 C 
ATOM     20  O   UNL     1       2.337   8.953  17.338  0.00  0.00    +0.000 OA
ATOM     21  N   UNL     1       1.297   9.916  19.139  0.00  0.00    +0.000 N 
ATOM     22  H   UNL     1       1.004   9.748  20.093  0.00  0.00    +0.000 HD
BRANCH  21  23
ATOM     23  C   UNL     1       1.349  11.265  18.644  0.00  0.00    +0.000 C 
BRANCH  23  24
ATOM     24  C   UNL     1       1.499  12.291  19.765  0.00  0.00    +0.000 C 
BRANCH  24  25
ATOM     25  C   UNL     1       0.097  12.774  20.137  0.00  0.00    +0.000 C 
BRANCH  25  26
ATOM     26  N   UNL     1      -0.902  11.740  20.438  0.00  0.00    +0.000 NA
ATOM     27  C   UNL     1      -2.263  12.315  20.279  0.00  0.00    +0.000 C 
ATOM     28  C   UNL     1      -2.641  13.310  21.395  0.00  0.00    +0.000 C 
ATOM     29  O   UNL     1      -2.531  12.708  22.691  0.00  0.00    +0.000 OA
ATOM     30  C   UNL     1      -1.217  12.176  22.909  0.00  0.00    +0.000 C 
ATOM     31  C   UNL     1      -0.816  11.184  21.804  0.00  0.00    +0.000 C 
ENDBRANCH  25  26
ENDBRANCH  24  25
ENDBRANCH  23  24
ENDBRANCH  21  23
ENDBRANCH  17  19
ENDBRANCH   1  17
TORSDOF 9
ENDMDL
MODEL 8
REMARK VINA RESULT:      -6.8      3.130      9.151
REMARK  Name = 
REMARK  12 active torsions:
REMARK  status: ('A' for Active; 'I' for Inactive)
REMARK    1  A    between atoms: C_1  and  C_2
REMARK    2  A    between atoms: C_2  and  C_3
REMARK    3  A    between atoms: C_3  and  C_4
REMARK    4  A    between atoms: C_11  and  C_12
REMARK    5  A    between atoms: C_14  and  O_15
REMARK    6  A    between atoms: O_15  and  C_16
REMARK    7  A    between atoms: C_16  and  C_17
REMARK    8  A    between atoms: C_16  and  C_18
REMARK    9  A    between atoms: N_20  and  C_21
REMARK   10  A    between atoms: C_21  and  C_22
REMARK   11  A    between atoms: C_22  and  C_23
REMARK   12  A    between atoms: C_23  and  N_24
REMARK                            x       y       z     vdW  Elec       q    Type
REMARK                         _______ _______ _______ _____ _____    ______ ____
ROOT
ATOM      1  O   UNL     1       2.341   6.852  18.614  0.00  0.00    +0.000 OA
ENDROOT
BRANCH   1  12
ATOM      2  C   UNL     1       2.938   4.200  19.816  0.00  0.00    +0.000 A 
ATOM      3  C   UNL     1       3.381   3.026  20.296  0.00  0.00    +0.000 A 
ATOM      4  C   UNL     1       4.718   2.485  20.052  0.00  0.00    +0.000 A 
ATOM      5  O   UNL     1       5.040   1.379  20.475  0.00  0.00    +0.000 OA
ATOM      6  O   UNL     1       5.569   3.280  19.322  0.00  0.00    +0.000 OA
ATOM      7  C   UNL     1       5.165   4.541  18.832  0.00  0.00    +0.000 A 
ATOM      8  C   UNL     1       6.165   5.219  18.132  0.00  0.00    +0.000 A 
ATOM      9  C   UNL     1       5.899   6.472  17.601  0.00  0.00    +0.000 A 
ATOM     10  C   UNL     1       6.946   7.234  16.844  0.00  0.00    +0.000 C 
ATOM     11  C   UNL     1       4.621   7.015  17.772  0.00  0.00    +0.000 A 
ATOM     12  C   UNL     1       3.601   6.328  18.468  0.00  0.00    +0.000 A 
ATOM     13  C   UNL     1       3.868   5.055  19.029  0.00  0.00    +0.000 A 
BRANCH   2  14
ATOM     14  C   UNL     1       1.515   4.583  20.140  0.00  0.00    +0.000 C 
BRANCH  14  16
ATOM     15  C   UNL     1       0.571   2.630  18.785  0.00  0.00    +0.000 C 
ATOM     16  C   UNL     1       0.528   3.407  20.096  0.00  0.00    +0.000 C 
ENDBRANCH  14  16
ENDBRANCH   2  14
ENDBRANCH   1  12
BRANCH   1  17
ATOM     17  C   UNL     1       2.164   8.249  18.907  0.00  0.00    +0.000 C 
ATOM     18  C   UNL     1       1.318   8.907  17.825  0.00  0.00    +0.000 C 
BRANCH  17  19
ATOM     19  C   UNL     1       1.424   8.378  20.243  0.00  0.00    +0.000 C 
ATOM     20  O   UNL     1       1.665   7.644  21.194  0.00  0.00    +0.000 OA
ATOM     21  N   UNL     1       0.516   9.408  20.286  0.00  0.00    +0.000 N 
ATOM     22  H   UNL     1       0.358   9.917  19.426  0.00  0.00    +0.000 HD
BRANCH  21  23
ATOM     23  C   UNL     1      -0.387   9.588  21.390  0.00  0.00    +0.000 C 
BRANCH  23  24
ATOM     24  C   UNL     1      -0.250  10.964  22.035  0.00  0.00    +0.000 C 
BRANCH  24  25
ATOM     25  C   UNL     1      -0.738  11.999  21.022  0.00  0.00    +0.000 C 
BRANCH  25  26
ATOM     26  N   UNL     1       0.042  13.239  20.915  0.00  0.00    +0.000 NA
ATOM     27  C   UNL     1      -0.520  14.077  19.823  0.00  0.00    +0.000 C 
ATOM     28  C   UNL     1      -0.231  13.519  18.415  0.00  0.00    +0.000 C 
ATOM     29  O   UNL     1       1.175  13.345  18.200  0.00  0.00    +0.000 OA
ATOM     30  C   UNL     1       1.755  12.504  19.206  0.00  0.00    +0.000 C 
ATOM     31  C   UNL     1       1.476  13.038  20.621  0.00  0.00    +0.000 C 
ENDBRANCH  25  26
ENDBRANCH  24  25
ENDBRANCH  23  24
ENDBRANCH  21  23
ENDBRANCH  17  19
ENDBRANCH   1  17
TORSDOF 9
ENDMDL
MODEL 9
REMARK VINA RESULT:      -6.8      1.777      4.054
REMARK  Name = 
REMARK  12 active torsions:
REMARK  status: ('A' for Active; 'I' for Inactive)
REMARK    1  A    between atoms: C_1  and  C_2
REMARK    2  A    between atoms: C_2  and  C_3
REMARK    3  A    between atoms: C_3  and  C_4
REMARK    4  A    between atoms: C_11  and  C_12
REMARK    5  A    between atoms: C_14  and  O_15
REMARK    6  A    between atoms: O_15  and  C_16
REMARK    7  A    between atoms: C_16  and  C_17
REMARK    8  A    between atoms: C_16  and  C_18
REMARK    9  A    between atoms: N_20  and  C_21
REMARK   10  A    between atoms: C_21  and  C_22
REMARK   11  A    between atoms: C_22  and  C_23
REMARK   12  A    between atoms: C_23  and  N_24
REMARK                            x       y       z     vdW  Elec       q    Type
REMARK                         _______ _______ _______ _____ _____    ______ ____
ROOT
ATOM      1  O   UNL     1      -0.699  11.864  19.289  0.00  0.00    +0.000 OA
ENDROOT
BRANCH   1  12
ATOM      2  C   UNL     1      -3.366  11.541  18.016  0.00  0.00    +0.000 A 
ATOM      3  C   UNL     1      -4.640  11.477  17.594  0.00  0.00    +0.000 A 
ATOM      4  C   UNL     1      -5.798  11.864  18.400  0.00  0.00    +0.000 A 
ATOM      5  O   UNL     1      -6.940  11.728  17.972  0.00  0.00    +0.000 OA
ATOM      6  O   UNL     1      -5.526  12.371  19.647  0.00  0.00    +0.000 OA
ATOM      7  C   UNL     1      -4.201  12.499  20.121  0.00  0.00    +0.000 A 
ATOM      8  C   UNL     1      -4.112  13.054  21.399  0.00  0.00    +0.000 A 
ATOM      9  C   UNL     1      -2.867  13.238  21.980  0.00  0.00    +0.000 A 
ATOM     10  C   UNL     1      -2.728  13.832  23.351  0.00  0.00    +0.000 C 
ATOM     11  C   UNL     1      -1.730  12.844  21.265  0.00  0.00    +0.000 A 
ATOM     12  C   UNL     1      -1.814  12.272  19.977  0.00  0.00    +0.000 A 
ATOM     13  C   UNL     1      -3.082  12.095  19.368  0.00  0.00    +0.000 A 
BRANCH   2  14
ATOM     14  C   UNL     1      -2.299  11.066  17.061  0.00  0.00    +0.000 C 
BRANCH  14  16
ATOM     15  C   UNL     1      -2.936  10.125  14.769  0.00  0.00    +0.000 C 
ATOM     16  C   UNL     1      -2.701   9.827  16.246  0.00  0.00    +0.000 C 
ENDBRANCH  14  16
ENDBRANCH   2  14
ENDBRANCH   1  12
BRANCH   1  17
ATOM     17  C   UNL     1       0.261  10.992  19.911  0.00  0.00    +0.000 C 
ATOM     18  C   UNL     1      -0.428   9.726  20.406  0.00  0.00    +0.000 C 
BRANCH  17  19
ATOM     19  C   UNL     1       1.308  10.594  18.866  0.00  0.00    +0.000 C 
ATOM     20  O   UNL     1       2.000  11.424  18.289  0.00  0.00    +0.000 OA
ATOM     21  N   UNL     1       1.429   9.238  18.679  0.00  0.00    +0.000 N 
ATOM     22  H   UNL     1       0.769   8.646  19.167  0.00  0.00    +0.000 HD
BRANCH  21  23
ATOM     23  C   UNL     1       2.238   8.679  17.630  0.00  0.00    +0.000 C 
BRANCH  23  24
ATOM     24  C   UNL     1       3.139   7.552  18.130  0.00  0.00    +0.000 C 
BRANCH  24  25
ATOM     25  C   UNL     1       2.248   6.347  18.427  0.00  0.00    +0.000 C 
BRANCH  25  26
ATOM     26  N   UNL     1       2.851   5.252  19.198  0.00  0.00    +0.000 NA
ATOM     27  C   UNL     1       3.995   4.688  18.435  0.00  0.00    +0.000 C 
ATOM     28  C   UNL     1       3.563   3.871  17.201  0.00  0.00    +0.000 C 
ATOM     29  O   UNL     1       2.670   2.810  17.563  0.00  0.00    +0.000 OA
ATOM     30  C   UNL     1       1.524   3.311  18.266  0.00  0.00    +0.000 C 
ATOM     31  C   UNL     1       1.930   4.136  19.499  0.00  0.00    +0.000 C 
ENDBRANCH  25  26
ENDBRANCH  24  25
ENDBRANCH  23  24
ENDBRANCH  21  23
ENDBRANCH  17  19
ENDBRANCH   1  17
TORSDOF 9
ENDMDL
