MODEL 1
REMARK VINA RESULT:      -7.0      0.000      0.000
REMARK  Name = 
REMARK  7 active torsions:
REMARK  status: ('A' for Active; 'I' for Inactive)
REMARK    1  A    between atoms: C_1  and  C_2
REMARK    2  A    between atoms: C_2  and  N_3
REMARK    3  A    between atoms: C_8  and  C_9
REMARK    4  A    between atoms: C_9  and  O_10
REMARK    5  A    between atoms: O_10  and  C_11
REMARK    6  A    between atoms: C_11  and  C_12
REMARK    7  A    between atoms: C_17  and  C_19
REMARK                            x       y       z     vdW  Elec       q    Type
REMARK                         _______ _______ _______ _____ _____    ______ ____
ROOT
ATOM      1  N   UNL     1       1.922   3.214  18.911  0.00  0.00    +0.000 N 
ATOM      2  N   UNL     1       1.777   2.240  17.986  0.00  0.00    +0.000 NA
ATOM      3  C   UNL     1       2.875   2.335  17.236  0.00  0.00    +0.000 A 
ATOM      4  C   UNL     1       3.714   3.390  17.639  0.00  0.00    +0.000 A 
ATOM      5  C   UNL     1       3.052   3.967  18.696  0.00  0.00    +0.000 A 
ATOM      6  C   UNL     1       3.562   5.126  19.485  0.00  0.00    +0.000 C 
ATOM      7  C   UNL     1       4.900   5.643  18.887  0.00  0.00    +0.000 C 
ATOM      8  N   UNL     1       5.659   4.865  17.890  0.00  0.00    +0.000 N 
ATOM      9  C   UNL     1       6.832   5.398  17.295  0.00  0.00    +0.000 C 
ATOM     10  O   UNL     1       7.374   4.835  16.339  0.00  0.00    +0.000 OA
ATOM     11  C   UNL     1       5.002   3.835  17.075  0.00  0.00    +0.000 C 
ENDROOT
BRANCH   9  12
ATOM     12  C   UNL     1       7.393   6.732  17.717  0.00  0.00    +0.000 A 
ATOM     13  C   UNL     1       8.201   6.773  18.836  0.00  0.00    +0.000 A 
ATOM     14  C   UNL     1       8.761   7.994  19.124  0.00  0.00    +0.000 A 
ATOM     15  N   UNL     1       8.549   9.100  18.388  0.00  0.00    +0.000 NA
ATOM     16  C   UNL     1       7.727   8.958  17.341  0.00  0.00    +0.000 A 
ATOM     17  N   UNL     1       7.131   7.821  16.962  0.00  0.00    +0.000 NA
ENDBRANCH   9  12
BRANCH   1  19
ATOM     18  C   UNL     1       1.214   2.916  21.320  0.00  0.00    +0.000 C 
ATOM     19  C   UNL     1       0.891   3.404  19.915  0.00  0.00    +0.000 C 
ENDBRANCH   1  19
BRANCH   6  20
ATOM     20  C   UNL     1       2.622   6.346  19.527  0.00  0.00    +0.000 C 
BRANCH  20  21
ATOM     21  O   UNL     1       2.182   6.721  18.229  0.00  0.00    +0.000 OA
BRANCH  21  22
ATOM     22  C   UNL     1       2.482   8.082  17.939  0.00  0.00    +0.000 C 
BRANCH  22  23
ATOM     23  C   UNL     1       1.547   8.944  18.726  0.00  0.00    +0.000 C 
ATOM     24  C   UNL     1       1.522  10.442  18.546  0.00  0.00    +0.000 C 
ATOM     25  C   UNL     1       0.380   9.606  18.040  0.00  0.00    +0.000 C 
ENDBRANCH  22  23
ENDBRANCH  21  22
ENDBRANCH  20  21
ENDBRANCH   6  20
TORSDOF 6
ENDMDL
MODEL 2
REMARK VINA RESULT:      -6.9      1.147      1.263
REMARK  Name = 
REMARK  7 active torsions:
REMARK  status: ('A' for Active; 'I' for Inactive)
REMARK    1  A    between atoms: C_1  and  C_2
REMARK    2  A    between atoms: C_2  and  N_3
REMARK    3  A    between atoms: C_8  and  C_9
REMARK    4  A    between atoms: C_9  and  O_10
REMARK    5  A    between atoms: O_10  and  C_11
REMARK    6  A    between atoms: C_11  and  C_12
REMARK    7  A    between atoms: C_17  and  C_19
REMARK                            x       y       z     vdW  Elec       q    Type
REMARK                         _______ _______ _______ _____ _____    ______ ____
ROOT
ATOM      1  N   UNL     1       1.736   2.922  19.324  0.00  0.00    +0.000 N 
ATOM      2  N   UNL     1       1.409   2.067  18.329  0.00  0.00    +0.000 NA
ATOM      3  C   UNL     1       2.371   2.236  17.423  0.00  0.00    +0.000 A 
ATOM      4  C   UNL     1       3.300   3.223  17.800  0.00  0.00    +0.000 A 
ATOM      5  C   UNL     1       2.840   3.679  19.012  0.00  0.00    +0.000 A 
ATOM      6  C   UNL     1       3.511   4.727  19.834  0.00  0.00    +0.000 C 
ATOM      7  C   UNL     1       4.750   5.294  19.084  0.00  0.00    +0.000 C 
ATOM      8  N   UNL     1       5.308   4.630  17.892  0.00  0.00    +0.000 N 
ATOM      9  C   UNL     1       6.385   5.214  17.175  0.00  0.00    +0.000 C 
ATOM     10  O   UNL     1       6.744   4.762  16.083  0.00  0.00    +0.000 OA
ATOM     11  C   UNL     1       4.492   3.714  17.084  0.00  0.00    +0.000 C 
ENDROOT
BRANCH   9  12
ATOM     12  C   UNL     1       7.052   6.480  17.649  0.00  0.00    +0.000 A 
ATOM     13  C   UNL     1       7.921   6.396  18.720  0.00  0.00    +0.000 A 
ATOM     14  C   UNL     1       8.572   7.559  19.053  0.00  0.00    +0.000 A 
ATOM     15  N   UNL     1       8.391   8.723  18.403  0.00  0.00    +0.000 NA
ATOM     16  C   UNL     1       7.507   8.702  17.399  0.00  0.00    +0.000 A 
ATOM     17  N   UNL     1       6.820   7.632  16.982  0.00  0.00    +0.000 NA
ENDBRANCH   9  12
BRANCH   1  19
ATOM     18  C   UNL     1       1.512   2.555  21.815  0.00  0.00    +0.000 C 
ATOM     19  C   UNL     1       0.890   3.004  20.501  0.00  0.00    +0.000 C 
ENDBRANCH   1  19
BRANCH   6  20
ATOM     20  C   UNL     1       2.632   5.947  20.173  0.00  0.00    +0.000 C 
BRANCH  20  21
ATOM     21  O   UNL     1       2.830   7.014  19.256  0.00  0.00    +0.000 OA
BRANCH  21  22
ATOM     22  C   UNL     1       1.952   8.105  19.513  0.00  0.00    +0.000 C 
BRANCH  22  23
ATOM     23  C   UNL     1       1.398   7.943  20.891  0.00  0.00    +0.000 C 
ATOM     24  C   UNL     1       1.351   9.099  21.860  0.00  0.00    +0.000 C 
ATOM     25  C   UNL     1       0.080   8.581  21.250  0.00  0.00    +0.000 C 
ENDBRANCH  22  23
ENDBRANCH  21  22
ENDBRANCH  20  21
ENDBRANCH   6  20
TORSDOF 6
ENDMDL
MODEL 3
REMARK VINA RESULT:      -6.8      0.650      1.047
REMARK  Name = 
REMARK  7 active torsions:
REMARK  status: ('A' for Active; 'I' for Inactive)
REMARK    1  A    between atoms: C_1  and  C_2
REMARK    2  A    between atoms: C_2  and  N_3
REMARK    3  A    between atoms: C_8  and  C_9
REMARK    4  A    between atoms: C_9  and  O_10
REMARK    5  A    between atoms: O_10  and  C_11
REMARK    6  A    between atoms: C_11  and  C_12
REMARK    7  A    between atoms: C_17  and  C_19
REMARK                            x       y       z     vdW  Elec       q    Type
REMARK                         _______ _______ _______ _____ _____    ______ ____
ROOT
ATOM      1  N   UNL     1       1.877   3.196  19.032  0.00  0.00    +0.000 N 
ATOM      2  N   UNL     1       1.661   2.240  18.102  0.00  0.00    +0.000 NA
ATOM      3  C   UNL     1       2.743   2.289  17.325  0.00  0.00    +0.000 A 
ATOM      4  C   UNL     1       3.642   3.298  17.716  0.00  0.00    +0.000 A 
ATOM      5  C   UNL     1       3.036   3.895  18.795  0.00  0.00    +0.000 A 
ATOM      6  C   UNL     1       3.621   5.019  19.582  0.00  0.00    +0.000 C 
ATOM      7  C   UNL     1       4.968   5.478  18.954  0.00  0.00    +0.000 C 
ATOM      8  N   UNL     1       5.662   4.674  17.931  0.00  0.00    +0.000 N 
ATOM      9  C   UNL     1       6.844   5.156  17.310  0.00  0.00    +0.000 C 
ATOM     10  O   UNL     1       7.334   4.578  16.335  0.00  0.00    +0.000 OA
ATOM     11  C   UNL     1       4.935   3.686  17.123  0.00  0.00    +0.000 C 
ENDROOT
BRANCH   9  12
ATOM     12  C   UNL     1       7.480   6.456  17.730  0.00  0.00    +0.000 A 
ATOM     13  C   UNL     1       7.233   7.579  16.965  0.00  0.00    +0.000 A 
ATOM     14  C   UNL     1       7.760   8.755  17.441  0.00  0.00    +0.000 A 
ATOM     15  N   UNL     1       8.481   8.840  18.573  0.00  0.00    +0.000 NA
ATOM     16  C   UNL     1       8.687   7.689  19.225  0.00  0.00    +0.000 A 
ATOM     17  N   UNL     1       8.220   6.489  18.860  0.00  0.00    +0.000 NA
ENDBRANCH   9  12
BRANCH   1  19
ATOM     18  C   UNL     1       1.199   2.873  21.446  0.00  0.00    +0.000 C 
ATOM     19  C   UNL     1       0.882   3.424  20.064  0.00  0.00    +0.000 C 
ENDBRANCH   1  19
BRANCH   6  20
ATOM     20  C   UNL     1       2.743   6.283  19.659  0.00  0.00    +0.000 C 
BRANCH  20  21
ATOM     21  O   UNL     1       2.268   6.678  18.379  0.00  0.00    +0.000 OA
BRANCH  21  22
ATOM     22  C   UNL     1       2.748   7.966  18.009  0.00  0.00    +0.000 C 
BRANCH  22  23
ATOM     23  C   UNL     1       1.578   8.892  17.922  0.00  0.00    +0.000 C 
ATOM     24  C   UNL     1       1.046   9.602  19.143  0.00  0.00    +0.000 C 
ATOM     25  C   UNL     1       1.782  10.377  18.085  0.00  0.00    +0.000 C 
ENDBRANCH  22  23
ENDBRANCH  21  22
ENDBRANCH  20  21
ENDBRANCH   6  20
TORSDOF 6
ENDMDL
MODEL 4
REMARK VINA RESULT:      -6.3      1.466      1.731
REMARK  Name = 
REMARK  7 active torsions:
REMARK  status: ('A' for Active; 'I' for Inactive)
REMARK    1  A    between atoms: C_1  and  C_2
REMARK    2  A    between atoms: C_2  and  N_3
REMARK    3  A    between atoms: C_8  and  C_9
REMARK    4  A    between atoms: C_9  and  O_10
REMARK    5  A    between atoms: O_10  and  C_11
REMARK    6  A    between atoms: C_11  and  C_12
REMARK    7  A    between atoms: C_17  and  C_19
REMARK                            x       y       z     vdW  Elec       q    Type
REMARK                         _______ _______ _______ _____ _____    ______ ____
ROOT
ATOM      1  N   UNL     1       1.897   3.151  18.831  0.00  0.00    +0.000 N 
ATOM      2  N   UNL     1       1.796   2.109  17.976  0.00  0.00    +0.000 NA
ATOM      3  C   UNL     1       2.944   2.127  17.301  0.00  0.00    +0.000 A 
ATOM      4  C   UNL     1       3.776   3.197  17.679  0.00  0.00    +0.000 A 
ATOM      5  C   UNL     1       3.055   3.866  18.639  0.00  0.00    +0.000 A 
ATOM      6  C   UNL     1       3.534   5.075  19.369  0.00  0.00    +0.000 C 
ATOM      7  C   UNL     1       4.922   5.522  18.829  0.00  0.00    +0.000 C 
ATOM      8  N   UNL     1       5.730   4.655  17.952  0.00  0.00    +0.000 N 
ATOM      9  C   UNL     1       6.953   5.120  17.402  0.00  0.00    +0.000 C 
ATOM     10  O   UNL     1       7.548   4.475  16.533  0.00  0.00    +0.000 OA
ATOM     11  C   UNL     1       5.109   3.575  17.175  0.00  0.00    +0.000 C 
ENDROOT
BRANCH   9  12
ATOM     12  C   UNL     1       7.512   6.474  17.757  0.00  0.00    +0.000 A 
ATOM     13  C   UNL     1       7.187   7.546  16.950  0.00  0.00    +0.000 A 
ATOM     14  C   UNL     1       7.645   8.771  17.369  0.00  0.00    +0.000 A 
ATOM     15  N   UNL     1       8.374   8.948  18.485  0.00  0.00    +0.000 NA
ATOM     16  C   UNL     1       8.659   7.841  19.181  0.00  0.00    +0.000 A 
ATOM     17  N   UNL     1       8.263   6.600  18.874  0.00  0.00    +0.000 NA
ENDBRANCH   9  12
BRANCH   1  19
ATOM     18  C   UNL     1       1.052   3.143  21.214  0.00  0.00    +0.000 C 
ATOM     19  C   UNL     1       0.803   3.436  19.742  0.00  0.00    +0.000 C 
ENDBRANCH   1  19
BRANCH   6  20
ATOM     20  C   UNL     1       2.620   6.310  19.249  0.00  0.00    +0.000 C 
BRANCH  20  21
ATOM     21  O   UNL     1       2.114   6.721  20.512  0.00  0.00    +0.000 OA
BRANCH  21  22
ATOM     22  C   UNL     1       1.703   8.084  20.501  0.00  0.00    +0.000 C 
BRANCH  22  23
ATOM     23  C   UNL     1       0.580   8.240  21.475  0.00  0.00    +0.000 C 
ATOM     24  C   UNL     1       0.643   9.255  22.590  0.00  0.00    +0.000 C 
ATOM     25  C   UNL     1      -0.287   9.473  21.430  0.00  0.00    +0.000 C 
ENDBRANCH  22  23
ENDBRANCH  21  22
ENDBRANCH  20  21
ENDBRANCH   6  20
TORSDOF 6
ENDMDL
MODEL 5
REMARK VINA RESULT:      -6.2      3.363      5.855
REMARK  Name = 
REMARK  7 active torsions:
REMARK  status: ('A' for Active; 'I' for Inactive)
REMARK    1  A    between atoms: C_1  and  C_2
REMARK    2  A    between atoms: C_2  and  N_3
REMARK    3  A    between atoms: C_8  and  C_9
REMARK    4  A    between atoms: C_9  and  O_10
REMARK    5  A    between atoms: O_10  and  C_11
REMARK    6  A    between atoms: C_11  and  C_12
REMARK    7  A    between atoms: C_17  and  C_19
REMARK                            x       y       z     vdW  Elec       q    Type
REMARK                         _______ _______ _______ _____ _____    ______ ____
ROOT
ATOM      1  N   UNL     1       5.412   5.046  19.085  0.00  0.00    +0.000 N 
ATOM      2  N   UNL     1       6.587   5.495  19.578  0.00  0.00    +0.000 NA
ATOM      3  C   UNL     1       7.386   5.558  18.513  0.00  0.00    +0.000 A 
ATOM      4  C   UNL     1       6.755   5.114  17.338  0.00  0.00    +0.000 A 
ATOM      5  C   UNL     1       5.494   4.749  17.745  0.00  0.00    +0.000 A 
ATOM      6  C   UNL     1       4.428   4.229  16.841  0.00  0.00    +0.000 C 
ATOM      7  C   UNL     1       4.972   4.075  15.392  0.00  0.00    +0.000 C 
ATOM      8  N   UNL     1       6.256   4.670  14.977  0.00  0.00    +0.000 N 
ATOM      9  C   UNL     1       6.772   4.441  13.675  0.00  0.00    +0.000 C 
ATOM     10  O   UNL     1       7.920   4.785  13.374  0.00  0.00    +0.000 OA
ATOM     11  C   UNL     1       7.286   5.014  15.966  0.00  0.00    +0.000 C 
ENDROOT
BRANCH   9  12
ATOM     12  C   UNL     1       5.996   3.660  12.645  0.00  0.00    +0.000 A 
ATOM     13  C   UNL     1       6.563   2.507  12.139  0.00  0.00    +0.000 A 
ATOM     14  C   UNL     1       5.777   1.785  11.275  0.00  0.00    +0.000 A 
ATOM     15  N   UNL     1       4.534   2.154  10.917  0.00  0.00    +0.000 NA
ATOM     16  C   UNL     1       4.090   3.302  11.442  0.00  0.00    +0.000 A 
ATOM     17  N   UNL     1       4.761   4.084  12.296  0.00  0.00    +0.000 NA
ENDBRANCH   9  12
BRANCH   1  19
ATOM     18  C   UNL     1       3.183   5.900  19.917  0.00  0.00    +0.000 C 
ATOM     19  C   UNL     1       4.287   4.855  19.982  0.00  0.00    +0.000 C 
ENDBRANCH   1  19
BRANCH   6  20
ATOM     20  C   UNL     1       3.866   2.847  17.227  0.00  0.00    +0.000 C 
BRANCH  20  21
ATOM     21  O   UNL     1       2.471   2.753  16.975  0.00  0.00    +0.000 OA
BRANCH  21  22
ATOM     22  C   UNL     1       1.718   3.608  17.830  0.00  0.00    +0.000 C 
BRANCH  22  23
ATOM     23  C   UNL     1       1.030   2.759  18.850  0.00  0.00    +0.000 C 
ATOM     24  C   UNL     1       1.741   2.302  20.100  0.00  0.00    +0.000 C 
ATOM     25  C   UNL     1       0.663   3.344  20.189  0.00  0.00    +0.000 C 
ENDBRANCH  22  23
ENDBRANCH  21  22
ENDBRANCH  20  21
ENDBRANCH   6  20
TORSDOF 6
ENDMDL
MODEL 6
REMARK VINA RESULT:      -6.0      3.150      6.202
REMARK  Name = 
REMARK  7 active torsions:
REMARK  status: ('A' for Active; 'I' for Inactive)
REMARK    1  A    between atoms: C_1  and  C_2
REMARK    2  A    between atoms: C_2  and  N_3
REMARK    3  A    between atoms: C_8  and  C_9
REMARK    4  A    between atoms: C_9  and  O_10
REMARK    5  A    between atoms: O_10  and  C_11
REMARK    6  A    between atoms: C_11  and  C_12
REMARK    7  A    between atoms: C_17  and  C_19
REMARK                            x       y       z     vdW  Elec       q    Type
REMARK                         _______ _______ _______ _____ _____    ______ ____
ROOT
ATOM      1  N   UNL     1       2.877   4.630  19.106  0.00  0.00    +0.000 N 
ATOM      2  N   UNL     1       2.685   3.859  20.199  0.00  0.00    +0.000 NA
ATOM      3  C   UNL     1       2.072   4.665  21.065  0.00  0.00    +0.000 A 
ATOM      4  C   UNL     1       1.900   5.967  20.561  0.00  0.00    +0.000 A 
ATOM      5  C   UNL     1       2.468   5.927  19.311  0.00  0.00    +0.000 A 
ATOM      6  C   UNL     1       2.513   7.077  18.362  0.00  0.00    +0.000 C 
ATOM      7  C   UNL     1       1.908   8.348  19.022  0.00  0.00    +0.000 C 
ATOM      8  N   UNL     1       1.135   8.281  20.275  0.00  0.00    +0.000 N 
ATOM      9  C   UNL     1       0.669   9.465  20.903  0.00  0.00    +0.000 C 
ATOM     10  O   UNL     1       0.176   9.436  22.035  0.00  0.00    +0.000 OA
ATOM     11  C   UNL     1       1.285   7.147  21.197  0.00  0.00    +0.000 C 
ENDROOT
BRANCH   9  12
ATOM     12  C   UNL     1       0.867  10.821  20.274  0.00  0.00    +0.000 A 
ATOM     13  C   UNL     1       0.151  11.120  19.132  0.00  0.00    +0.000 A 
ATOM     14  C   UNL     1       0.298  12.398  18.652  0.00  0.00    +0.000 A 
ATOM     15  N   UNL     1       1.087  13.322  19.230  0.00  0.00    +0.000 NA
ATOM     16  C   UNL     1       1.759  12.921  20.316  0.00  0.00    +0.000 A 
ATOM     17  N   UNL     1       1.691  11.707  20.876  0.00  0.00    +0.000 NA
ENDBRANCH   9  12
BRANCH   1  19
ATOM     18  C   UNL     1       3.057   2.690  17.495  0.00  0.00    +0.000 C 
ATOM     19  C   UNL     1       3.532   4.066  17.940  0.00  0.00    +0.000 C 
ENDBRANCH   1  19
BRANCH   6  20
ATOM     20  C   UNL     1       3.926   7.478  17.895  0.00  0.00    +0.000 C 
BRANCH  20  21
ATOM     21  O   UNL     1       4.151   7.139  16.534  0.00  0.00    +0.000 OA
BRANCH  21  22
ATOM     22  C   UNL     1       5.454   6.603  16.329  0.00  0.00    +0.000 C 
BRANCH  22  23
ATOM     23  C   UNL     1       6.240   6.793  17.586  0.00  0.00    +0.000 C 
ATOM     24  C   UNL     1       7.486   5.987  17.862  0.00  0.00    +0.000 C 
ATOM     25  C   UNL     1       7.596   7.450  17.531  0.00  0.00    +0.000 C 
ENDBRANCH  22  23
ENDBRANCH  21  22
ENDBRANCH  20  21
ENDBRANCH   6  20
TORSDOF 6
ENDMDL
MODEL 7
REMARK VINA RESULT:      -5.9      3.221      6.316
REMARK  Name = 
REMARK  7 active torsions:
REMARK  status: ('A' for Active; 'I' for Inactive)
REMARK    1  A    between atoms: C_1  and  C_2
REMARK    2  A    between atoms: C_2  and  N_3
REMARK    3  A    between atoms: C_8  and  C_9
REMARK    4  A    between atoms: C_9  and  O_10
REMARK    5  A    between atoms: O_10  and  C_11
REMARK    6  A    between atoms: C_11  and  C_12
REMARK    7  A    between atoms: C_17  and  C_19
REMARK                            x       y       z     vdW  Elec       q    Type
REMARK                         _______ _______ _______ _____ _____    ______ ____
ROOT
ATOM      1  N   UNL     1       2.869   4.591  19.257  0.00  0.00    +0.000 N 
ATOM      2  N   UNL     1       2.677   3.865  20.380  0.00  0.00    +0.000 NA
ATOM      3  C   UNL     1       2.068   4.708  21.214  0.00  0.00    +0.000 A 
ATOM      4  C   UNL     1       1.900   5.989  20.659  0.00  0.00    +0.000 A 
ATOM      5  C   UNL     1       2.465   5.897  19.410  0.00  0.00    +0.000 A 
ATOM      6  C   UNL     1       2.512   7.007  18.416  0.00  0.00    +0.000 C 
ATOM      7  C   UNL     1       1.913   8.307  19.025  0.00  0.00    +0.000 C 
ATOM      8  N   UNL     1       1.143   8.292  20.282  0.00  0.00    +0.000 N 
ATOM      9  C   UNL     1       0.681   9.502  20.862  0.00  0.00    +0.000 C 
ATOM     10  O   UNL     1       0.190   9.520  21.995  0.00  0.00    +0.000 OA
ATOM     11  C   UNL     1       1.291   7.196  21.248  0.00  0.00    +0.000 C 
ENDROOT
BRANCH   9  12
ATOM     12  C   UNL     1       0.883  10.831  20.179  0.00  0.00    +0.000 A 
ATOM     13  C   UNL     1       0.195  11.071  19.006  0.00  0.00    +0.000 A 
ATOM     14  C   UNL     1       0.342  12.329  18.473  0.00  0.00    +0.000 A 
ATOM     15  N   UNL     1       1.106  13.286  19.030  0.00  0.00    +0.000 NA
ATOM     16  C   UNL     1       1.753  12.941  20.150  0.00  0.00    +0.000 A 
ATOM     17  N   UNL     1       1.682  11.752  20.761  0.00  0.00    +0.000 NA
ENDBRANCH   9  12
BRANCH   1  19
ATOM     18  C   UNL     1       2.613   3.278  17.112  0.00  0.00    +0.000 C 
ATOM     19  C   UNL     1       3.520   3.978  18.113  0.00  0.00    +0.000 C 
ENDBRANCH   1  19
BRANCH   6  20
ATOM     20  C   UNL     1       3.926   7.385  17.931  0.00  0.00    +0.000 C 
BRANCH  20  21
ATOM     21  O   UNL     1       4.192   6.881  16.629  0.00  0.00    +0.000 OA
BRANCH  21  22
ATOM     22  C   UNL     1       5.540   6.444  16.494  0.00  0.00    +0.000 C 
BRANCH  22  23
ATOM     23  C   UNL     1       5.667   5.717  15.194  0.00  0.00    +0.000 C 
ATOM     24  C   UNL     1       6.902   4.918  14.858  0.00  0.00    +0.000 C 
ATOM     25  C   UNL     1       5.612   4.211  15.167  0.00  0.00    +0.000 C 
ENDBRANCH  22  23
ENDBRANCH  21  22
ENDBRANCH  20  21
ENDBRANCH   6  20
TORSDOF 6
ENDMDL
MODEL 8
REMARK VINA RESULT:      -5.9      3.608      6.596
REMARK  Name = 
REMARK  7 active torsions:
REMARK  status: ('A' for Active; 'I' for Inactive)
REMARK    1  A    between atoms: C_1  and  C_2
REMARK    2  A    between atoms: C_2  and  N_3
REMARK    3  A    between atoms: C_8  and  C_9
REMARK    4  A    between atoms: C_9  and  O_10
REMARK    5  A    between atoms: O_10  and  C_11
REMARK    6  A    between atoms: C_11  and  C_12
REMARK    7  A    between atoms: C_17  and  C_19
REMARK                            x       y       z     vdW  Elec       q    Type
REMARK                         _______ _______ _______ _____ _____    ______ ____
ROOT
ATOM      1  N   UNL     1       0.064  10.967  20.858  0.00  0.00    +0.000 N 
ATOM      2  N   UNL     1      -0.610  10.830  22.022  0.00  0.00    +0.000 NA
ATOM      3  C   UNL     1      -0.370   9.573  22.393  0.00  0.00    +0.000 A 
ATOM      4  C   UNL     1       0.420   8.876  21.462  0.00  0.00    +0.000 A 
ATOM      5  C   UNL     1       0.650   9.789  20.459  0.00  0.00    +0.000 A 
ATOM      6  C   UNL     1       1.470   9.524  19.243  0.00  0.00    +0.000 C 
ATOM      7  C   UNL     1       1.953   8.046  19.225  0.00  0.00    +0.000 C 
ATOM      8  N   UNL     1       1.851   7.180  20.414  0.00  0.00    +0.000 N 
ATOM      9  C   UNL     1       2.217   5.811  20.347  0.00  0.00    +0.000 C 
ATOM     10  O   UNL     1       1.974   5.038  21.280  0.00  0.00    +0.000 OA
ATOM     11  C   UNL     1       0.897   7.482  21.490  0.00  0.00    +0.000 C 
ENDROOT
BRANCH   9  12
ATOM     12  C   UNL     1       2.802   5.212  19.093  0.00  0.00    +0.000 A 
ATOM     13  C   UNL     1       2.012   4.358  18.350  0.00  0.00    +0.000 A 
ATOM     14  C   UNL     1       2.558   3.914  17.170  0.00  0.00    +0.000 A 
ATOM     15  N   UNL     1       3.785   4.263  16.742  0.00  0.00    +0.000 NA
ATOM     16  C   UNL     1       4.479   5.072  17.551  0.00  0.00    +0.000 A 
ATOM     17  N   UNL     1       4.050   5.571  18.717  0.00  0.00    +0.000 NA
ENDBRANCH   9  12
BRANCH   1  19
ATOM     18  C   UNL     1      -1.317  12.951  20.118  0.00  0.00    +0.000 C 
ATOM     19  C   UNL     1       0.026  12.237  20.156  0.00  0.00    +0.000 C 
ENDBRANCH   1  19
BRANCH   6  20
ATOM     20  C   UNL     1       0.736   9.741  17.905  0.00  0.00    +0.000 C 
BRANCH  20  21
ATOM     21  O   UNL     1      -0.667   9.565  18.036  0.00  0.00    +0.000 OA
BRANCH  21  22
ATOM     22  C   UNL     1      -1.396  10.554  17.316  0.00  0.00    +0.000 C 
BRANCH  22  23
ATOM     23  C   UNL     1      -2.514   9.877  16.592  0.00  0.00    +0.000 C 
ATOM     24  C   UNL     1      -3.815  10.588  16.314  0.00  0.00    +0.000 C 
ATOM     25  C   UNL     1      -2.863  10.299  15.187  0.00  0.00    +0.000 C 
ENDBRANCH  22  23
ENDBRANCH  21  22
ENDBRANCH  20  21
ENDBRANCH   6  20
TORSDOF 6
ENDMDL
MODEL 9
REMARK VINA RESULT:      -5.9      2.877      6.097
REMARK  Name = 
REMARK  7 active torsions:
REMARK  status: ('A' for Active; 'I' for Inactive)
REMARK    1  A    between atoms: C_1  and  C_2
REMARK    2  A    between atoms: C_2  and  N_3
REMARK    3  A    between atoms: C_8  and  C_9
REMARK    4  A    between atoms: C_9  and  O_10
REMARK    5  A    between atoms: O_10  and  C_11
REMARK    6  A    between atoms: C_11  and  C_12
REMARK    7  A    between atoms: C_17  and  C_19
REMARK                            x       y       z     vdW  Elec       q    Type
REMARK                         _______ _______ _______ _____ _____    ______ ____
ROOT
ATOM      1  N   UNL     1       4.561   4.400  17.786  0.00  0.00    +0.000 N 
ATOM      2  N   UNL     1       5.532   4.633  16.876  0.00  0.00    +0.000 NA
ATOM      3  C   UNL     1       5.393   5.923  16.571  0.00  0.00    +0.000 A 
ATOM      4  C   UNL     1       4.314   6.523  17.244  0.00  0.00    +0.000 A 
ATOM      5  C   UNL     1       3.768   5.505  17.989  0.00  0.00    +0.000 A 
ATOM      6  C   UNL     1       2.599   5.655  18.902  0.00  0.00    +0.000 C 
ATOM      7  C   UNL     1       2.031   7.101  18.824  0.00  0.00    +0.000 C 
ATOM      8  N   UNL     1       2.775   8.194  18.172  0.00  0.00    +0.000 N 
ATOM      9  C   UNL     1       2.197   9.483  18.036  0.00  0.00    +0.000 C 
ATOM     10  O   UNL     1       2.734  10.353  17.343  0.00  0.00    +0.000 OA
ATOM     11  C   UNL     1       3.821   7.911  17.180  0.00  0.00    +0.000 C 
ENDROOT
BRANCH   9  12
ATOM     12  C   UNL     1       0.848   9.808  18.625  0.00  0.00    +0.000 A 
ATOM     13  C   UNL     1       0.782  10.118  19.969  0.00  0.00    +0.000 A 
ATOM     14  C   UNL     1      -0.454  10.496  20.435  0.00  0.00    +0.000 A 
ATOM     15  N   UNL     1      -1.551  10.561  19.660  0.00  0.00    +0.000 NA
ATOM     16  C   UNL     1      -1.384  10.213  18.378  0.00  0.00    +0.000 A 
ATOM     17  N   UNL     1      -0.232   9.835  17.813  0.00  0.00    +0.000 NA
ENDBRANCH   9  12
BRANCH   1  19
ATOM     18  C   UNL     1       3.499   2.113  17.601  0.00  0.00    +0.000 C 
ATOM     19  C   UNL     1       4.414   3.071  18.350  0.00  0.00    +0.000 C 
ENDBRANCH   1  19
BRANCH   6  20
ATOM     20  C   UNL     1       1.411   4.721  18.596  0.00  0.00    +0.000 C 
BRANCH  20  21
ATOM     21  O   UNL     1       0.729   4.327  19.778  0.00  0.00    +0.000 OA
BRANCH  21  22
ATOM     22  C   UNL     1       0.785   2.918  19.978  0.00  0.00    +0.000 C 
BRANCH  22  23
ATOM     23  C   UNL     1       1.374   2.662  21.328  0.00  0.00    +0.000 C 
ATOM     24  C   UNL     1       2.836   2.328  21.496  0.00  0.00    +0.000 C 
ATOM     25  C   UNL     1       2.316   3.667  21.939  0.00  0.00    +0.000 C 
ENDBRANCH  22  23
ENDBRANCH  21  22
ENDBRANCH  20  21
ENDBRANCH   6  20
TORSDOF 6
ENDMDL
