MODEL 1
REMARK VINA RESULT:      -7.1      0.000      0.000
REMARK  Name = 
REMARK  9 active torsions:
REMARK  status: ('A' for Active; 'I' for Inactive)
REMARK    1  A    between atoms: C_1  and  C_2
REMARK    2  A    between atoms: C_2  and  C_3
REMARK    3  A    between atoms: N_6  and  C_7
REMARK    4  A    between atoms: C_7  and  C_8
REMARK    5  A    between atoms: C_8  and  N_9
REMARK    6  A    between atoms: N_12  and  C_13
REMARK    7  A    between atoms: C_13  and  C_14
REMARK    8  A    between atoms: C_14  and  O_15
REMARK    9  A    between atoms: C_22  and  C_23
REMARK                            x       y       z     vdW  Elec       q    Type
REMARK                         _______ _______ _______ _____ _____    ______ ____
ROOT
ATOM      1  C   UNL     1       2.896   3.088  20.573  0.00  0.00    +0.000 C 
ATOM      2  C   UNL     1       2.475   4.195  19.590  0.00  0.00    +0.000 C 
ATOM      3  C   UNL     1       1.165   3.728  18.916  0.00  0.00    +0.000 C 
ATOM      4  N   UNL     1       2.109   5.372  20.422  0.00  0.00    +0.000 NA
ATOM      5  C   UNL     1       2.390   6.481  19.835  0.00  0.00    +0.000 C 
ATOM      6  N   UNL     1       2.084   7.731  20.286  0.00  0.00    +0.000 N 
ATOM      7  S   UNL     1       3.234   6.395  18.319  0.00  0.00    +0.000 S 
ATOM      8  C   UNL     1       3.609   4.609  18.577  0.00  0.00    +0.000 C 
ATOM      9  C   UNL     1       3.555   3.866  17.223  0.00  0.00    +0.000 C 
ATOM     10  C   UNL     1       4.672   4.255  16.246  0.00  0.00    +0.000 C 
ATOM     11  C   UNL     1       6.062   4.101  16.867  0.00  0.00    +0.000 C 
ATOM     12  C   UNL     1       7.142   4.583  15.898  0.00  0.00    +0.000 C 
ATOM     13  C   UNL     1       6.164   4.854  18.197  0.00  0.00    +0.000 C 
ATOM     14  C   UNL     1       5.038   4.473  19.163  0.00  0.00    +0.000 C 
ATOM     15  H   UNL     1       2.167   8.476  19.601  0.00  0.00    +0.000 HD
ENDROOT
BRANCH   6  16
ATOM     16  C   UNL     1       1.002   7.911  21.242  0.00  0.00    +0.000 C 
BRANCH  16  17
ATOM     17  C   UNL     1       0.210   9.216  20.997  0.00  0.00    +0.000 C 
BRANCH  17  18
ATOM     18  N   UNL     1       0.810  10.186  20.050  0.00  0.00    +0.000 NA
ATOM     19  C   UNL     1       0.064  10.307  18.780  0.00  0.00    +0.000 C 
ATOM     20  C   UNL     1      -1.276  11.075  18.882  0.00  0.00    +0.000 C 
ATOM     21  N   UNL     1      -1.158  12.441  19.435  0.00  0.00    +0.000 NA
ATOM     22  C   UNL     1      -0.425  12.349  20.724  0.00  0.00    +0.000 C 
ATOM     23  C   UNL     1       0.899  11.531  20.677  0.00  0.00    +0.000 C 
BRANCH  21  24
ATOM     24  C   UNL     1      -0.472  13.390  18.524  0.00  0.00    +0.000 C 
BRANCH  24  25
ATOM     25  C   UNL     1      -0.093  14.732  19.176  0.00  0.00    +0.000 C 
BRANCH  25  26
ATOM     26  O   UNL     1      -0.757  15.812  18.530  0.00  0.00    +0.000 OA
ATOM     27  H   UNL     1      -0.331  15.893  17.656  0.00  0.00    +0.000 HD
ENDBRANCH  25  26
ENDBRANCH  24  25
ENDBRANCH  21  24
ENDBRANCH  17  18
ENDBRANCH  16  17
ENDBRANCH   6  16
TORSDOF 6
ENDMDL
MODEL 2
REMARK VINA RESULT:      -7.1      1.264      1.725
REMARK  Name = 
REMARK  9 active torsions:
REMARK  status: ('A' for Active; 'I' for Inactive)
REMARK    1  A    between atoms: C_1  and  C_2
REMARK    2  A    between atoms: C_2  and  C_3
REMARK    3  A    between atoms: N_6  and  C_7
REMARK    4  A    between atoms: C_7  and  C_8
REMARK    5  A    between atoms: C_8  and  N_9
REMARK    6  A    between atoms: N_12  and  C_13
REMARK    7  A    between atoms: C_13  and  C_14
REMARK    8  A    between atoms: C_14  and  O_15
REMARK    9  A    between atoms: C_22  and  C_23
REMARK                            x       y       z     vdW  Elec       q    Type
REMARK                         _______ _______ _______ _____ _____    ______ ____
ROOT
ATOM      1  C   UNL     1       3.124   2.991  20.349  0.00  0.00    +0.000 C 
ATOM      2  C   UNL     1       2.653   4.117  19.411  0.00  0.00    +0.000 C 
ATOM      3  C   UNL     1       1.330   3.645  18.766  0.00  0.00    +0.000 C 
ATOM      4  N   UNL     1       2.296   5.265  20.286  0.00  0.00    +0.000 NA
ATOM      5  C   UNL     1       2.538   6.394  19.720  0.00  0.00    +0.000 C 
ATOM      6  N   UNL     1       2.227   7.626  20.215  0.00  0.00    +0.000 N 
ATOM      7  S   UNL     1       3.333   6.364  18.176  0.00  0.00    +0.000 S 
ATOM      8  C   UNL     1       3.746   4.578  18.373  0.00  0.00    +0.000 C 
ATOM      9  C   UNL     1       3.660   3.870  17.001  0.00  0.00    +0.000 C 
ATOM     10  C   UNL     1       4.737   4.305  16.000  0.00  0.00    +0.000 C 
ATOM     11  C   UNL     1       6.149   4.158  16.570  0.00  0.00    +0.000 C 
ATOM     12  C   UNL     1       7.189   4.685  15.580  0.00  0.00    +0.000 C 
ATOM     13  C   UNL     1       6.283   4.877  17.916  0.00  0.00    +0.000 C 
ATOM     14  C   UNL     1       5.196   4.451  18.908  0.00  0.00    +0.000 C 
ATOM     15  H   UNL     1       2.275   8.390  19.548  0.00  0.00    +0.000 HD
ENDROOT
BRANCH   6  16
ATOM     16  C   UNL     1       1.175   7.761  21.211  0.00  0.00    +0.000 C 
BRANCH  16  17
ATOM     17  C   UNL     1       1.067   9.202  21.762  0.00  0.00    +0.000 C 
BRANCH  17  18
ATOM     18  N   UNL     1      -0.177   9.942  21.441  0.00  0.00    +0.000 NA
ATOM     19  C   UNL     1      -0.026  11.410  21.529  0.00  0.00    +0.000 C 
ATOM     20  C   UNL     1       0.778  12.052  20.373  0.00  0.00    +0.000 C 
ATOM     21  N   UNL     1       0.251  11.760  19.024  0.00  0.00    +0.000 NA
ATOM     22  C   UNL     1       0.106  10.287  18.901  0.00  0.00    +0.000 C 
ATOM     23  C   UNL     1      -0.646   9.594  20.075  0.00  0.00    +0.000 C 
BRANCH  21  24
ATOM     24  C   UNL     1      -1.043  12.427  18.738  0.00  0.00    +0.000 C 
BRANCH  24  25
ATOM     25  C   UNL     1      -1.851  11.778  17.599  0.00  0.00    +0.000 C 
BRANCH  25  26
ATOM     26  O   UNL     1      -3.226  12.135  17.690  0.00  0.00    +0.000 OA
ATOM     27  H   UNL     1      -3.295  13.011  17.265  0.00  0.00    +0.000 HD
ENDBRANCH  25  26
ENDBRANCH  24  25
ENDBRANCH  21  24
ENDBRANCH  17  18
ENDBRANCH  16  17
ENDBRANCH   6  16
TORSDOF 6
ENDMDL
MODEL 3
REMARK VINA RESULT:      -6.9      1.108      1.476
REMARK  Name = 
REMARK  9 active torsions:
REMARK  status: ('A' for Active; 'I' for Inactive)
REMARK    1  A    between atoms: C_1  and  C_2
REMARK    2  A    between atoms: C_2  and  C_3
REMARK    3  A    between atoms: N_6  and  C_7
REMARK    4  A    between atoms: C_7  and  C_8
REMARK    5  A    between atoms: C_8  and  N_9
REMARK    6  A    between atoms: N_12  and  C_13
REMARK    7  A    between atoms: C_13  and  C_14
REMARK    8  A    between atoms: C_14  and  O_15
REMARK    9  A    between atoms: C_22  and  C_23
REMARK                            x       y       z     vdW  Elec       q    Type
REMARK                         _______ _______ _______ _____ _____    ______ ____
ROOT
ATOM      1  C   UNL     1       3.091   3.026  20.368  0.00  0.00    +0.000 C 
ATOM      2  C   UNL     1       2.635   4.142  19.411  0.00  0.00    +0.000 C 
ATOM      3  C   UNL     1       1.328   3.658  18.742  0.00  0.00    +0.000 C 
ATOM      4  N   UNL     1       2.252   5.294  20.270  0.00  0.00    +0.000 NA
ATOM      5  C   UNL     1       2.501   6.420  19.701  0.00  0.00    +0.000 C 
ATOM      6  N   UNL     1       2.173   7.654  20.180  0.00  0.00    +0.000 N 
ATOM      7  S   UNL     1       3.330   6.383  18.175  0.00  0.00    +0.000 S 
ATOM      8  C   UNL     1       3.748   4.601  18.394  0.00  0.00    +0.000 C 
ATOM      9  C   UNL     1       3.695   3.882  17.027  0.00  0.00    +0.000 C 
ATOM     10  C   UNL     1       4.792   4.316  16.046  0.00  0.00    +0.000 C 
ATOM     11  C   UNL     1       6.192   4.181  16.648  0.00  0.00    +0.000 C 
ATOM     12  C   UNL     1       7.251   4.705  15.678  0.00  0.00    +0.000 C 
ATOM     13  C   UNL     1       6.292   4.910  17.992  0.00  0.00    +0.000 C 
ATOM     14  C   UNL     1       5.186   4.485  18.962  0.00  0.00    +0.000 C 
ATOM     15  H   UNL     1       2.232   8.414  19.508  0.00  0.00    +0.000 HD
ENDROOT
BRANCH   6  16
ATOM     16  C   UNL     1       1.098   7.791  21.151  0.00  0.00    +0.000 C 
BRANCH  16  17
ATOM     17  C   UNL     1       0.924   9.250  21.635  0.00  0.00    +0.000 C 
BRANCH  17  18
ATOM     18  N   UNL     1      -0.389   9.884  21.365  0.00  0.00    +0.000 NA
ATOM     19  C   UNL     1      -0.555  11.196  22.024  0.00  0.00    +0.000 C 
ATOM     20  C   UNL     1       0.252  12.352  21.386  0.00  0.00    +0.000 C 
ATOM     21  N   UNL     1      -0.014  12.564  19.947  0.00  0.00    +0.000 NA
ATOM     22  C   UNL     1       0.162  11.262  19.255  0.00  0.00    +0.000 C 
ATOM     23  C   UNL     1      -0.586  10.059  19.902  0.00  0.00    +0.000 C 
BRANCH  21  24
ATOM     24  C   UNL     1      -1.366  13.111  19.671  0.00  0.00    +0.000 C 
BRANCH  24  25
ATOM     25  C   UNL     1      -1.729  14.353  20.506  0.00  0.00    +0.000 C 
BRANCH  25  26
ATOM     26  O   UNL     1      -3.120  14.636  20.409  0.00  0.00    +0.000 OA
ATOM     27  H   UNL     1      -3.391  14.310  19.530  0.00  0.00    +0.000 HD
ENDBRANCH  25  26
ENDBRANCH  24  25
ENDBRANCH  21  24
ENDBRANCH  17  18
ENDBRANCH  16  17
ENDBRANCH   6  16
TORSDOF 6
ENDMDL
MODEL 4
REMARK VINA RESULT:      -6.8      1.591      1.850
REMARK  Name = 
REMARK  9 active torsions:
REMARK  status: ('A' for Active; 'I' for Inactive)
REMARK    1  A    between atoms: C_1  and  C_2
REMARK    2  A    between atoms: C_2  and  C_3
REMARK    3  A    between atoms: N_6  and  C_7
REMARK    4  A    between atoms: C_7  and  C_8
REMARK    5  A    between atoms: C_8  and  N_9
REMARK    6  A    between atoms: N_12  and  C_13
REMARK    7  A    between atoms: C_13  and  C_14
REMARK    8  A    between atoms: C_14  and  O_15
REMARK    9  A    between atoms: C_22  and  C_23
REMARK                            x       y       z     vdW  Elec       q    Type
REMARK                         _______ _______ _______ _____ _____    ______ ____
ROOT
ATOM      1  C   UNL     1       3.032   3.126  20.526  0.00  0.00    +0.000 C 
ATOM      2  C   UNL     1       2.547   4.228  19.567  0.00  0.00    +0.000 C 
ATOM      3  C   UNL     1       1.249   3.713  18.904  0.00  0.00    +0.000 C 
ATOM      4  N   UNL     1       2.141   5.375  20.423  0.00  0.00    +0.000 NA
ATOM      5  C   UNL     1       2.363   6.504  19.850  0.00  0.00    +0.000 C 
ATOM      6  N   UNL     1       2.008   7.732  20.325  0.00  0.00    +0.000 N 
ATOM      7  S   UNL     1       3.186   6.480  18.320  0.00  0.00    +0.000 S 
ATOM      8  C   UNL     1       3.646   4.709  18.544  0.00  0.00    +0.000 C 
ATOM      9  C   UNL     1       3.605   3.984  17.180  0.00  0.00    +0.000 C 
ATOM     10  C   UNL     1       4.687   4.439  16.193  0.00  0.00    +0.000 C 
ATOM     11  C   UNL     1       6.093   4.338  16.791  0.00  0.00    +0.000 C 
ATOM     12  C   UNL     1       7.135   4.884  15.814  0.00  0.00    +0.000 C 
ATOM     13  C   UNL     1       6.181   5.074  18.131  0.00  0.00    +0.000 C 
ATOM     14  C   UNL     1       5.088   4.628  19.107  0.00  0.00    +0.000 C 
ATOM     15  H   UNL     1       2.047   8.490  19.651  0.00  0.00    +0.000 HD
ENDROOT
BRANCH   6  16
ATOM     16  C   UNL     1       0.934   7.848  21.300  0.00  0.00    +0.000 C 
BRANCH  16  17
ATOM     17  C   UNL     1       0.103   9.139  21.110  0.00  0.00    +0.000 C 
BRANCH  17  18
ATOM     18  N   UNL     1       0.620  10.361  21.770  0.00  0.00    +0.000 NA
ATOM     19  C   UNL     1       1.035  11.413  20.819  0.00  0.00    +0.000 C 
ATOM     20  C   UNL     1      -0.129  12.156  20.121  0.00  0.00    +0.000 C 
ATOM     21  N   UNL     1      -1.100  12.780  21.045  0.00  0.00    +0.000 NA
ATOM     22  C   UNL     1      -1.548  11.739  22.005  0.00  0.00    +0.000 C 
ATOM     23  C   UNL     1      -0.406  10.927  22.684  0.00  0.00    +0.000 C 
BRANCH  21  24
ATOM     24  C   UNL     1      -0.550  13.948  21.777  0.00  0.00    +0.000 C 
BRANCH  24  25
ATOM     25  C   UNL     1      -1.500  14.532  22.839  0.00  0.00    +0.000 C 
BRANCH  25  26
ATOM     26  O   UNL     1      -0.930  14.424  24.138  0.00  0.00    +0.000 OA
ATOM     27  H   UNL     1      -1.657  14.622  24.758  0.00  0.00    +0.000 HD
ENDBRANCH  25  26
ENDBRANCH  24  25
ENDBRANCH  21  24
ENDBRANCH  17  18
ENDBRANCH  16  17
ENDBRANCH   6  16
TORSDOF 6
ENDMDL
MODEL 5
REMARK VINA RESULT:      -6.7      0.862      1.081
REMARK  Name = 
REMARK  9 active torsions:
REMARK  status: ('A' for Active; 'I' for Inactive)
REMARK    1  A    between atoms: C_1  and  C_2
REMARK    2  A    between atoms: C_2  and  C_3
REMARK    3  A    between atoms: N_6  and  C_7
REMARK    4  A    between atoms: C_7  and  C_8
REMARK    5  A    between atoms: C_8  and  N_9
REMARK    6  A    between atoms: N_12  and  C_13
REMARK    7  A    between atoms: C_13  and  C_14
REMARK    8  A    between atoms: C_14  and  O_15
REMARK    9  A    between atoms: C_22  and  C_23
REMARK                            x       y       z     vdW  Elec       q    Type
REMARK                         _______ _______ _______ _____ _____    ______ ____
ROOT
ATOM      1  C   UNL     1       2.894   3.171  20.808  0.00  0.00    +0.000 C 
ATOM      2  C   UNL     1       2.412   4.247  19.819  0.00  0.00    +0.000 C 
ATOM      3  C   UNL     1       1.090   3.735  19.203  0.00  0.00    +0.000 C 
ATOM      4  N   UNL     1       2.047   5.433  20.641  0.00  0.00    +0.000 NA
ATOM      5  C   UNL     1       2.278   6.535  20.021  0.00  0.00    +0.000 C 
ATOM      6  N   UNL     1       1.958   7.787  20.458  0.00  0.00    +0.000 N 
ATOM      7  S   UNL     1       3.069   6.439  18.477  0.00  0.00    +0.000 S 
ATOM      8  C   UNL     1       3.497   4.668  18.757  0.00  0.00    +0.000 C 
ATOM      9  C   UNL     1       3.413   3.895  17.421  0.00  0.00    +0.000 C 
ATOM     10  C   UNL     1       4.483   4.291  16.397  0.00  0.00    +0.000 C 
ATOM     11  C   UNL     1       5.898   4.183  16.968  0.00  0.00    +0.000 C 
ATOM     12  C   UNL     1       6.931   4.671  15.951  0.00  0.00    +0.000 C 
ATOM     13  C   UNL     1       6.030   4.965  18.279  0.00  0.00    +0.000 C 
ATOM     14  C   UNL     1       4.950   4.578  19.293  0.00  0.00    +0.000 C 
ATOM     15  H   UNL     1       1.998   8.519  19.756  0.00  0.00    +0.000 HD
ENDROOT
BRANCH   6  16
ATOM     16  C   UNL     1       0.908   7.960  21.450  0.00  0.00    +0.000 C 
BRANCH  16  17
ATOM     17  C   UNL     1       0.030   9.202  21.167  0.00  0.00    +0.000 C 
BRANCH  17  18
ATOM     18  N   UNL     1       0.533  10.499  21.682  0.00  0.00    +0.000 NA
ATOM     19  C   UNL     1       1.089  11.373  20.629  0.00  0.00    +0.000 C 
ATOM     20  C   UNL     1       0.037  12.030  19.704  0.00  0.00    +0.000 C 
ATOM     21  N   UNL     1      -0.993  12.821  20.411  0.00  0.00    +0.000 NA
ATOM     22  C   UNL     1      -1.583  11.958  21.467  0.00  0.00    +0.000 C 
ATOM     23  C   UNL     1      -0.554  11.232  22.382  0.00  0.00    +0.000 C 
BRANCH  21  24
ATOM     24  C   UNL     1      -0.468  14.074  21.008  0.00  0.00    +0.000 C 
BRANCH  24  25
ATOM     25  C   UNL     1      -0.072  15.148  19.979  0.00  0.00    +0.000 C 
BRANCH  25  26
ATOM     26  O   UNL     1      -1.221  15.652  19.308  0.00  0.00    +0.000 OA
ATOM     27  H   UNL     1      -0.888  16.038  18.476  0.00  0.00    +0.000 HD
ENDBRANCH  25  26
ENDBRANCH  24  25
ENDBRANCH  21  24
ENDBRANCH  17  18
ENDBRANCH  16  17
ENDBRANCH   6  16
TORSDOF 6
ENDMDL
MODEL 6
REMARK VINA RESULT:      -6.6      7.195     10.490
REMARK  Name = 
REMARK  9 active torsions:
REMARK  status: ('A' for Active; 'I' for Inactive)
REMARK    1  A    between atoms: C_1  and  C_2
REMARK    2  A    between atoms: C_2  and  C_3
REMARK    3  A    between atoms: N_6  and  C_7
REMARK    4  A    between atoms: C_7  and  C_8
REMARK    5  A    between atoms: C_8  and  N_9
REMARK    6  A    between atoms: N_12  and  C_13
REMARK    7  A    between atoms: C_13  and  C_14
REMARK    8  A    between atoms: C_14  and  O_15
REMARK    9  A    between atoms: C_22  and  C_23
REMARK                            x       y       z     vdW  Elec       q    Type
REMARK                         _______ _______ _______ _____ _____    ______ ____
ROOT
ATOM      1  C   UNL     1      10.664  11.866  21.022  0.00  0.00    +0.000 C 
ATOM      2  C   UNL     1      10.350  11.781  19.518  0.00  0.00    +0.000 C 
ATOM      3  C   UNL     1      11.692  11.549  18.787  0.00  0.00    +0.000 C 
ATOM      4  N   UNL     1       9.560  10.535  19.327  0.00  0.00    +0.000 NA
ATOM      5  C   UNL     1       8.700  10.651  18.379  0.00  0.00    +0.000 C 
ATOM      6  N   UNL     1       7.900   9.660  17.891  0.00  0.00    +0.000 N 
ATOM      7  S   UNL     1       8.532  12.211  17.634  0.00  0.00    +0.000 S 
ATOM      8  C   UNL     1       9.522  13.006  18.971  0.00  0.00    +0.000 C 
ATOM      9  C   UNL     1      10.386  14.141  18.374  0.00  0.00    +0.000 C 
ATOM     10  C   UNL     1       9.580  15.341  17.861  0.00  0.00    +0.000 C 
ATOM     11  C   UNL     1       8.646  15.910  18.932  0.00  0.00    +0.000 C 
ATOM     12  C   UNL     1       7.795  17.044  18.359  0.00  0.00    +0.000 C 
ATOM     13  C   UNL     1       7.749  14.818  19.524  0.00  0.00    +0.000 C 
ATOM     14  C   UNL     1       8.557  13.615  20.020  0.00  0.00    +0.000 C 
ATOM     15  H   UNL     1       7.454   9.857  17.001  0.00  0.00    +0.000 HD
ENDROOT
BRANCH   6  16
ATOM     16  C   UNL     1       8.276   8.267  18.082  0.00  0.00    +0.000 C 
BRANCH  16  17
ATOM     17  C   UNL     1       7.469   7.310  17.174  0.00  0.00    +0.000 C 
BRANCH  17  18
ATOM     18  N   UNL     1       7.487   5.874  17.544  0.00  0.00    +0.000 NA
ATOM     19  C   UNL     1       7.061   5.620  18.935  0.00  0.00    +0.000 C 
ATOM     20  C   UNL     1       5.542   5.773  19.189  0.00  0.00    +0.000 C 
ATOM     21  N   UNL     1       4.688   4.932  18.324  0.00  0.00    +0.000 NA
ATOM     22  C   UNL     1       5.084   5.181  16.914  0.00  0.00    +0.000 C 
ATOM     23  C   UNL     1       6.612   5.095  16.629  0.00  0.00    +0.000 C 
BRANCH  21  24
ATOM     24  C   UNL     1       4.779   3.484  18.633  0.00  0.00    +0.000 C 
BRANCH  24  25
ATOM     25  C   UNL     1       3.780   2.607  17.856  0.00  0.00    +0.000 C 
BRANCH  25  26
ATOM     26  O   UNL     1       3.983   1.229  18.150  0.00  0.00    +0.000 OA
ATOM     27  H   UNL     1       4.353   1.209  19.053  0.00  0.00    +0.000 HD
ENDBRANCH  25  26
ENDBRANCH  24  25
ENDBRANCH  21  24
ENDBRANCH  17  18
ENDBRANCH  16  17
ENDBRANCH   6  16
TORSDOF 6
ENDMDL
MODEL 7
REMARK VINA RESULT:      -6.4      7.679     10.712
REMARK  Name = 
REMARK  9 active torsions:
REMARK  status: ('A' for Active; 'I' for Inactive)
REMARK    1  A    between atoms: C_1  and  C_2
REMARK    2  A    between atoms: C_2  and  C_3
REMARK    3  A    between atoms: N_6  and  C_7
REMARK    4  A    between atoms: C_7  and  C_8
REMARK    5  A    between atoms: C_8  and  N_9
REMARK    6  A    between atoms: N_12  and  C_13
REMARK    7  A    between atoms: C_13  and  C_14
REMARK    8  A    between atoms: C_14  and  O_15
REMARK    9  A    between atoms: C_22  and  C_23
REMARK                            x       y       z     vdW  Elec       q    Type
REMARK                         _______ _______ _______ _____ _____    ______ ____
ROOT
ATOM      1  C   UNL     1       9.729  12.467  21.656  0.00  0.00    +0.000 C 
ATOM      2  C   UNL     1      10.162  12.178  20.208  0.00  0.00    +0.000 C 
ATOM      3  C   UNL     1      11.622  11.672  20.264  0.00  0.00    +0.000 C 
ATOM      4  N   UNL     1       9.345  11.021  19.753  0.00  0.00    +0.000 NA
ATOM      5  C   UNL     1       9.081  11.085  18.496  0.00  0.00    +0.000 C 
ATOM      6  N   UNL     1       8.444  10.131  17.758  0.00  0.00    +0.000 N 
ATOM      7  S   UNL     1       9.580  12.512  17.642  0.00  0.00    +0.000 S 
ATOM      8  C   UNL     1       9.938  13.389  19.224  0.00  0.00    +0.000 C 
ATOM      9  C   UNL     1      11.174  14.300  19.045  0.00  0.00    +0.000 C 
ATOM     10  C   UNL     1      10.948  15.489  18.103  0.00  0.00    +0.000 C 
ATOM     11  C   UNL     1       9.739  16.331  18.516  0.00  0.00    +0.000 C 
ATOM     12  C   UNL     1       9.491  17.452  17.505  0.00  0.00    +0.000 C 
ATOM     13  C   UNL     1       8.485  15.465  18.671  0.00  0.00    +0.000 C 
ATOM     14  C   UNL     1       8.720  14.271  19.600  0.00  0.00    +0.000 C 
ATOM     15  H   UNL     1       8.522  10.233  16.751  0.00  0.00    +0.000 HD
ENDROOT
BRANCH   6  16
ATOM     16  C   UNL     1       8.419   8.753  18.224  0.00  0.00    +0.000 C 
BRANCH  16  17
ATOM     17  C   UNL     1       7.453   7.870  17.400  0.00  0.00    +0.000 C 
BRANCH  17  18
ATOM     18  N   UNL     1       7.591   6.403  17.567  0.00  0.00    +0.000 NA
ATOM     19  C   UNL     1       7.096   5.911  18.869  0.00  0.00    +0.000 C 
ATOM     20  C   UNL     1       5.556   5.887  19.014  0.00  0.00    +0.000 C 
ATOM     21  N   UNL     1       4.854   5.108  17.972  0.00  0.00    +0.000 NA
ATOM     22  C   UNL     1       5.320   5.595  16.648  0.00  0.00    +0.000 C 
ATOM     23  C   UNL     1       6.866   5.690  16.483  0.00  0.00    +0.000 C 
BRANCH  21  24
ATOM     24  C   UNL     1       5.070   3.644  18.083  0.00  0.00    +0.000 C 
BRANCH  24  25
ATOM     25  C   UNL     1       4.298   2.977  19.236  0.00  0.00    +0.000 C 
BRANCH  25  26
ATOM     26  O   UNL     1       5.045   1.896  19.784  0.00  0.00    +0.000 OA
ATOM     27  H   UNL     1       5.059   2.052  20.747  0.00  0.00    +0.000 HD
ENDBRANCH  25  26
ENDBRANCH  24  25
ENDBRANCH  21  24
ENDBRANCH  17  18
ENDBRANCH  16  17
ENDBRANCH   6  16
TORSDOF 6
ENDMDL
MODEL 8
REMARK VINA RESULT:      -6.4      1.356      1.741
REMARK  Name = 
REMARK  9 active torsions:
REMARK  status: ('A' for Active; 'I' for Inactive)
REMARK    1  A    between atoms: C_1  and  C_2
REMARK    2  A    between atoms: C_2  and  C_3
REMARK    3  A    between atoms: N_6  and  C_7
REMARK    4  A    between atoms: C_7  and  C_8
REMARK    5  A    between atoms: C_8  and  N_9
REMARK    6  A    between atoms: N_12  and  C_13
REMARK    7  A    between atoms: C_13  and  C_14
REMARK    8  A    between atoms: C_14  and  O_15
REMARK    9  A    between atoms: C_22  and  C_23
REMARK                            x       y       z     vdW  Elec       q    Type
REMARK                         _______ _______ _______ _____ _____    ______ ____
ROOT
ATOM      1  C   UNL     1       4.242   2.782  19.936  0.00  0.00    +0.000 C 
ATOM      2  C   UNL     1       3.485   3.795  19.059  0.00  0.00    +0.000 C 
ATOM      3  C   UNL     1       2.203   3.092  18.557  0.00  0.00    +0.000 C 
ATOM      4  N   UNL     1       3.028   4.876  19.973  0.00  0.00    +0.000 NA
ATOM      5  C   UNL     1       3.009   6.022  19.390  0.00  0.00    +0.000 C 
ATOM      6  N   UNL     1       2.542   7.188  19.921  0.00  0.00    +0.000 N 
ATOM      7  S   UNL     1       3.629   6.109  17.769  0.00  0.00    +0.000 S 
ATOM      8  C   UNL     1       4.365   4.425  17.912  0.00  0.00    +0.000 C 
ATOM      9  C   UNL     1       4.258   3.694  16.554  0.00  0.00    +0.000 C 
ATOM     10  C   UNL     1       5.131   4.295  15.446  0.00  0.00    +0.000 C 
ATOM     11  C   UNL     1       6.600   4.404  15.862  0.00  0.00    +0.000 C 
ATOM     12  C   UNL     1       7.421   5.089  14.769  0.00  0.00    +0.000 C 
ATOM     13  C   UNL     1       6.748   5.153  17.189  0.00  0.00    +0.000 C 
ATOM     14  C   UNL     1       5.863   4.558  18.289  0.00  0.00    +0.000 C 
ATOM     15  H   UNL     1       2.386   7.940  19.257  0.00  0.00    +0.000 HD
ENDROOT
BRANCH   6  16
ATOM     16  C   UNL     1       1.594   7.152  21.024  0.00  0.00    +0.000 C 
BRANCH  16  17
ATOM     17  C   UNL     1       1.214   8.566  21.520  0.00  0.00    +0.000 C 
BRANCH  17  18
ATOM     18  N   UNL     1      -0.161   9.029  21.211  0.00  0.00    +0.000 NA
ATOM     19  C   UNL     1      -0.742   9.889  22.262  0.00  0.00    +0.000 C 
ATOM     20  C   UNL     1      -0.162  11.323  22.326  0.00  0.00    +0.000 C 
ATOM     21  N   UNL     1      -0.257  12.079  21.060  0.00  0.00    +0.000 NA
ATOM     22  C   UNL     1       0.337  11.243  19.985  0.00  0.00    +0.000 C 
ATOM     23  C   UNL     1      -0.177   9.775  19.925  0.00  0.00    +0.000 C 
BRANCH  21  24
ATOM     24  C   UNL     1      -1.645  12.460  20.702  0.00  0.00    +0.000 C 
BRANCH  24  25
ATOM     25  C   UNL     1      -1.851  13.971  20.486  0.00  0.00    +0.000 C 
BRANCH  25  26
ATOM     26  O   UNL     1      -1.236  14.395  19.275  0.00  0.00    +0.000 OA
ATOM     27  H   UNL     1      -0.533  15.016  19.545  0.00  0.00    +0.000 HD
ENDBRANCH  25  26
ENDBRANCH  24  25
ENDBRANCH  21  24
ENDBRANCH  17  18
ENDBRANCH  16  17
ENDBRANCH   6  16
TORSDOF 6
ENDMDL
MODEL 9
REMARK VINA RESULT:      -6.4      1.766      2.077
REMARK  Name = 
REMARK  9 active torsions:
REMARK  status: ('A' for Active; 'I' for Inactive)
REMARK    1  A    between atoms: C_1  and  C_2
REMARK    2  A    between atoms: C_2  and  C_3
REMARK    3  A    between atoms: N_6  and  C_7
REMARK    4  A    between atoms: C_7  and  C_8
REMARK    5  A    between atoms: C_8  and  N_9
REMARK    6  A    between atoms: N_12  and  C_13
REMARK    7  A    between atoms: C_13  and  C_14
REMARK    8  A    between atoms: C_14  and  O_15
REMARK    9  A    between atoms: C_22  and  C_23
REMARK                            x       y       z     vdW  Elec       q    Type
REMARK                         _______ _______ _______ _____ _____    ______ ____
ROOT
ATOM      1  C   UNL     1       3.684   2.649  19.904  0.00  0.00    +0.000 C 
ATOM      2  C   UNL     1       3.096   3.782  19.044  0.00  0.00    +0.000 C 
ATOM      3  C   UNL     1       1.814   3.229  18.381  0.00  0.00    +0.000 C 
ATOM      4  N   UNL     1       2.644   4.833  19.994  0.00  0.00    +0.000 NA
ATOM      5  C   UNL     1       2.771   6.014  19.500  0.00  0.00    +0.000 C 
ATOM      6  N   UNL     1       2.352   7.177  20.075  0.00  0.00    +0.000 N 
ATOM      7  S   UNL     1       3.544   6.157  17.951  0.00  0.00    +0.000 S 
ATOM      8  C   UNL     1       4.127   4.409  18.030  0.00  0.00    +0.000 C 
ATOM      9  C   UNL     1       4.089   3.785  16.616  0.00  0.00    +0.000 C 
ATOM     10  C   UNL     1       5.106   4.383  15.637  0.00  0.00    +0.000 C 
ATOM     11  C   UNL     1       6.534   4.335  16.186  0.00  0.00    +0.000 C 
ATOM     12  C   UNL     1       7.506   5.019  15.224  0.00  0.00    +0.000 C 
ATOM     13  C   UNL     1       6.617   4.976  17.575  0.00  0.00    +0.000 C 
ATOM     14  C   UNL     1       5.589   4.387  18.545  0.00  0.00    +0.000 C 
ATOM     15  H   UNL     1       2.319   7.983  19.459  0.00  0.00    +0.000 HD
ENDROOT
BRANCH   6  16
ATOM     16  C   UNL     1       1.305   7.148  21.085  0.00  0.00    +0.000 C 
BRANCH  16  17
ATOM     17  C   UNL     1       0.363   8.371  20.992  0.00  0.00    +0.000 C 
BRANCH  17  18
ATOM     18  N   UNL     1       0.895   9.657  21.502  0.00  0.00    +0.000 NA
ATOM     19  C   UNL     1       0.471  10.827  20.704  0.00  0.00    +0.000 C 
ATOM     20  C   UNL     1      -1.007  11.243  20.895  0.00  0.00    +0.000 C 
ATOM     21  N   UNL     1      -1.390  11.524  22.294  0.00  0.00    +0.000 NA
ATOM     22  C   UNL     1      -0.990  10.355  23.119  0.00  0.00    +0.000 C 
ATOM     23  C   UNL     1       0.474   9.867  22.912  0.00  0.00    +0.000 C 
BRANCH  21  24
ATOM     24  C   UNL     1      -0.780  12.764  22.836  0.00  0.00    +0.000 C 
BRANCH  24  25
ATOM     25  C   UNL     1      -1.798  13.794  23.358  0.00  0.00    +0.000 C 
BRANCH  25  26
ATOM     26  O   UNL     1      -2.428  14.473  22.278  0.00  0.00    +0.000 OA
ATOM     27  H   UNL     1      -3.338  14.653  22.581  0.00  0.00    +0.000 HD
ENDBRANCH  25  26
ENDBRANCH  24  25
ENDBRANCH  21  24
ENDBRANCH  17  18
ENDBRANCH  16  17
ENDBRANCH   6  16
TORSDOF 6
ENDMDL
