MODEL 1
REMARK VINA RESULT:      -8.6      0.000      0.000
REMARK  Name = 
REMARK  11 active torsions:
REMARK  status: ('A' for Active; 'I' for Inactive)
REMARK    1  A    between atoms: C_1  and  C_2
REMARK    2  A    between atoms: C_6  and  C_7
REMARK    3  A    between atoms: C_9  and  C_10
REMARK    4  A    between atoms: C_10  and  N_11
REMARK    5  A    between atoms: N_11  and  C_12
REMARK    6  A    between atoms: C_16  and  C_17
REMARK    7  A    between atoms: C_19  and  C_20
REMARK    8  A    between atoms: C_20  and  N_21
REMARK    9  A    between atoms: N_21  and  C_22
REMARK   10  A    between atoms: N_21  and  C_23
REMARK   11  A    between atoms: C_25  and  C_26
REMARK                            x       y       z     vdW  Elec       q    Type
REMARK                         _______ _______ _______ _____ _____    ______ ____
ROOT
ATOM      1  C   UNL     1       3.868   7.139  17.607  0.00  0.00    +0.000 A 
ATOM      2  N   UNL     1       3.762   8.487  17.409  0.00  0.00    +0.000 N 
ATOM      3  C   UNL     1       2.544   8.868  17.885  0.00  0.00    +0.000 A 
ATOM      4  N   UNL     1       1.861   7.819  18.389  0.00  0.00    +0.000 NA
ATOM      5  C   UNL     1       2.682   6.752  18.227  0.00  0.00    +0.000 A 
ATOM      6  H   UNL     1       4.449   9.123  16.952  0.00  0.00    +0.000 HD
ENDROOT
BRANCH   5   7
ATOM      7  C   UNL     1       2.363   5.436  18.786  0.00  0.00    +0.000 A 
ATOM      8  C   UNL     1       1.785   4.438  17.975  0.00  0.00    +0.000 A 
ATOM      9  C   UNL     1       1.409   3.205  18.528  0.00  0.00    +0.000 A 
ATOM     10  C   UNL     1       1.607   3.027  19.895  0.00  0.00    +0.000 A 
ATOM     11  N   UNL     1       1.288   1.950  20.632  0.00  0.00    +0.000 NA
ATOM     12  C   UNL     1       1.678   2.318  21.879  0.00  0.00    +0.000 A 
ATOM     13  N   UNL     1       2.217   3.563  21.898  0.00  0.00    +0.000 NA
ATOM     14  N   UNL     1       2.160   3.983  20.648  0.00  0.00    +0.000 N 
ATOM     15  C   UNL     1       2.559   5.180  20.158  0.00  0.00    +0.000 A 
ENDBRANCH   5   7
BRANCH   1  21
ATOM     16  C   UNL     1       5.958   4.073  14.046  0.00  0.00    +0.000 C 
ATOM     17  C   UNL     1       6.025   4.717  15.494  0.00  0.00    +0.000 A 
ATOM     18  C   UNL     1       7.167   4.566  16.299  0.00  0.00    +0.000 A 
ATOM     19  C   UNL     1       7.240   5.251  17.533  0.00  0.00    +0.000 A 
ATOM     20  C   UNL     1       6.207   6.115  17.951  0.00  0.00    +0.000 A 
ATOM     21  C   UNL     1       5.039   6.219  17.193  0.00  0.00    +0.000 A 
ATOM     22  N   UNL     1       4.998   5.500  16.002  0.00  0.00    +0.000 NA
ENDBRANCH   1  21
BRANCH   3  23
ATOM     23  C   UNL     1       1.970  10.293  17.820  0.00  0.00    +0.000 C 
BRANCH  23  24
ATOM     24  N   UNL     1       0.514  10.338  17.946  0.00  0.00    +0.000 N 
ATOM     25  H   UNL     1      -0.050   9.899  17.211  0.00  0.00    +0.000 HD
BRANCH  24  26
ATOM     26  C   UNL     1      -0.160  10.909  19.085  0.00  0.00    +0.000 A 
ATOM     27  C   UNL     1       0.427  10.824  20.359  0.00  0.00    +0.000 A 
ATOM     28  C   UNL     1      -0.163  11.431  21.464  0.00  0.00    +0.000 A 
ATOM     29  C   UNL     1      -1.394  12.054  21.354  0.00  0.00    +0.000 A 
ATOM     30  C   UNL     1      -2.062  12.085  20.140  0.00  0.00    +0.000 A 
ATOM     31  C   UNL     1      -1.418  11.576  18.955  0.00  0.00    +0.000 A 
BRANCH  30  32
ATOM     32  C   UNL     1      -3.405  12.637  20.174  0.00  0.00    +0.000 C 
ATOM     33  N   UNL     1      -4.453  13.129  20.223  0.00  0.00    +0.000 NA
ENDBRANCH  30  32
BRANCH  31  34
ATOM     34  C   UNL     1      -2.031  11.742  17.571  0.00  0.00    +0.000 C 
BRANCH  34  35
ATOM     35  N   UNL     1      -2.291  10.441  16.927  0.00  0.00    +0.000 NA
ATOM     36  C   UNL     1      -3.331   9.667  17.635  0.00  0.00    +0.000 C 
ATOM     37  C   UNL     1      -2.725  10.626  15.539  0.00  0.00    +0.000 C 
ENDBRANCH  34  35
ENDBRANCH  31  34
ENDBRANCH  24  26
ENDBRANCH  23  24
ENDBRANCH   3  23
TORSDOF 8
ENDMDL
MODEL 2
REMARK VINA RESULT:      -8.2      0.555      1.221
REMARK  Name = 
REMARK  11 active torsions:
REMARK  status: ('A' for Active; 'I' for Inactive)
REMARK    1  A    between atoms: C_1  and  C_2
REMARK    2  A    between atoms: C_6  and  C_7
REMARK    3  A    between atoms: C_9  and  C_10
REMARK    4  A    between atoms: C_10  and  N_11
REMARK    5  A    between atoms: N_11  and  C_12
REMARK    6  A    between atoms: C_16  and  C_17
REMARK    7  A    between atoms: C_19  and  C_20
REMARK    8  A    between atoms: C_20  and  N_21
REMARK    9  A    between atoms: N_21  and  C_22
REMARK   10  A    between atoms: N_21  and  C_23
REMARK   11  A    between atoms: C_25  and  C_26
REMARK                            x       y       z     vdW  Elec       q    Type
REMARK                         _______ _______ _______ _____ _____    ______ ____
ROOT
ATOM      1  C   UNL     1       3.778   7.286  17.579  0.00  0.00    +0.000 A 
ATOM      2  N   UNL     1       3.639   8.636  17.409  0.00  0.00    +0.000 N 
ATOM      3  C   UNL     1       2.424   8.981  17.919  0.00  0.00    +0.000 A 
ATOM      4  N   UNL     1       1.775   7.909  18.418  0.00  0.00    +0.000 NA
ATOM      5  C   UNL     1       2.614   6.863  18.218  0.00  0.00    +0.000 A 
ATOM      6  H   UNL     1       4.302   9.294  16.949  0.00  0.00    +0.000 HD
ENDROOT
BRANCH   5   7
ATOM      7  C   UNL     1       2.336   5.531  18.759  0.00  0.00    +0.000 A 
ATOM      8  C   UNL     1       1.808   4.521  17.930  0.00  0.00    +0.000 A 
ATOM      9  C   UNL     1       1.469   3.269  18.465  0.00  0.00    +0.000 A 
ATOM     10  C   UNL     1       1.652   3.084  19.833  0.00  0.00    +0.000 A 
ATOM     11  N   UNL     1       1.363   1.989  20.554  0.00  0.00    +0.000 NA
ATOM     12  C   UNL     1       1.720   2.358  21.810  0.00  0.00    +0.000 A 
ATOM     13  N   UNL     1       2.211   3.621  21.851  0.00  0.00    +0.000 NA
ATOM     14  N   UNL     1       2.158   4.052  20.604  0.00  0.00    +0.000 N 
ATOM     15  C   UNL     1       2.520   5.268  20.131  0.00  0.00    +0.000 A 
ENDBRANCH   5   7
BRANCH   1  21
ATOM     16  C   UNL     1       8.206   4.964  18.779  0.00  0.00    +0.000 C 
ATOM     17  C   UNL     1       7.106   5.313  17.691  0.00  0.00    +0.000 A 
ATOM     18  C   UNL     1       7.138   4.724  16.415  0.00  0.00    +0.000 A 
ATOM     19  C   UNL     1       6.078   4.966  15.513  0.00  0.00    +0.000 A 
ATOM     20  C   UNL     1       4.968   5.754  15.884  0.00  0.00    +0.000 A 
ATOM     21  C   UNL     1       4.958   6.400  17.123  0.00  0.00    +0.000 A 
ATOM     22  N   UNL     1       6.040   6.159  17.965  0.00  0.00    +0.000 NA
ENDBRANCH   1  21
BRANCH   3  23
ATOM     23  C   UNL     1       1.819  10.395  17.893  0.00  0.00    +0.000 C 
BRANCH  23  24
ATOM     24  N   UNL     1       0.361  10.404  18.014  0.00  0.00    +0.000 N 
ATOM     25  H   UNL     1      -0.188   9.927  17.292  0.00  0.00    +0.000 HD
BRANCH  24  26
ATOM     26  C   UNL     1      -0.330  10.992  19.134  0.00  0.00    +0.000 A 
ATOM     27  C   UNL     1       0.247  10.946  20.414  0.00  0.00    +0.000 A 
ATOM     28  C   UNL     1      -0.362  11.570  21.499  0.00  0.00    +0.000 A 
ATOM     29  C   UNL     1      -1.601  12.171  21.365  0.00  0.00    +0.000 A 
ATOM     30  C   UNL     1      -2.259  12.164  20.144  0.00  0.00    +0.000 A 
ATOM     31  C   UNL     1      -1.597  11.636  18.978  0.00  0.00    +0.000 A 
BRANCH  30  32
ATOM     32  C   UNL     1      -3.611  12.695  20.155  0.00  0.00    +0.000 C 
ATOM     33  N   UNL     1      -4.672  13.159  20.206  0.00  0.00    +0.000 NA
ENDBRANCH  30  32
BRANCH  31  34
ATOM     34  C   UNL     1      -2.201  11.760  17.585  0.00  0.00    +0.000 C 
BRANCH  34  35
ATOM     35  N   UNL     1      -2.363  10.444  16.939  0.00  0.00    +0.000 NA
ATOM     36  C   UNL     1      -3.386   9.616  17.611  0.00  0.00    +0.000 C 
ATOM     37  C   UNL     1      -2.754  10.600  15.534  0.00  0.00    +0.000 C 
ENDBRANCH  34  35
ENDBRANCH  31  34
ENDBRANCH  24  26
ENDBRANCH  23  24
ENDBRANCH   3  23
TORSDOF 8
ENDMDL
MODEL 3
REMARK VINA RESULT:      -8.1      0.963      2.317
REMARK  Name = 
REMARK  11 active torsions:
REMARK  status: ('A' for Active; 'I' for Inactive)
REMARK    1  A    between atoms: C_1  and  C_2
REMARK    2  A    between atoms: C_6  and  C_7
REMARK    3  A    between atoms: C_9  and  C_10
REMARK    4  A    between atoms: C_10  and  N_11
REMARK    5  A    between atoms: N_11  and  C_12
REMARK    6  A    between atoms: C_16  and  C_17
REMARK    7  A    between atoms: C_19  and  C_20
REMARK    8  A    between atoms: C_20  and  N_21
REMARK    9  A    between atoms: N_21  and  C_22
REMARK   10  A    between atoms: N_21  and  C_23
REMARK   11  A    between atoms: C_25  and  C_26
REMARK                            x       y       z     vdW  Elec       q    Type
REMARK                         _______ _______ _______ _____ _____    ______ ____
ROOT
ATOM      1  C   UNL     1       3.810   7.180  17.603  0.00  0.00    +0.000 A 
ATOM      2  N   UNL     1       3.670   8.527  17.412  0.00  0.00    +0.000 N 
ATOM      3  C   UNL     1       2.450   8.878  17.904  0.00  0.00    +0.000 A 
ATOM      4  N   UNL     1       1.798   7.812  18.412  0.00  0.00    +0.000 NA
ATOM      5  C   UNL     1       2.641   6.764  18.236  0.00  0.00    +0.000 A 
ATOM      6  H   UNL     1       4.337   9.180  16.949  0.00  0.00    +0.000 HD
ENDROOT
BRANCH   5   7
ATOM      7  C   UNL     1       2.359   5.439  18.794  0.00  0.00    +0.000 A 
ATOM      8  C   UNL     1       1.831   4.420  17.976  0.00  0.00    +0.000 A 
ATOM      9  C   UNL     1       1.489   3.175  18.527  0.00  0.00    +0.000 A 
ATOM     10  C   UNL     1       1.669   3.008  19.898  0.00  0.00    +0.000 A 
ATOM     11  N   UNL     1       1.376   1.923  20.632  0.00  0.00    +0.000 NA
ATOM     12  C   UNL     1       1.731   2.307  21.884  0.00  0.00    +0.000 A 
ATOM     13  N   UNL     1       2.224   3.570  21.909  0.00  0.00    +0.000 NA
ATOM     14  N   UNL     1       2.175   3.985  20.657  0.00  0.00    +0.000 N 
ATOM     15  C   UNL     1       2.540   5.194  20.170  0.00  0.00    +0.000 A 
ENDBRANCH   5   7
BRANCH   1  21
ATOM     16  C   UNL     1       5.905   4.139  14.025  0.00  0.00    +0.000 C 
ATOM     17  C   UNL     1       5.986   4.799  15.465  0.00  0.00    +0.000 A 
ATOM     18  C   UNL     1       7.149   4.687  16.246  0.00  0.00    +0.000 A 
ATOM     19  C   UNL     1       7.231   5.386  17.471  0.00  0.00    +0.000 A 
ATOM     20  C   UNL     1       6.184   6.225  17.905  0.00  0.00    +0.000 A 
ATOM     21  C   UNL     1       4.997   6.289  17.171  0.00  0.00    +0.000 A 
ATOM     22  N   UNL     1       4.950   5.558  15.989  0.00  0.00    +0.000 NA
ENDBRANCH   1  21
BRANCH   3  23
ATOM     23  C   UNL     1       1.843  10.289  17.852  0.00  0.00    +0.000 C 
BRANCH  23  24
ATOM     24  N   UNL     1       0.831  10.524  18.882  0.00  0.00    +0.000 N 
ATOM     25  H   UNL     1       1.143  10.633  19.852  0.00  0.00    +0.000 HD
BRANCH  24  26
ATOM     26  C   UNL     1      -0.571  10.677  18.585  0.00  0.00    +0.000 A 
ATOM     27  C   UNL     1      -1.114  10.066  17.442  0.00  0.00    +0.000 A 
ATOM     28  C   UNL     1      -2.478  10.134  17.171  0.00  0.00    +0.000 A 
ATOM     29  C   UNL     1      -3.321  10.886  17.969  0.00  0.00    +0.000 A 
ATOM     30  C   UNL     1      -2.821  11.586  19.057  0.00  0.00    +0.000 A 
ATOM     31  C   UNL     1      -1.439  11.433  19.433  0.00  0.00    +0.000 A 
BRANCH  30  32
ATOM     32  C   UNL     1      -3.768  12.454  19.736  0.00  0.00    +0.000 C 
ATOM     33  N   UNL     1      -4.477  13.170  20.310  0.00  0.00    +0.000 NA
ENDBRANCH  30  32
BRANCH  31  34
ATOM     34  C   UNL     1      -0.882  12.039  20.715  0.00  0.00    +0.000 C 
BRANCH  34  35
ATOM     35  N   UNL     1      -1.269  11.256  21.904  0.00  0.00    +0.000 NA
ATOM     36  C   UNL     1      -0.144  10.458  22.435  0.00  0.00    +0.000 C 
ATOM     37  C   UNL     1      -1.749  12.137  22.973  0.00  0.00    +0.000 C 
ENDBRANCH  34  35
ENDBRANCH  31  34
ENDBRANCH  24  26
ENDBRANCH  23  24
ENDBRANCH   3  23
TORSDOF 8
ENDMDL
MODEL 4
REMARK VINA RESULT:      -8.1      1.730      4.604
REMARK  Name = 
REMARK  11 active torsions:
REMARK  status: ('A' for Active; 'I' for Inactive)
REMARK    1  A    between atoms: C_1  and  C_2
REMARK    2  A    between atoms: C_6  and  C_7
REMARK    3  A    between atoms: C_9  and  C_10
REMARK    4  A    between atoms: C_10  and  N_11
REMARK    5  A    between atoms: N_11  and  C_12
REMARK    6  A    between atoms: C_16  and  C_17
REMARK    7  A    between atoms: C_19  and  C_20
REMARK    8  A    between atoms: C_20  and  N_21
REMARK    9  A    between atoms: N_21  and  C_22
REMARK   10  A    between atoms: N_21  and  C_23
REMARK   11  A    between atoms: C_25  and  C_26
REMARK                            x       y       z     vdW  Elec       q    Type
REMARK                         _______ _______ _______ _____ _____    ______ ____
ROOT
ATOM      1  C   UNL     1       2.408   6.452  19.104  0.00  0.00    +0.000 A 
ATOM      2  N   UNL     1       1.471   7.434  19.265  0.00  0.00    +0.000 N 
ATOM      3  C   UNL     1       1.905   8.521  18.569  0.00  0.00    +0.000 A 
ATOM      4  N   UNL     1       3.083   8.277  17.958  0.00  0.00    +0.000 NA
ATOM      5  C   UNL     1       3.390   6.996  18.280  0.00  0.00    +0.000 A 
ATOM      6  H   UNL     1       0.600   7.400  19.835  0.00  0.00    +0.000 HD
ENDROOT
BRANCH   5   7
ATOM      7  C   UNL     1       4.532   6.299  17.684  0.00  0.00    +0.000 A 
ATOM      8  C   UNL     1       5.585   5.833  18.497  0.00  0.00    +0.000 A 
ATOM      9  C   UNL     1       6.715   5.235  17.920  0.00  0.00    +0.000 A 
ATOM     10  C   UNL     1       6.757   5.148  16.531  0.00  0.00    +0.000 A 
ATOM     11  N   UNL     1       7.750   4.651  15.775  0.00  0.00    +0.000 NA
ATOM     12  C   UNL     1       7.279   4.828  14.514  0.00  0.00    +0.000 A 
ATOM     13  N   UNL     1       6.050   5.402  14.505  0.00  0.00    +0.000 NA
ATOM     14  N   UNL     1       5.748   5.591  15.775  0.00  0.00    +0.000 N 
ATOM     15  C   UNL     1       4.628   6.156  16.285  0.00  0.00    +0.000 A 
ENDBRANCH   5   7
BRANCH   1  21
ATOM     16  C   UNL     1       3.422   1.438  18.583  0.00  0.00    +0.000 C 
ATOM     17  C   UNL     1       2.862   2.626  19.472  0.00  0.00    +0.000 A 
ATOM     18  C   UNL     1       2.516   2.419  20.818  0.00  0.00    +0.000 A 
ATOM     19  C   UNL     1       2.133   3.524  21.613  0.00  0.00    +0.000 A 
ATOM     20  C   UNL     1       2.133   4.834  21.090  0.00  0.00    +0.000 A 
ATOM     21  C   UNL     1       2.407   5.042  19.737  0.00  0.00    +0.000 A 
ATOM     22  N   UNL     1       2.746   3.920  18.986  0.00  0.00    +0.000 NA
ENDBRANCH   1  21
BRANCH   3  23
ATOM     23  C   UNL     1       1.194   9.883  18.512  0.00  0.00    +0.000 C 
BRANCH  23  24
ATOM     24  N   UNL     1       1.419  10.705  19.701  0.00  0.00    +0.000 N 
ATOM     25  H   UNL     1       2.063  11.500  19.625  0.00  0.00    +0.000 HD
BRANCH  24  26
ATOM     26  C   UNL     1       0.729  10.490  20.947  0.00  0.00    +0.000 A 
ATOM     27  C   UNL     1       1.132   9.448  21.799  0.00  0.00    +0.000 A 
ATOM     28  C   UNL     1       0.533   9.263  23.042  0.00  0.00    +0.000 A 
ATOM     29  C   UNL     1      -0.541  10.043  23.431  0.00  0.00    +0.000 A 
ATOM     30  C   UNL     1      -1.040  11.025  22.589  0.00  0.00    +0.000 A 
ATOM     31  C   UNL     1      -0.362  11.320  21.353  0.00  0.00    +0.000 A 
BRANCH  30  32
ATOM     32  C   UNL     1      -2.255  11.682  23.040  0.00  0.00    +0.000 C 
ATOM     33  N   UNL     1      -3.256  12.156  23.382  0.00  0.00    +0.000 NA
ENDBRANCH  30  32
BRANCH  31  34
ATOM     34  C   UNL     1      -0.763  12.500  20.477  0.00  0.00    +0.000 C 
BRANCH  34  35
ATOM     35  N   UNL     1      -1.555  12.071  19.309  0.00  0.00    +0.000 NA
ATOM     36  C   UNL     1      -2.997  12.340  19.485  0.00  0.00    +0.000 C 
ATOM     37  C   UNL     1      -1.106  12.761  18.095  0.00  0.00    +0.000 C 
ENDBRANCH  34  35
ENDBRANCH  31  34
ENDBRANCH  24  26
ENDBRANCH  23  24
ENDBRANCH   3  23
TORSDOF 8
ENDMDL
MODEL 5
REMARK VINA RESULT:      -8.0      1.931      5.110
REMARK  Name = 
REMARK  11 active torsions:
REMARK  status: ('A' for Active; 'I' for Inactive)
REMARK    1  A    between atoms: C_1  and  C_2
REMARK    2  A    between atoms: C_6  and  C_7
REMARK    3  A    between atoms: C_9  and  C_10
REMARK    4  A    between atoms: C_10  and  N_11
REMARK    5  A    between atoms: N_11  and  C_12
REMARK    6  A    between atoms: C_16  and  C_17
REMARK    7  A    between atoms: C_19  and  C_20
REMARK    8  A    between atoms: C_20  and  N_21
REMARK    9  A    between atoms: N_21  and  C_22
REMARK   10  A    between atoms: N_21  and  C_23
REMARK   11  A    between atoms: C_25  and  C_26
REMARK                            x       y       z     vdW  Elec       q    Type
REMARK                         _______ _______ _______ _____ _____    ______ ____
ROOT
ATOM      1  C   UNL     1       2.317   6.371  18.475  0.00  0.00    +0.000 A 
ATOM      2  N   UNL     1       1.450   7.397  18.729  0.00  0.00    +0.000 N 
ATOM      3  C   UNL     1       2.073   8.550  18.360  0.00  0.00    +0.000 A 
ATOM      4  N   UNL     1       3.307   8.309  17.871  0.00  0.00    +0.000 NA
ATOM      5  C   UNL     1       3.455   6.963  17.933  0.00  0.00    +0.000 A 
ATOM      6  H   UNL     1       0.501   7.342  19.156  0.00  0.00    +0.000 HD
ENDROOT
BRANCH   5   7
ATOM      7  C   UNL     1       4.615   6.282  17.351  0.00  0.00    +0.000 A 
ATOM      8  C   UNL     1       5.669   5.839  18.176  0.00  0.00    +0.000 A 
ATOM      9  C   UNL     1       6.814   5.257  17.612  0.00  0.00    +0.000 A 
ATOM     10  C   UNL     1       6.870   5.164  16.223  0.00  0.00    +0.000 A 
ATOM     11  N   UNL     1       7.878   4.681  15.479  0.00  0.00    +0.000 NA
ATOM     12  C   UNL     1       7.415   4.844  14.213  0.00  0.00    +0.000 A 
ATOM     13  N   UNL     1       6.177   5.396  14.190  0.00  0.00    +0.000 NA
ATOM     14  N   UNL     1       5.860   5.586  15.457  0.00  0.00    +0.000 N 
ATOM     15  C   UNL     1       4.726   6.134  15.954  0.00  0.00    +0.000 A 
ENDBRANCH   5   7
BRANCH   1  21
ATOM     16  C   UNL     1       1.542   2.670  21.960  0.00  0.00    +0.000 C 
ATOM     17  C   UNL     1       1.767   3.086  20.446  0.00  0.00    +0.000 A 
ATOM     18  C   UNL     1       1.635   2.143  19.412  0.00  0.00    +0.000 A 
ATOM     19  C   UNL     1       1.725   2.573  18.068  0.00  0.00    +0.000 A 
ATOM     20  C   UNL     1       1.902   3.935  17.747  0.00  0.00    +0.000 A 
ATOM     21  C   UNL     1       2.104   4.868  18.766  0.00  0.00    +0.000 A 
ATOM     22  N   UNL     1       2.040   4.394  20.073  0.00  0.00    +0.000 NA
ENDBRANCH   1  21
BRANCH   3  23
ATOM     23  C   UNL     1       1.493   9.965  18.521  0.00  0.00    +0.000 C 
BRANCH  23  24
ATOM     24  N   UNL     1       0.124   9.975  19.036  0.00  0.00    +0.000 N 
ATOM     25  H   UNL     1      -0.644   9.814  18.375  0.00  0.00    +0.000 HD
BRANCH  24  26
ATOM     26  C   UNL     1      -0.188  10.134  20.434  0.00  0.00    +0.000 A 
ATOM     27  C   UNL     1      -0.180   9.015  21.283  0.00  0.00    +0.000 A 
ATOM     28  C   UNL     1      -0.404   9.149  22.650  0.00  0.00    +0.000 A 
ATOM     29  C   UNL     1      -0.736  10.377  23.195  0.00  0.00    +0.000 A 
ATOM     30  C   UNL     1      -0.850  11.498  22.387  0.00  0.00    +0.000 A 
ATOM     31  C   UNL     1      -0.502  11.412  20.991  0.00  0.00    +0.000 A 
BRANCH  30  32
ATOM     32  C   UNL     1      -1.342  12.698  23.041  0.00  0.00    +0.000 C 
ATOM     33  N   UNL     1      -1.711  13.688  23.517  0.00  0.00    +0.000 NA
ENDBRANCH  30  32
BRANCH  31  34
ATOM     34  C   UNL     1      -0.442  12.647  20.100  0.00  0.00    +0.000 C 
BRANCH  34  35
ATOM     35  N   UNL     1       0.938  13.146  19.948  0.00  0.00    +0.000 NA
ATOM     36  C   UNL     1       1.213  13.612  18.574  0.00  0.00    +0.000 C 
ATOM     37  C   UNL     1       1.192  14.259  20.867  0.00  0.00    +0.000 C 
ENDBRANCH  34  35
ENDBRANCH  31  34
ENDBRANCH  24  26
ENDBRANCH  23  24
ENDBRANCH   3  23
TORSDOF 8
ENDMDL
MODEL 6
REMARK VINA RESULT:      -8.0      1.407      4.338
REMARK  Name = 
REMARK  11 active torsions:
REMARK  status: ('A' for Active; 'I' for Inactive)
REMARK    1  A    between atoms: C_1  and  C_2
REMARK    2  A    between atoms: C_6  and  C_7
REMARK    3  A    between atoms: C_9  and  C_10
REMARK    4  A    between atoms: C_10  and  N_11
REMARK    5  A    between atoms: N_11  and  C_12
REMARK    6  A    between atoms: C_16  and  C_17
REMARK    7  A    between atoms: C_19  and  C_20
REMARK    8  A    between atoms: C_20  and  N_21
REMARK    9  A    between atoms: N_21  and  C_22
REMARK   10  A    between atoms: N_21  and  C_23
REMARK   11  A    between atoms: C_25  and  C_26
REMARK                            x       y       z     vdW  Elec       q    Type
REMARK                         _______ _______ _______ _____ _____    ______ ____
ROOT
ATOM      1  C   UNL     1       2.505   6.524  19.042  0.00  0.00    +0.000 A 
ATOM      2  N   UNL     1       1.588   7.522  19.223  0.00  0.00    +0.000 N 
ATOM      3  C   UNL     1       2.035   8.608  18.534  0.00  0.00    +0.000 A 
ATOM      4  N   UNL     1       3.203   8.349  17.909  0.00  0.00    +0.000 NA
ATOM      5  C   UNL     1       3.488   7.059  18.214  0.00  0.00    +0.000 A 
ATOM      6  H   UNL     1       0.722   7.498  19.801  0.00  0.00    +0.000 HD
ENDROOT
BRANCH   5   7
ATOM      7  C   UNL     1       4.612   6.347  17.600  0.00  0.00    +0.000 A 
ATOM      8  C   UNL     1       5.788   6.100  18.337  0.00  0.00    +0.000 A 
ATOM      9  C   UNL     1       6.892   5.488  17.726  0.00  0.00    +0.000 A 
ATOM     10  C   UNL     1       6.782   5.165  16.376  0.00  0.00    +0.000 A 
ATOM     11  N   UNL     1       7.721   4.612  15.591  0.00  0.00    +0.000 NA
ATOM     12  C   UNL     1       7.095   4.536  14.389  0.00  0.00    +0.000 A 
ATOM     13  N   UNL     1       5.828   5.016  14.442  0.00  0.00    +0.000 NA
ATOM     14  N   UNL     1       5.658   5.402  15.693  0.00  0.00    +0.000 N 
ATOM     15  C   UNL     1       4.559   5.971  16.243  0.00  0.00    +0.000 A 
ENDBRANCH   5   7
BRANCH   1  21
ATOM     16  C   UNL     1       3.504   1.510  18.488  0.00  0.00    +0.000 C 
ATOM     17  C   UNL     1       2.931   2.692  19.378  0.00  0.00    +0.000 A 
ATOM     18  C   UNL     1       2.556   2.473  20.714  0.00  0.00    +0.000 A 
ATOM     19  C   UNL     1       2.162   3.570  21.512  0.00  0.00    +0.000 A 
ATOM     20  C   UNL     1       2.179   4.886  21.004  0.00  0.00    +0.000 A 
ATOM     21  C   UNL     1       2.483   5.107  19.659  0.00  0.00    +0.000 A 
ATOM     22  N   UNL     1       2.832   3.992  18.904  0.00  0.00    +0.000 NA
ENDBRANCH   1  21
BRANCH   3  23
ATOM     23  C   UNL     1       1.349   9.983  18.500  0.00  0.00    +0.000 C 
BRANCH  23  24
ATOM     24  N   UNL     1      -0.043   9.949  18.946  0.00  0.00    +0.000 N 
ATOM     25  H   UNL     1      -0.732   9.478  18.350  0.00  0.00    +0.000 HD
BRANCH  24  26
ATOM     26  C   UNL     1      -0.475  10.484  20.213  0.00  0.00    +0.000 A 
ATOM     27  C   UNL     1       0.039   9.954  21.408  0.00  0.00    +0.000 A 
ATOM     28  C   UNL     1      -0.302  10.500  22.642  0.00  0.00    +0.000 A 
ATOM     29  C   UNL     1      -1.234  11.519  22.730  0.00  0.00    +0.000 A 
ATOM     30  C   UNL     1      -1.843  12.017  21.589  0.00  0.00    +0.000 A 
ATOM     31  C   UNL     1      -1.416  11.557  20.291  0.00  0.00    +0.000 A 
BRANCH  30  32
ATOM     32  C   UNL     1      -2.905  12.982  21.812  0.00  0.00    +0.000 C 
ATOM     33  N   UNL     1      -3.740  13.751  22.051  0.00  0.00    +0.000 NA
ENDBRANCH  30  32
BRANCH  31  34
ATOM     34  C   UNL     1      -1.926  12.193  19.004  0.00  0.00    +0.000 C 
BRANCH  34  35
ATOM     35  N   UNL     1      -2.883  11.318  18.302  0.00  0.00    +0.000 NA
ATOM     36  C   UNL     1      -4.282  11.750  18.500  0.00  0.00    +0.000 C 
ATOM     37  C   UNL     1      -2.610  11.299  16.862  0.00  0.00    +0.000 C 
ENDBRANCH  34  35
ENDBRANCH  31  34
ENDBRANCH  24  26
ENDBRANCH  23  24
ENDBRANCH   3  23
TORSDOF 8
ENDMDL
MODEL 7
REMARK VINA RESULT:      -8.0      1.330      4.677
REMARK  Name = 
REMARK  11 active torsions:
REMARK  status: ('A' for Active; 'I' for Inactive)
REMARK    1  A    between atoms: C_1  and  C_2
REMARK    2  A    between atoms: C_6  and  C_7
REMARK    3  A    between atoms: C_9  and  C_10
REMARK    4  A    between atoms: C_10  and  N_11
REMARK    5  A    between atoms: N_11  and  C_12
REMARK    6  A    between atoms: C_16  and  C_17
REMARK    7  A    between atoms: C_19  and  C_20
REMARK    8  A    between atoms: C_20  and  N_21
REMARK    9  A    between atoms: N_21  and  C_22
REMARK   10  A    between atoms: N_21  and  C_23
REMARK   11  A    between atoms: C_25  and  C_26
REMARK                            x       y       z     vdW  Elec       q    Type
REMARK                         _______ _______ _______ _____ _____    ______ ____
ROOT
ATOM      1  C   UNL     1       2.471   6.348  18.401  0.00  0.00    +0.000 A 
ATOM      2  N   UNL     1       1.578   7.330  18.731  0.00  0.00    +0.000 N 
ATOM      3  C   UNL     1       2.128   8.516  18.352  0.00  0.00    +0.000 A 
ATOM      4  N   UNL     1       3.338   8.340  17.783  0.00  0.00    +0.000 NA
ATOM      5  C   UNL     1       3.547   7.001  17.804  0.00  0.00    +0.000 A 
ATOM      6  H   UNL     1       0.661   7.225  19.214  0.00  0.00    +0.000 HD
ENDROOT
BRANCH   5   7
ATOM      7  C   UNL     1       4.697   6.384  17.138  0.00  0.00    +0.000 A 
ATOM      8  C   UNL     1       6.001   6.592  17.630  0.00  0.00    +0.000 A 
ATOM      9  C   UNL     1       7.109   6.066  16.948  0.00  0.00    +0.000 A 
ATOM     10  C   UNL     1       6.864   5.364  15.770  0.00  0.00    +0.000 A 
ATOM     11  N   UNL     1       7.770   4.813  14.946  0.00  0.00    +0.000 NA
ATOM     12  C   UNL     1       6.995   4.282  13.966  0.00  0.00    +0.000 A 
ATOM     13  N   UNL     1       5.674   4.496  14.188  0.00  0.00    +0.000 NA
ATOM     14  N   UNL     1       5.620   5.173  15.320  0.00  0.00    +0.000 N 
ATOM     15  C   UNL     1       4.518   5.642  15.953  0.00  0.00    +0.000 A 
ENDBRANCH   5   7
BRANCH   1  21
ATOM     16  C   UNL     1       1.959   2.556  21.836  0.00  0.00    +0.000 C 
ATOM     17  C   UNL     1       2.130   3.007  20.325  0.00  0.00    +0.000 A 
ATOM     18  C   UNL     1       2.024   2.077  19.277  0.00  0.00    +0.000 A 
ATOM     19  C   UNL     1       2.063   2.532  17.940  0.00  0.00    +0.000 A 
ATOM     20  C   UNL     1       2.165   3.907  17.639  0.00  0.00    +0.000 A 
ATOM     21  C   UNL     1       2.340   4.832  18.670  0.00  0.00    +0.000 A 
ATOM     22  N   UNL     1       2.329   4.334  19.969  0.00  0.00    +0.000 NA
ENDBRANCH   1  21
BRANCH   3  23
ATOM     23  C   UNL     1       1.498   9.901  18.579  0.00  0.00    +0.000 C 
BRANCH  23  24
ATOM     24  N   UNL     1       0.117   9.839  19.057  0.00  0.00    +0.000 N 
ATOM     25  H   UNL     1      -0.603   9.496  18.413  0.00  0.00    +0.000 HD
BRANCH  24  26
ATOM     26  C   UNL     1      -0.263  10.172  20.407  0.00  0.00    +0.000 A 
ATOM     27  C   UNL     1       0.239   9.417  21.480  0.00  0.00    +0.000 A 
ATOM     28  C   UNL     1      -0.051   9.761  22.798  0.00  0.00    +0.000 A 
ATOM     29  C   UNL     1      -0.919  10.800  23.082  0.00  0.00    +0.000 A 
ATOM     30  C   UNL     1      -1.517  11.519  22.058  0.00  0.00    +0.000 A 
ATOM     31  C   UNL     1      -1.138  11.266  20.691  0.00  0.00    +0.000 A 
BRANCH  30  32
ATOM     32  C   UNL     1      -2.517  12.488  22.470  0.00  0.00    +0.000 C 
ATOM     33  N   UNL     1      -3.312  13.286  22.742  0.00  0.00    +0.000 NA
ENDBRANCH  30  32
BRANCH  31  34
ATOM     34  C   UNL     1      -1.631  12.140  19.545  0.00  0.00    +0.000 C 
BRANCH  34  35
ATOM     35  N   UNL     1      -2.645  11.450  18.726  0.00  0.00    +0.000 NA
ATOM     36  C   UNL     1      -4.004  11.982  18.958  0.00  0.00    +0.000 C 
ATOM     37  C   UNL     1      -2.340  11.584  17.298  0.00  0.00    +0.000 C 
ENDBRANCH  34  35
ENDBRANCH  31  34
ENDBRANCH  24  26
ENDBRANCH  23  24
ENDBRANCH   3  23
TORSDOF 8
ENDMDL
MODEL 8
REMARK VINA RESULT:      -8.0      0.885      4.520
REMARK  Name = 
REMARK  11 active torsions:
REMARK  status: ('A' for Active; 'I' for Inactive)
REMARK    1  A    between atoms: C_1  and  C_2
REMARK    2  A    between atoms: C_6  and  C_7
REMARK    3  A    between atoms: C_9  and  C_10
REMARK    4  A    between atoms: C_10  and  N_11
REMARK    5  A    between atoms: N_11  and  C_12
REMARK    6  A    between atoms: C_16  and  C_17
REMARK    7  A    between atoms: C_19  and  C_20
REMARK    8  A    between atoms: C_20  and  N_21
REMARK    9  A    between atoms: N_21  and  C_22
REMARK   10  A    between atoms: N_21  and  C_23
REMARK   11  A    between atoms: C_25  and  C_26
REMARK                            x       y       z     vdW  Elec       q    Type
REMARK                         _______ _______ _______ _____ _____    ______ ____
ROOT
ATOM      1  C   UNL     1       2.373   6.656  18.366  0.00  0.00    +0.000 A 
ATOM      2  N   UNL     1       1.569   7.744  18.557  0.00  0.00    +0.000 N 
ATOM      3  C   UNL     1       2.260   8.835  18.124  0.00  0.00    +0.000 A 
ATOM      4  N   UNL     1       3.478   8.493  17.655  0.00  0.00    +0.000 NA
ATOM      5  C   UNL     1       3.545   7.146  17.794  0.00  0.00    +0.000 A 
ATOM      6  H   UNL     1       0.618   7.771  18.983  0.00  0.00    +0.000 HD
ENDROOT
BRANCH   5   7
ATOM      7  C   UNL     1       4.662   6.365  17.258  0.00  0.00    +0.000 A 
ATOM      8  C   UNL     1       5.621   5.805  18.126  0.00  0.00    +0.000 A 
ATOM      9  C   UNL     1       6.733   5.123  17.609  0.00  0.00    +0.000 A 
ATOM     10  C   UNL     1       6.854   5.049  16.223  0.00  0.00    +0.000 A 
ATOM     11  N   UNL     1       7.848   4.483  15.520  0.00  0.00    +0.000 NA
ATOM     12  C   UNL     1       7.472   4.713  14.237  0.00  0.00    +0.000 A 
ATOM     13  N   UNL     1       6.297   5.385  14.162  0.00  0.00    +0.000 NA
ATOM     14  N   UNL     1       5.933   5.583  15.415  0.00  0.00    +0.000 N 
ATOM     15  C   UNL     1       4.832   6.231  15.865  0.00  0.00    +0.000 A 
ENDBRANCH   5   7
BRANCH   1  21
ATOM     16  C   UNL     1       2.058   3.071  22.040  0.00  0.00    +0.000 C 
ATOM     17  C   UNL     1       1.953   3.457  20.505  0.00  0.00    +0.000 A 
ATOM     18  C   UNL     1       1.470   2.536  19.560  0.00  0.00    +0.000 A 
ATOM     19  C   UNL     1       1.279   2.951  18.223  0.00  0.00    +0.000 A 
ATOM     20  C   UNL     1       1.524   4.283  17.829  0.00  0.00    +0.000 A 
ATOM     21  C   UNL     1       2.070   5.188  18.743  0.00  0.00    +0.000 A 
ATOM     22  N   UNL     1       2.272   4.725  20.039  0.00  0.00    +0.000 NA
ENDBRANCH   1  21
BRANCH   3  23
ATOM     23  C   UNL     1       1.765  10.289  18.200  0.00  0.00    +0.000 C 
BRANCH  23  24
ATOM     24  N   UNL     1       0.307  10.407  18.188  0.00  0.00    +0.000 N 
ATOM     25  H   UNL     1      -0.206  10.000  17.400  0.00  0.00    +0.000 HD
BRANCH  24  26
ATOM     26  C   UNL     1      -0.441  11.007  19.264  0.00  0.00    +0.000 A 
ATOM     27  C   UNL     1       0.071  10.978  20.572  0.00  0.00    +0.000 A 
ATOM     28  C   UNL     1      -0.593  11.614  21.618  0.00  0.00    +0.000 A 
ATOM     29  C   UNL     1      -1.824  12.211  21.413  0.00  0.00    +0.000 A 
ATOM     30  C   UNL     1      -2.419  12.188  20.161  0.00  0.00    +0.000 A 
ATOM     31  C   UNL     1      -1.698  11.647  19.036  0.00  0.00    +0.000 A 
BRANCH  30  32
ATOM     32  C   UNL     1      -3.770  12.718  20.096  0.00  0.00    +0.000 C 
ATOM     33  N   UNL     1      -4.843  13.157  20.104  0.00  0.00    +0.000 NA
ENDBRANCH  30  32
BRANCH  31  34
ATOM     34  C   UNL     1      -2.231  11.754  17.613  0.00  0.00    +0.000 C 
BRANCH  34  35
ATOM     35  N   UNL     1      -2.386  10.429  16.985  0.00  0.00    +0.000 NA
ATOM     36  C   UNL     1      -3.437   9.622  17.638  0.00  0.00    +0.000 C 
ATOM     37  C   UNL     1      -2.728  10.562  15.566  0.00  0.00    +0.000 C 
ENDBRANCH  34  35
ENDBRANCH  31  34
ENDBRANCH  24  26
ENDBRANCH  23  24
ENDBRANCH   3  23
TORSDOF 8
ENDMDL
MODEL 9
REMARK VINA RESULT:      -7.9      1.450      4.853
REMARK  Name = 
REMARK  11 active torsions:
REMARK  status: ('A' for Active; 'I' for Inactive)
REMARK    1  A    between atoms: C_1  and  C_2
REMARK    2  A    between atoms: C_6  and  C_7
REMARK    3  A    between atoms: C_9  and  C_10
REMARK    4  A    between atoms: C_10  and  N_11
REMARK    5  A    between atoms: N_11  and  C_12
REMARK    6  A    between atoms: C_16  and  C_17
REMARK    7  A    between atoms: C_19  and  C_20
REMARK    8  A    between atoms: C_20  and  N_21
REMARK    9  A    between atoms: N_21  and  C_22
REMARK   10  A    between atoms: N_21  and  C_23
REMARK   11  A    between atoms: C_25  and  C_26
REMARK                            x       y       z     vdW  Elec       q    Type
REMARK                         _______ _______ _______ _____ _____    ______ ____
ROOT
ATOM      1  C   UNL     1       2.424   6.689  18.866  0.00  0.00    +0.000 A 
ATOM      2  N   UNL     1       1.548   7.730  18.994  0.00  0.00    +0.000 N 
ATOM      3  C   UNL     1       2.080   8.789  18.324  0.00  0.00    +0.000 A 
ATOM      4  N   UNL     1       3.265   8.471  17.761  0.00  0.00    +0.000 NA
ATOM      5  C   UNL     1       3.473   7.172  18.087  0.00  0.00    +0.000 A 
ATOM      6  H   UNL     1       0.652   7.750  19.527  0.00  0.00    +0.000 HD
ENDROOT
BRANCH   5   7
ATOM      7  C   UNL     1       4.592   6.404  17.535  0.00  0.00    +0.000 A 
ATOM      8  C   UNL     1       5.590   5.886  18.386  0.00  0.00    +0.000 A 
ATOM      9  C   UNL     1       6.701   5.217  17.851  0.00  0.00    +0.000 A 
ATOM     10  C   UNL     1       6.783   5.114  16.464  0.00  0.00    +0.000 A 
ATOM     11  N   UNL     1       7.768   4.554  15.745  0.00  0.00    +0.000 NA
ATOM     12  C   UNL     1       7.350   4.745  14.468  0.00  0.00    +0.000 A 
ATOM     13  N   UNL     1       6.157   5.388  14.414  0.00  0.00    +0.000 NA
ATOM     14  N   UNL     1       5.826   5.608  15.673  0.00  0.00    +0.000 N 
ATOM     15  C   UNL     1       4.724   6.241  16.141  0.00  0.00    +0.000 A 
ENDBRANCH   5   7
BRANCH   1  21
ATOM     16  C   UNL     1       3.279   1.638  18.418  0.00  0.00    +0.000 C 
ATOM     17  C   UNL     1       2.685   2.847  19.255  0.00  0.00    +0.000 A 
ATOM     18  C   UNL     1       2.201   2.653  20.560  0.00  0.00    +0.000 A 
ATOM     19  C   UNL     1       1.789   3.771  21.320  0.00  0.00    +0.000 A 
ATOM     20  C   UNL     1       1.892   5.081  20.807  0.00  0.00    +0.000 A 
ATOM     21  C   UNL     1       2.305   5.279  19.488  0.00  0.00    +0.000 A 
ATOM     22  N   UNL     1       2.669   4.146  18.767  0.00  0.00    +0.000 NA
ENDBRANCH   1  21
BRANCH   3  23
ATOM     23  C   UNL     1       1.462  10.194  18.248  0.00  0.00    +0.000 C 
BRANCH  23  24
ATOM     24  N   UNL     1       0.410  10.420  19.238  0.00  0.00    +0.000 N 
ATOM     25  H   UNL     1       0.669  10.416  20.230  0.00  0.00    +0.000 HD
BRANCH  24  26
ATOM     26  C   UNL     1      -0.955  10.716  18.881  0.00  0.00    +0.000 A 
ATOM     27  C   UNL     1      -1.515  10.143  17.728  0.00  0.00    +0.000 A 
ATOM     28  C   UNL     1      -2.852  10.350  17.399  0.00  0.00    +0.000 A 
ATOM     29  C   UNL     1      -3.639  11.206  18.149  0.00  0.00    +0.000 A 
ATOM     30  C   UNL     1      -3.110  11.871  19.244  0.00  0.00    +0.000 A 
ATOM     31  C   UNL     1      -1.768  11.579  19.680  0.00  0.00    +0.000 A 
BRANCH  30  32
ATOM     32  C   UNL     1      -3.984  12.850  19.868  0.00  0.00    +0.000 C 
ATOM     33  N   UNL     1      -4.729  13.600  20.343  0.00  0.00    +0.000 NA
ENDBRANCH  30  32
BRANCH  31  34
ATOM     34  C   UNL     1      -1.200  12.149  20.973  0.00  0.00    +0.000 C 
BRANCH  34  35
ATOM     35  N   UNL     1      -1.698  11.423  22.157  0.00  0.00    +0.000 NA
ATOM     36  C   UNL     1      -0.637  10.631  22.811  0.00  0.00    +0.000 C 
ATOM     37  C   UNL     1      -2.247  12.356  23.146  0.00  0.00    +0.000 C 
ENDBRANCH  34  35
ENDBRANCH  31  34
ENDBRANCH  24  26
ENDBRANCH  23  24
ENDBRANCH   3  23
TORSDOF 8
ENDMDL
