MODEL 1
REMARK VINA RESULT:      -7.5      0.000      0.000
REMARK  Name = 
REMARK  6 active torsions:
REMARK  status: ('A' for Active; 'I' for Inactive)
REMARK    1  A    between atoms: O_1  and  C_2
REMARK    2  A    between atoms: C_2  and  C_3
REMARK    3  A    between atoms: N_7  and  C_8
REMARK    4  A    between atoms: C_13  and  O_14
REMARK    5  A    between atoms: O_14  and  C_15
REMARK    6  A    between atoms: C_17  and  N_18
REMARK                            x       y       z     vdW  Elec       q    Type
REMARK                         _______ _______ _______ _____ _____    ______ ____
ROOT
ATOM      1  O   UNL     1       3.873   6.408  19.063  0.00  0.00    +0.000 OA
ENDROOT
BRANCH   1   7
ATOM      2  C   UNL     1       4.277   4.073  18.632  0.00  0.00    +0.000 A 
ATOM      3  N   UNL     1       4.050   2.768  18.942  0.00  0.00    +0.000 NA
ATOM      4  C   UNL     1       3.252   2.526  20.011  0.00  0.00    +0.000 A 
ATOM      5  C   UNL     1       2.645   3.536  20.733  0.00  0.00    +0.000 A 
ATOM      6  N   UNL     1       2.803   4.837  20.426  0.00  0.00    +0.000 NA
ATOM      7  C   UNL     1       3.627   5.086  19.377  0.00  0.00    +0.000 A 
BRANCH   2  12
ATOM      8  C   UNL     1       7.337   5.341  17.194  0.00  0.00    +0.000 C 
ATOM      9  C   UNL     1       7.057   5.210  15.683  0.00  0.00    +0.000 C 
ATOM     10  C   UNL     1       5.561   5.094  15.366  0.00  0.00    +0.000 C 
ATOM     11  C   UNL     1       4.878   4.020  16.218  0.00  0.00    +0.000 C 
ATOM     12  N   UNL     1       5.186   4.293  17.614  0.00  0.00    +0.000 N 
ATOM     13  C   UNL     1       6.599   4.241  17.970  0.00  0.00    +0.000 C 
BRANCH   8  14
ATOM     14  C   UNL     1       6.968   6.739  17.710  0.00  0.00    +0.000 C 
BRANCH  14  15
ATOM     15  O   UNL     1       7.506   7.751  16.868  0.00  0.00    +0.000 OA
ATOM     16  H   UNL     1       7.138   8.596  17.201  0.00  0.00    +0.000 HD
ENDBRANCH  14  15
ENDBRANCH   8  14
ENDBRANCH   2  12
ENDBRANCH   1   7
BRANCH   1  17
ATOM     17  C   UNL     1       3.294   6.936  17.850  0.00  0.00    +0.000 C 
ATOM     18  C   UNL     1       1.751   6.862  17.798  0.00  0.00    +0.000 C 
ATOM     19  C   UNL     1       1.691   8.322  18.316  0.00  0.00    +0.000 C 
ATOM     20  C   UNL     1       3.143   8.479  17.805  0.00  0.00    +0.000 C 
BRANCH  19  21
ATOM     21  N   UNL     1       1.576   8.428  19.749  0.00  0.00    +0.000 N 
ATOM     22  C   UNL     1       0.793   9.354  20.350  0.00  0.00    +0.000 A 
ATOM     23  N   UNL     1       0.013  10.193  19.710  0.00  0.00    +0.000 NA
ATOM     24  C   UNL     1      -0.717  10.958  20.596  0.00  0.00    +0.000 A 
ATOM     25  C   UNL     1      -1.670  11.934  20.246  0.00  0.00    +0.000 A 
ATOM     26  C   UNL     1      -2.357  12.628  21.249  0.00  0.00    +0.000 A 
ATOM     27  C   UNL     1      -2.104  12.355  22.587  0.00  0.00    +0.000 A 
ATOM     28  C   UNL     1      -1.158  11.396  22.962  0.00  0.00    +0.000 A 
ATOM     29  C   UNL     1      -0.470  10.703  21.947  0.00  0.00    +0.000 A 
ATOM     30  S   UNL     1       0.741   9.489  22.067  0.00  0.00    +0.000 S 
ATOM     31  H   UNL     1       2.397   8.132  20.264  0.00  0.00    +0.000 HD
ENDBRANCH  19  21
ENDBRANCH   1  17
TORSDOF 6
ENDMDL
MODEL 2
REMARK VINA RESULT:      -7.5      3.368      9.179
REMARK  Name = 
REMARK  6 active torsions:
REMARK  status: ('A' for Active; 'I' for Inactive)
REMARK    1  A    between atoms: O_1  and  C_2
REMARK    2  A    between atoms: C_2  and  C_3
REMARK    3  A    between atoms: N_7  and  C_8
REMARK    4  A    between atoms: C_13  and  O_14
REMARK    5  A    between atoms: O_14  and  C_15
REMARK    6  A    between atoms: C_17  and  N_18
REMARK                            x       y       z     vdW  Elec       q    Type
REMARK                         _______ _______ _______ _____ _____    ______ ____
ROOT
ATOM      1  O   UNL     1       0.557  10.680  20.361  0.00  0.00    +0.000 OA
ENDROOT
BRANCH   1   7
ATOM      2  C   UNL     1      -1.436  11.859  19.696  0.00  0.00    +0.000 A 
ATOM      3  N   UNL     1      -2.470  12.016  18.826  0.00  0.00    +0.000 NA
ATOM      4  C   UNL     1      -2.490  11.192  17.750  0.00  0.00    +0.000 A 
ATOM      5  C   UNL     1      -1.549  10.199  17.553  0.00  0.00    +0.000 A 
ATOM      6  N   UNL     1      -0.540   9.979  18.417  0.00  0.00    +0.000 NA
ATOM      7  C   UNL     1      -0.496  10.823  19.479  0.00  0.00    +0.000 A 
BRANCH   2  12
ATOM      8  C   UNL     1      -0.142  14.767  21.404  0.00  0.00    +0.000 C 
ATOM      9  C   UNL     1      -0.761  14.613  22.808  0.00  0.00    +0.000 C 
ATOM     10  C   UNL     1      -1.222  13.179  23.098  0.00  0.00    +0.000 C 
ATOM     11  C   UNL     1      -2.096  12.621  21.971  0.00  0.00    +0.000 C 
ATOM     12  N   UNL     1      -1.374  12.788  20.719  0.00  0.00    +0.000 N 
ATOM     13  C   UNL     1      -1.074  14.164  20.342  0.00  0.00    +0.000 C 
BRANCH   8  14
ATOM     14  C   UNL     1       1.260  14.145  21.341  0.00  0.00    +0.000 C 
BRANCH  14  15
ATOM     15  O   UNL     1       2.097  14.674  22.364  0.00  0.00    +0.000 OA
ATOM     16  H   UNL     1       2.383  15.554  22.043  0.00  0.00    +0.000 HD
ENDBRANCH  14  15
ENDBRANCH   8  14
ENDBRANCH   2  12
ENDBRANCH   1   7
BRANCH   1  17
ATOM     17  C   UNL     1       0.294  10.050  21.633  0.00  0.00    +0.000 C 
ATOM     18  C   UNL     1      -0.277   8.618  21.528  0.00  0.00    +0.000 C 
ATOM     19  C   UNL     1       1.160   8.061  21.688  0.00  0.00    +0.000 C 
ATOM     20  C   UNL     1       1.530   9.421  22.328  0.00  0.00    +0.000 C 
BRANCH  19  21
ATOM     21  N   UNL     1       1.834   7.819  20.437  0.00  0.00    +0.000 N 
ATOM     22  C   UNL     1       1.985   6.577  19.921  0.00  0.00    +0.000 A 
ATOM     23  N   UNL     1       1.485   5.486  20.454  0.00  0.00    +0.000 NA
ATOM     24  C   UNL     1       1.742   4.389  19.659  0.00  0.00    +0.000 A 
ATOM     25  C   UNL     1       1.322   3.070  19.919  0.00  0.00    +0.000 A 
ATOM     26  C   UNL     1       1.635   2.048  19.016  0.00  0.00    +0.000 A 
ATOM     27  C   UNL     1       2.357   2.330  17.863  0.00  0.00    +0.000 A 
ATOM     28  C   UNL     1       2.791   3.630  17.584  0.00  0.00    +0.000 A 
ATOM     29  C   UNL     1       2.473   4.652  18.498  0.00  0.00    +0.000 A 
ATOM     30  S   UNL     1       2.859   6.327  18.457  0.00  0.00    +0.000 S 
ATOM     31  H   UNL     1       2.555   8.492  20.205  0.00  0.00    +0.000 HD
ENDBRANCH  19  21
ENDBRANCH   1  17
TORSDOF 6
ENDMDL
MODEL 3
REMARK VINA RESULT:      -7.4      3.525      9.060
REMARK  Name = 
REMARK  6 active torsions:
REMARK  status: ('A' for Active; 'I' for Inactive)
REMARK    1  A    between atoms: O_1  and  C_2
REMARK    2  A    between atoms: C_2  and  C_3
REMARK    3  A    between atoms: N_7  and  C_8
REMARK    4  A    between atoms: C_13  and  O_14
REMARK    5  A    between atoms: O_14  and  C_15
REMARK    6  A    between atoms: C_17  and  N_18
REMARK                            x       y       z     vdW  Elec       q    Type
REMARK                         _______ _______ _______ _____ _____    ______ ____
ROOT
ATOM      1  O   UNL     1       0.160  10.192  19.658  0.00  0.00    +0.000 OA
ENDROOT
BRANCH   1   7
ATOM      2  C   UNL     1      -0.842  12.184  18.747  0.00  0.00    +0.000 A 
ATOM      3  N   UNL     1      -0.752  13.506  18.439  0.00  0.00    +0.000 NA
ATOM      4  C   UNL     1       0.396  14.135  18.790  0.00  0.00    +0.000 A 
ATOM      5  C   UNL     1       1.457  13.477  19.383  0.00  0.00    +0.000 A 
ATOM      6  N   UNL     1       1.426  12.159  19.656  0.00  0.00    +0.000 NA
ATOM      7  C   UNL     1       0.266  11.531  19.338  0.00  0.00    +0.000 A 
BRANCH   2  12
ATOM      8  C   UNL     1      -3.170  10.172  16.857  0.00  0.00    +0.000 C 
ATOM      9  C   UNL     1      -4.519  10.561  17.495  0.00  0.00    +0.000 C 
ATOM     10  C   UNL     1      -4.452  11.892  18.254  0.00  0.00    +0.000 C 
ATOM     11  C   UNL     1      -3.271  11.935  19.228  0.00  0.00    +0.000 C 
ATOM     12  N   UNL     1      -2.066  11.595  18.487  0.00  0.00    +0.000 N 
ATOM     13  C   UNL     1      -2.044  10.263  17.896  0.00  0.00    +0.000 C 
BRANCH   8  14
ATOM     14  C   UNL     1      -2.868  11.032  15.622  0.00  0.00    +0.000 C 
BRANCH  14  15
ATOM     15  O   UNL     1      -2.664  10.219  14.473  0.00  0.00    +0.000 OA
ATOM     16  H   UNL     1      -2.702  10.828  13.706  0.00  0.00    +0.000 HD
ENDBRANCH  14  15
ENDBRANCH   8  14
ENDBRANCH   2  12
ENDBRANCH   1   7
BRANCH   1  17
ATOM     17  C   UNL     1      -0.043   9.840  21.044  0.00  0.00    +0.000 C 
ATOM     18  C   UNL     1      -0.285   8.334  21.289  0.00  0.00    +0.000 C 
ATOM     19  C   UNL     1       1.225   8.170  21.597  0.00  0.00    +0.000 C 
ATOM     20  C   UNL     1       1.250   9.690  21.886  0.00  0.00    +0.000 C 
BRANCH  19  21
ATOM     21  N   UNL     1       2.017   7.794  20.452  0.00  0.00    +0.000 N 
ATOM     22  C   UNL     1       2.113   6.515  20.022  0.00  0.00    +0.000 A 
ATOM     23  N   UNL     1       1.456   5.505  20.544  0.00  0.00    +0.000 NA
ATOM     24  C   UNL     1       1.703   4.343  19.843  0.00  0.00    +0.000 A 
ATOM     25  C   UNL     1       1.136   3.084  20.117  0.00  0.00    +0.000 A 
ATOM     26  C   UNL     1       1.458   1.985  19.312  0.00  0.00    +0.000 A 
ATOM     27  C   UNL     1       2.333   2.133  18.244  0.00  0.00    +0.000 A 
ATOM     28  C   UNL     1       2.915   3.371  17.954  0.00  0.00    +0.000 A 
ATOM     29  C   UNL     1       2.586   4.472  18.769  0.00  0.00    +0.000 A 
ATOM     30  S   UNL     1       3.126   6.102  18.691  0.00  0.00    +0.000 S 
ATOM     31  H   UNL     1       2.818   8.388  20.276  0.00  0.00    +0.000 HD
ENDBRANCH  19  21
ENDBRANCH   1  17
TORSDOF 6
ENDMDL
MODEL 4
REMARK VINA RESULT:      -7.3      1.470      3.737
REMARK  Name = 
REMARK  6 active torsions:
REMARK  status: ('A' for Active; 'I' for Inactive)
REMARK    1  A    between atoms: O_1  and  C_2
REMARK    2  A    between atoms: C_2  and  C_3
REMARK    3  A    between atoms: N_7  and  C_8
REMARK    4  A    between atoms: C_13  and  O_14
REMARK    5  A    between atoms: O_14  and  C_15
REMARK    6  A    between atoms: C_17  and  N_18
REMARK                            x       y       z     vdW  Elec       q    Type
REMARK                         _______ _______ _______ _____ _____    ______ ____
ROOT
ATOM      1  O   UNL     1       3.228   6.946  18.667  0.00  0.00    +0.000 OA
ENDROOT
BRANCH   1   7
ATOM      2  C   UNL     1       4.379   4.864  19.044  0.00  0.00    +0.000 A 
ATOM      3  N   UNL     1       5.470   4.075  18.845  0.00  0.00    +0.000 NA
ATOM      4  C   UNL     1       6.439   4.569  18.037  0.00  0.00    +0.000 A 
ATOM      5  C   UNL     1       6.371   5.830  17.473  0.00  0.00    +0.000 A 
ATOM      6  N   UNL     1       5.332   6.660  17.688  0.00  0.00    +0.000 NA
ATOM      7  C   UNL     1       4.344   6.158  18.470  0.00  0.00    +0.000 A 
BRANCH   2  12
ATOM      8  C   UNL     1       2.062   2.239  19.928  0.00  0.00    +0.000 C 
ATOM      9  C   UNL     1       1.066   2.987  20.838  0.00  0.00    +0.000 C 
ATOM     10  C   UNL     1       1.111   4.507  20.641  0.00  0.00    +0.000 C 
ATOM     11  C   UNL     1       2.542   5.050  20.711  0.00  0.00    +0.000 C 
ATOM     12  N   UNL     1       3.356   4.290  19.775  0.00  0.00    +0.000 N 
ATOM     13  C   UNL     1       3.461   2.861  20.046  0.00  0.00    +0.000 C 
BRANCH   8  14
ATOM     14  C   UNL     1       1.577   2.214  18.472  0.00  0.00    +0.000 C 
BRANCH  14  15
ATOM     15  O   UNL     1       2.589   1.710  17.608  0.00  0.00    +0.000 OA
ATOM     16  H   UNL     1       2.944   2.490  17.133  0.00  0.00    +0.000 HD
ENDBRANCH  14  15
ENDBRANCH   8  14
ENDBRANCH   2  12
ENDBRANCH   1   7
BRANCH   1  17
ATOM     17  C   UNL     1       2.791   7.788  17.578  0.00  0.00    +0.000 C 
ATOM     18  C   UNL     1       1.259   7.972  17.491  0.00  0.00    +0.000 C 
ATOM     19  C   UNL     1       1.400   9.291  18.291  0.00  0.00    +0.000 C 
ATOM     20  C   UNL     1       2.881   9.313  17.843  0.00  0.00    +0.000 C 
BRANCH  19  21
ATOM     21  N   UNL     1       1.238   9.130  19.715  0.00  0.00    +0.000 N 
ATOM     22  C   UNL     1       0.416   9.917  20.447  0.00  0.00    +0.000 A 
ATOM     23  N   UNL     1      -0.362  10.847  19.945  0.00  0.00    +0.000 NA
ATOM     24  C   UNL     1      -1.136  11.424  20.931  0.00  0.00    +0.000 A 
ATOM     25  C   UNL     1      -2.099  12.433  20.732  0.00  0.00    +0.000 A 
ATOM     26  C   UNL     1      -2.832  12.919  21.821  0.00  0.00    +0.000 A 
ATOM     27  C   UNL     1      -2.615  12.409  23.094  0.00  0.00    +0.000 A 
ATOM     28  C   UNL     1      -1.661  11.412  23.319  0.00  0.00    +0.000 A 
ATOM     29  C   UNL     1      -0.927  10.929  22.219  0.00  0.00    +0.000 A 
ATOM     30  S   UNL     1       0.306   9.732  22.157  0.00  0.00    +0.000 S 
ATOM     31  H   UNL     1       2.048   8.757  20.195  0.00  0.00    +0.000 HD
ENDBRANCH  19  21
ENDBRANCH   1  17
TORSDOF 6
ENDMDL
MODEL 5
REMARK VINA RESULT:      -7.2      1.212      1.273
REMARK  Name = 
REMARK  6 active torsions:
REMARK  status: ('A' for Active; 'I' for Inactive)
REMARK    1  A    between atoms: O_1  and  C_2
REMARK    2  A    between atoms: C_2  and  C_3
REMARK    3  A    between atoms: N_7  and  C_8
REMARK    4  A    between atoms: C_13  and  O_14
REMARK    5  A    between atoms: O_14  and  C_15
REMARK    6  A    between atoms: C_17  and  N_18
REMARK                            x       y       z     vdW  Elec       q    Type
REMARK                         _______ _______ _______ _____ _____    ______ ____
ROOT
ATOM      1  O   UNL     1       3.478   7.242  19.003  0.00  0.00    +0.000 OA
ENDROOT
BRANCH   1   7
ATOM      2  C   UNL     1       3.579   4.841  18.830  0.00  0.00    +0.000 A 
ATOM      3  N   UNL     1       3.103   3.619  19.193  0.00  0.00    +0.000 NA
ATOM      4  C   UNL     1       2.112   3.601  20.116  0.00  0.00    +0.000 A 
ATOM      5  C   UNL     1       1.558   4.755  20.639  0.00  0.00    +0.000 A 
ATOM      6  N   UNL     1       1.965   5.983  20.268  0.00  0.00    +0.000 NA
ATOM      7  C   UNL     1       2.981   6.006  19.368  0.00  0.00    +0.000 A 
BRANCH   2  12
ATOM      8  C   UNL     1       7.094   4.731  18.012  0.00  0.00    +0.000 C 
ATOM      9  C   UNL     1       7.088   5.141  16.525  0.00  0.00    +0.000 C 
ATOM     10  C   UNL     1       5.802   5.870  16.118  0.00  0.00    +0.000 C 
ATOM     11  C   UNL     1       4.549   5.105  16.554  0.00  0.00    +0.000 C 
ATOM     12  N   UNL     1       4.667   4.827  17.977  0.00  0.00    +0.000 N 
ATOM     13  C   UNL     1       5.797   3.990  18.365  0.00  0.00    +0.000 C 
BRANCH   8  14
ATOM     14  C   UNL     1       7.317   5.945  18.925  0.00  0.00    +0.000 C 
BRANCH  14  15
ATOM     15  O   UNL     1       7.748   5.536  20.218  0.00  0.00    +0.000 OA
ATOM     16  H   UNL     1       8.655   5.894  20.319  0.00  0.00    +0.000 HD
ENDBRANCH  14  15
ENDBRANCH   8  14
ENDBRANCH   2  12
ENDBRANCH   1   7
BRANCH   1  17
ATOM     17  C   UNL     1       2.925   7.876  17.830  0.00  0.00    +0.000 C 
ATOM     18  C   UNL     1       1.386   7.782  17.722  0.00  0.00    +0.000 C 
ATOM     19  C   UNL     1       1.282   9.183  18.377  0.00  0.00    +0.000 C 
ATOM     20  C   UNL     1       2.746   9.413  17.930  0.00  0.00    +0.000 C 
BRANCH  19  21
ATOM     21  N   UNL     1       1.123   9.146  19.810  0.00  0.00    +0.000 N 
ATOM     22  C   UNL     1       0.295   9.988  20.471  0.00  0.00    +0.000 A 
ATOM     23  N   UNL     1      -0.491  10.864  19.890  0.00  0.00    +0.000 NA
ATOM     24  C   UNL     1      -1.269  11.520  20.822  0.00  0.00    +0.000 A 
ATOM     25  C   UNL     1      -2.240  12.499  20.537  0.00  0.00    +0.000 A 
ATOM     26  C   UNL     1      -2.977  13.073  21.579  0.00  0.00    +0.000 A 
ATOM     27  C   UNL     1      -2.755  12.680  22.893  0.00  0.00    +0.000 A 
ATOM     28  C   UNL     1      -1.792  11.714  23.203  0.00  0.00    +0.000 A 
ATOM     29  C   UNL     1      -1.055  11.141  22.149  0.00  0.00    +0.000 A 
ATOM     30  S   UNL     1       0.188   9.955  22.190  0.00  0.00    +0.000 S 
ATOM     31  H   UNL     1       1.937   8.824  20.319  0.00  0.00    +0.000 HD
ENDBRANCH  19  21
ENDBRANCH   1  17
TORSDOF 6
ENDMDL
MODEL 6
REMARK VINA RESULT:      -7.1      3.608      8.798
REMARK  Name = 
REMARK  6 active torsions:
REMARK  status: ('A' for Active; 'I' for Inactive)
REMARK    1  A    between atoms: O_1  and  C_2
REMARK    2  A    between atoms: C_2  and  C_3
REMARK    3  A    between atoms: N_7  and  C_8
REMARK    4  A    between atoms: C_13  and  O_14
REMARK    5  A    between atoms: O_14  and  C_15
REMARK    6  A    between atoms: C_17  and  N_18
REMARK                            x       y       z     vdW  Elec       q    Type
REMARK                         _______ _______ _______ _____ _____    ______ ____
ROOT
ATOM      1  O   UNL     1       0.689  10.390  20.068  0.00  0.00    +0.000 OA
ENDROOT
BRANCH   1   7
ATOM      2  C   UNL     1      -0.205  12.182  18.728  0.00  0.00    +0.000 A 
ATOM      3  N   UNL     1      -1.169  12.650  17.890  0.00  0.00    +0.000 NA
ATOM      4  C   UNL     1      -2.140  11.776  17.531  0.00  0.00    +0.000 A 
ATOM      5  C   UNL     1      -2.200  10.484  18.019  0.00  0.00    +0.000 A 
ATOM      6  N   UNL     1      -1.294  10.000  18.890  0.00  0.00    +0.000 NA
ATOM      7  C   UNL     1      -0.301  10.861  19.228  0.00  0.00    +0.000 A 
BRANCH   2  12
ATOM      8  C   UNL     1       1.258  15.303  19.804  0.00  0.00    +0.000 C 
ATOM      9  C   UNL     1       2.699  15.181  19.269  0.00  0.00    +0.000 C 
ATOM     10  C   UNL     1       2.829  14.138  18.153  0.00  0.00    +0.000 C 
ATOM     11  C   UNL     1       2.199  12.798  18.547  0.00  0.00    +0.000 C 
ATOM     12  N   UNL     1       0.836  13.056  18.985  0.00  0.00    +0.000 N 
ATOM     13  C   UNL     1       0.700  13.916  20.154  0.00  0.00    +0.000 C 
BRANCH   8  14
ATOM     14  C   UNL     1       0.353  16.040  18.807  0.00  0.00    +0.000 C 
BRANCH  14  15
ATOM     15  O   UNL     1      -1.011  15.680  18.996  0.00  0.00    +0.000 OA
ATOM     16  H   UNL     1      -1.488  16.031  18.215  0.00  0.00    +0.000 HD
ENDBRANCH  14  15
ENDBRANCH   8  14
ENDBRANCH   2  12
ENDBRANCH   1   7
BRANCH   1  17
ATOM     17  C   UNL     1       0.291   9.836  21.341  0.00  0.00    +0.000 C 
ATOM     18  C   UNL     1      -0.207   8.375  21.270  0.00  0.00    +0.000 C 
ATOM     19  C   UNL     1       1.218   7.899  21.648  0.00  0.00    +0.000 C 
ATOM     20  C   UNL     1       1.451   9.315  22.228  0.00  0.00    +0.000 C 
BRANCH  19  21
ATOM     21  N   UNL     1       2.055   7.605  20.512  0.00  0.00    +0.000 N 
ATOM     22  C   UNL     1       2.179   6.356  20.003  0.00  0.00    +0.000 A 
ATOM     23  N   UNL     1       1.511   5.311  20.433  0.00  0.00    +0.000 NA
ATOM     24  C   UNL     1       1.794   4.199  19.667  0.00  0.00    +0.000 A 
ATOM     25  C   UNL     1       1.228   2.921  19.836  0.00  0.00    +0.000 A 
ATOM     26  C   UNL     1       1.589   1.880  18.974  0.00  0.00    +0.000 A 
ATOM     27  C   UNL     1       2.502   2.103  17.951  0.00  0.00    +0.000 A 
ATOM     28  C   UNL     1       3.084   3.361  17.766  0.00  0.00    +0.000 A 
ATOM     29  C   UNL     1       2.716   4.403  18.638  0.00  0.00    +0.000 A 
ATOM     30  S   UNL     1       3.244   6.039  18.687  0.00  0.00    +0.000 S 
ATOM     31  H   UNL     1       2.858   8.214  20.406  0.00  0.00    +0.000 HD
ENDBRANCH  19  21
ENDBRANCH   1  17
TORSDOF 6
ENDMDL
MODEL 7
REMARK VINA RESULT:      -7.1      3.085      9.910
REMARK  Name = 
REMARK  6 active torsions:
REMARK  status: ('A' for Active; 'I' for Inactive)
REMARK    1  A    between atoms: O_1  and  C_2
REMARK    2  A    between atoms: C_2  and  C_3
REMARK    3  A    between atoms: N_7  and  C_8
REMARK    4  A    between atoms: C_13  and  O_14
REMARK    5  A    between atoms: O_14  and  C_15
REMARK    6  A    between atoms: C_17  and  N_18
REMARK                            x       y       z     vdW  Elec       q    Type
REMARK                         _______ _______ _______ _____ _____    ______ ____
ROOT
ATOM      1  O   UNL     1       0.491  10.986  21.160  0.00  0.00    +0.000 OA
ENDROOT
BRANCH   1   7
ATOM      2  C   UNL     1      -1.592  12.045  20.574  0.00  0.00    +0.000 A 
ATOM      3  N   UNL     1      -2.573  12.276  19.659  0.00  0.00    +0.000 NA
ATOM      4  C   UNL     1      -2.401  11.728  18.432  0.00  0.00    +0.000 A 
ATOM      5  C   UNL     1      -1.320  10.926  18.116  0.00  0.00    +0.000 A 
ATOM      6  N   UNL     1      -0.356  10.632  19.009  0.00  0.00    +0.000 NA
ATOM      7  C   UNL     1      -0.506  11.205  20.230  0.00  0.00    +0.000 A 
BRANCH   2  12
ATOM      8  C   UNL     1      -3.310  13.006  23.602  0.00  0.00    +0.000 C 
ATOM      9  C   UNL     1      -2.466  14.205  24.079  0.00  0.00    +0.000 C 
ATOM     10  C   UNL     1      -1.617  14.816  22.958  0.00  0.00    +0.000 C 
ATOM     11  C   UNL     1      -0.810  13.750  22.208  0.00  0.00    +0.000 C 
ATOM     12  N   UNL     1      -1.733  12.711  21.777  0.00  0.00    +0.000 N 
ATOM     13  C   UNL     1      -2.428  12.002  22.845  0.00  0.00    +0.000 C 
BRANCH   8  14
ATOM     14  C   UNL     1      -4.500  13.466  22.748  0.00  0.00    +0.000 C 
BRANCH  14  15
ATOM     15  O   UNL     1      -5.235  12.351  22.257  0.00  0.00    +0.000 OA
ATOM     16  H   UNL     1      -5.907  12.723  21.649  0.00  0.00    +0.000 HD
ENDBRANCH  14  15
ENDBRANCH   8  14
ENDBRANCH   2  12
ENDBRANCH   1   7
BRANCH   1  17
ATOM     17  C   UNL     1       0.288   9.942  22.137  0.00  0.00    +0.000 C 
ATOM     18  C   UNL     1      -0.362   8.659  21.571  0.00  0.00    +0.000 C 
ATOM     19  C   UNL     1       1.054   8.052  21.396  0.00  0.00    +0.000 C 
ATOM     20  C   UNL     1       1.537   9.077  22.450  0.00  0.00    +0.000 C 
BRANCH  19  21
ATOM     21  N   UNL     1       1.623   8.267  20.089  0.00  0.00    +0.000 N 
ATOM     22  C   UNL     1       2.352   7.323  19.450  0.00  0.00    +0.000 A 
ATOM     23  N   UNL     1       2.557   6.109  19.905  0.00  0.00    +0.000 NA
ATOM     24  C   UNL     1       3.271   5.357  18.994  0.00  0.00    +0.000 A 
ATOM     25  C   UNL     1       3.636   4.007  19.153  0.00  0.00    +0.000 A 
ATOM     26  C   UNL     1       4.346   3.354  18.139  0.00  0.00    +0.000 A 
ATOM     27  C   UNL     1       4.690   4.032  16.977  0.00  0.00    +0.000 A 
ATOM     28  C   UNL     1       4.345   5.376  16.797  0.00  0.00    +0.000 A 
ATOM     29  C   UNL     1       3.631   6.026  17.822  0.00  0.00    +0.000 A 
ATOM     30  S   UNL     1       3.072   7.648  17.918  0.00  0.00    +0.000 S 
ATOM     31  H   UNL     1       1.854   9.230  19.880  0.00  0.00    +0.000 HD
ENDBRANCH  19  21
ENDBRANCH   1  17
TORSDOF 6
ENDMDL
MODEL 8
REMARK VINA RESULT:      -7.1      1.477      1.882
REMARK  Name = 
REMARK  6 active torsions:
REMARK  status: ('A' for Active; 'I' for Inactive)
REMARK    1  A    between atoms: O_1  and  C_2
REMARK    2  A    between atoms: C_2  and  C_3
REMARK    3  A    between atoms: N_7  and  C_8
REMARK    4  A    between atoms: C_13  and  O_14
REMARK    5  A    between atoms: O_14  and  C_15
REMARK    6  A    between atoms: C_17  and  N_18
REMARK                            x       y       z     vdW  Elec       q    Type
REMARK                         _______ _______ _______ _____ _____    ______ ____
ROOT
ATOM      1  O   UNL     1       2.378   6.120  18.796  0.00  0.00    +0.000 OA
ENDROOT
BRANCH   1   7
ATOM      2  C   UNL     1       3.799   4.318  18.064  0.00  0.00    +0.000 A 
ATOM      3  N   UNL     1       3.951   3.010  17.724  0.00  0.00    +0.000 NA
ATOM      4  C   UNL     1       2.856   2.220  17.838  0.00  0.00    +0.000 A 
ATOM      5  C   UNL     1       1.622   2.707  18.226  0.00  0.00    +0.000 A 
ATOM      6  N   UNL     1       1.419   4.005  18.521  0.00  0.00    +0.000 NA
ATOM      7  C   UNL     1       2.520   4.793  18.441  0.00  0.00    +0.000 A 
BRANCH   2  12
ATOM      8  C   UNL     1       6.759   5.749  16.569  0.00  0.00    +0.000 C 
ATOM      9  C   UNL     1       7.538   6.235  17.808  0.00  0.00    +0.000 C 
ATOM     10  C   UNL     1       7.081   5.550  19.101  0.00  0.00    +0.000 C 
ATOM     11  C   UNL     1       5.559   5.601  19.268  0.00  0.00    +0.000 C 
ATOM     12  N   UNL     1       4.957   5.074  18.053  0.00  0.00    +0.000 N 
ATOM     13  C   UNL     1       5.247   5.816  16.831  0.00  0.00    +0.000 C 
BRANCH   8  14
ATOM     14  C   UNL     1       7.197   4.339  16.152  0.00  0.00    +0.000 C 
BRANCH  14  15
ATOM     15  O   UNL     1       6.151   3.664  15.462  0.00  0.00    +0.000 OA
ATOM     16  H   UNL     1       6.593   3.130  14.770  0.00  0.00    +0.000 HD
ENDBRANCH  14  15
ENDBRANCH   8  14
ENDBRANCH   2  12
ENDBRANCH   1   7
BRANCH   1  17
ATOM     17  C   UNL     1       2.350   7.105  17.741  0.00  0.00    +0.000 C 
ATOM     18  C   UNL     1       1.028   7.901  17.648  0.00  0.00    +0.000 C 
ATOM     19  C   UNL     1       1.672   9.019  18.506  0.00  0.00    +0.000 C 
ATOM     20  C   UNL     1       3.045   8.451  18.072  0.00  0.00    +0.000 C 
BRANCH  19  21
ATOM     21  N   UNL     1       1.422   8.886  19.920  0.00  0.00    +0.000 N 
ATOM     22  C   UNL     1       0.582   9.708  20.590  0.00  0.00    +0.000 A 
ATOM     23  N   UNL     1      -0.137  10.651  20.029  0.00  0.00    +0.000 NA
ATOM     24  C   UNL     1      -0.951  11.267  20.957  0.00  0.00    +0.000 A 
ATOM     25  C   UNL     1      -1.870  12.299  20.687  0.00  0.00    +0.000 A 
ATOM     26  C   UNL     1      -2.652  12.824  21.722  0.00  0.00    +0.000 A 
ATOM     27  C   UNL     1      -2.526  12.330  23.014  0.00  0.00    +0.000 A 
ATOM     28  C   UNL     1      -1.616  11.310  23.311  0.00  0.00    +0.000 A 
ATOM     29  C   UNL     1      -0.833  10.787  22.264  0.00  0.00    +0.000 A 
ATOM     30  S   UNL     1       0.366   9.556  22.293  0.00  0.00    +0.000 S 
ATOM     31  H   UNL     1       2.192   8.499  20.453  0.00  0.00    +0.000 HD
ENDBRANCH  19  21
ENDBRANCH   1  17
TORSDOF 6
ENDMDL
MODEL 9
REMARK VINA RESULT:      -7.1      2.951      9.459
REMARK  Name = 
REMARK  6 active torsions:
REMARK  status: ('A' for Active; 'I' for Inactive)
REMARK    1  A    between atoms: O_1  and  C_2
REMARK    2  A    between atoms: C_2  and  C_3
REMARK    3  A    between atoms: N_7  and  C_8
REMARK    4  A    between atoms: C_13  and  O_14
REMARK    5  A    between atoms: O_14  and  C_15
REMARK    6  A    between atoms: C_17  and  N_18
REMARK                            x       y       z     vdW  Elec       q    Type
REMARK                         _______ _______ _______ _____ _____    ______ ____
ROOT
ATOM      1  O   UNL     1       0.251  10.929  20.713  0.00  0.00    +0.000 OA
ENDROOT
BRANCH   1   7
ATOM      2  C   UNL     1      -1.842  11.824  19.926  0.00  0.00    +0.000 A 
ATOM      3  N   UNL     1      -2.824  11.853  18.985  0.00  0.00    +0.000 NA
ATOM      4  C   UNL     1      -2.646  11.067  17.895  0.00  0.00    +0.000 A 
ATOM      5  C   UNL     1      -1.557  10.229  17.749  0.00  0.00    +0.000 A 
ATOM      6  N   UNL     1      -0.590  10.133  18.681  0.00  0.00    +0.000 NA
ATOM      7  C   UNL     1      -0.747  10.943  19.759  0.00  0.00    +0.000 A 
BRANCH   2  12
ATOM      8  C   UNL     1      -0.996  14.743  21.877  0.00  0.00    +0.000 C 
ATOM      9  C   UNL     1      -1.808  14.509  23.167  0.00  0.00    +0.000 C 
ATOM     10  C   UNL     1      -2.220  13.044  23.351  0.00  0.00    +0.000 C 
ATOM     11  C   UNL     1      -2.881  12.474  22.091  0.00  0.00    +0.000 C 
ATOM     12  N   UNL     1      -1.990  12.721  20.968  0.00  0.00    +0.000 N 
ATOM     13  C   UNL     1      -1.719  14.123  20.673  0.00  0.00    +0.000 C 
BRANCH   8  14
ATOM     14  C   UNL     1       0.435  14.203  22.013  0.00  0.00    +0.000 C 
BRANCH  14  15
ATOM     15  O   UNL     1       1.312  15.206  22.512  0.00  0.00    +0.000 OA
ATOM     16  H   UNL     1       2.101  14.728  22.841  0.00  0.00    +0.000 HD
ENDBRANCH  14  15
ENDBRANCH   8  14
ENDBRANCH   2  12
ENDBRANCH   1   7
BRANCH   1  17
ATOM     17  C   UNL     1       0.103  10.033  21.836  0.00  0.00    +0.000 C 
ATOM     18  C   UNL     1      -0.422   8.628  21.463  0.00  0.00    +0.000 C 
ATOM     19  C   UNL     1       1.043   8.124  21.412  0.00  0.00    +0.000 C 
ATOM     20  C   UNL     1       1.407   9.336  22.303  0.00  0.00    +0.000 C 
BRANCH  19  21
ATOM     21  N   UNL     1       1.634   8.184  20.098  0.00  0.00    +0.000 N 
ATOM     22  C   UNL     1       2.294   7.138  19.549  0.00  0.00    +0.000 A 
ATOM     23  N   UNL     1       2.406   5.956  20.108  0.00  0.00    +0.000 NA
ATOM     24  C   UNL     1       3.067   5.079  19.273  0.00  0.00    +0.000 A 
ATOM     25  C   UNL     1       3.330   3.723  19.550  0.00  0.00    +0.000 A 
ATOM     26  C   UNL     1       3.995   2.936  18.603  0.00  0.00    +0.000 A 
ATOM     27  C   UNL     1       4.395   3.486  17.392  0.00  0.00    +0.000 A 
ATOM     28  C   UNL     1       4.152   4.831  17.096  0.00  0.00    +0.000 A 
ATOM     29  C   UNL     1       3.483   5.617  18.053  0.00  0.00    +0.000 A 
ATOM     30  S   UNL     1       3.045   7.278  18.005  0.00  0.00    +0.000 S 
ATOM     31  H   UNL     1       1.937   9.107  19.811  0.00  0.00    +0.000 HD
ENDBRANCH  19  21
ENDBRANCH   1  17
TORSDOF 6
ENDMDL
