MODEL 1
REMARK VINA RESULT:      -8.3      0.000      0.000
REMARK  Name = 
REMARK  8 active torsions:
REMARK  status: ('A' for Active; 'I' for Inactive)
REMARK    1  A    between atoms: C_1  and  C_2
REMARK    2  A    between atoms: C_5  and  N_6
REMARK    3  A    between atoms: N_14  and  C_15
REMARK    4  A    between atoms: C_15  and  C_16
REMARK    5  A    between atoms: N_18  and  C_19
REMARK    6  A    between atoms: C_19  and  C_20
REMARK    7  A    between atoms: C_20  and  C_21
REMARK    8  A    between atoms: C_34  and  C_35
REMARK                            x       y       z     vdW  Elec       q    Type
REMARK                         _______ _______ _______ _____ _____    ______ ____
ROOT
ATOM      1  N   UNL     1      -1.069  13.751  20.359  0.00  0.00    +0.000 N 
ATOM      2  C   UNL     1      -1.866  14.834  20.694  0.00  0.00    +0.000 C 
ATOM      3  O   UNL     1      -1.477  15.991  20.834  0.00  0.00    +0.000 OA
ATOM      4  C   UNL     1      -3.316  14.459  20.894  0.00  0.00    +0.000 C 
ATOM      5  S   UNL     1      -3.506  12.709  20.536  0.00  0.00    +0.000 S 
ATOM      6  C   UNL     1      -1.734  12.456  20.231  0.00  0.00    +0.000 C 
ATOM      7  C   UNL     1      -1.559  11.809  18.818  0.00  0.00    +0.000 C 
ATOM      8  O   UNL     1      -1.820  12.326  17.740  0.00  0.00    +0.000 OA
ATOM      9  N   UNL     1      -0.934  10.562  19.006  0.00  0.00    +0.000 N 
ATOM     10  C   UNL     1      -0.704  10.314  20.370  0.00  0.00    +0.000 A 
ATOM     11  C   UNL     1      -0.095   9.220  20.957  0.00  0.00    +0.000 A 
ATOM     12  C   UNL     1       0.014   9.202  22.352  0.00  0.00    +0.000 A 
ATOM     13  C   UNL     1      -0.462  10.269  23.130  0.00  0.00    +0.000 A 
ATOM     14  C   UNL     1      -1.059  11.374  22.524  0.00  0.00    +0.000 A 
ATOM     15  C   UNL     1      -1.180  11.381  21.139  0.00  0.00    +0.000 A 
ENDROOT
BRANCH   1  20
ATOM     16  C   UNL     1       4.580  14.745  20.286  0.00  0.00    +0.000 C 
ATOM     17  C   UNL     1       3.119  14.380  20.278  0.00  0.00    +0.000 A 
ATOM     18  C   UNL     1       2.436  14.283  21.497  0.00  0.00    +0.000 A 
ATOM     19  C   UNL     1       1.066  14.018  21.528  0.00  0.00    +0.000 A 
ATOM     20  C   UNL     1       0.352  13.835  20.345  0.00  0.00    +0.000 A 
ATOM     21  C   UNL     1       1.043  13.848  19.126  0.00  0.00    +0.000 A 
ATOM     22  C   UNL     1       2.420  14.145  19.077  0.00  0.00    +0.000 A 
ATOM     23  C   UNL     1       3.113  14.240  17.745  0.00  0.00    +0.000 C 
ENDBRANCH   1  20
BRANCH   9  24
ATOM     24  C   UNL     1      -0.247   9.885  17.922  0.00  0.00    +0.000 C 
BRANCH  24  25
ATOM     25  C   UNL     1       1.257   9.650  18.007  0.00  0.00    +0.000 C 
ATOM     26  O   UNL     1       2.005  10.573  18.336  0.00  0.00    +0.000 OA
ATOM     27  N   UNL     1       1.729   8.376  17.789  0.00  0.00    +0.000 N 
ATOM     28  H   UNL     1       1.092   7.643  17.499  0.00  0.00    +0.000 HD
BRANCH  27  29
ATOM     29  C   UNL     1       3.156   8.135  17.900  0.00  0.00    +0.000 C 
BRANCH  29  30
ATOM     30  C   UNL     1       3.575   6.679  17.719  0.00  0.00    +0.000 C 
BRANCH  30  31
ATOM     31  C   UNL     1       2.660   5.771  18.509  0.00  0.00    +0.000 A 
ATOM     32  C   UNL     1       2.504   5.951  19.892  0.00  0.00    +0.000 A 
ATOM     33  C   UNL     1       1.728   5.064  20.639  0.00  0.00    +0.000 A 
ATOM     34  C   UNL     1       1.101   3.987  20.015  0.00  0.00    +0.000 A 
ATOM     35  C   UNL     1       1.246   3.800  18.641  0.00  0.00    +0.000 A 
ATOM     36  C   UNL     1       2.022   4.686  17.891  0.00  0.00    +0.000 A 
ENDBRANCH  30  31
ENDBRANCH  29  30
ENDBRANCH  27  29
ENDBRANCH  24  25
ENDBRANCH   9  24
TORSDOF 6
ENDMDL
MODEL 2
REMARK VINA RESULT:      -7.7      1.121      1.930
REMARK  Name = 
REMARK  8 active torsions:
REMARK  status: ('A' for Active; 'I' for Inactive)
REMARK    1  A    between atoms: C_1  and  C_2
REMARK    2  A    between atoms: C_5  and  N_6
REMARK    3  A    between atoms: N_14  and  C_15
REMARK    4  A    between atoms: C_15  and  C_16
REMARK    5  A    between atoms: N_18  and  C_19
REMARK    6  A    between atoms: C_19  and  C_20
REMARK    7  A    between atoms: C_20  and  C_21
REMARK    8  A    between atoms: C_34  and  C_35
REMARK                            x       y       z     vdW  Elec       q    Type
REMARK                         _______ _______ _______ _____ _____    ______ ____
ROOT
ATOM      1  N   UNL     1      -1.132  13.760  20.467  0.00  0.00    +0.000 N 
ATOM      2  C   UNL     1      -1.933  14.829  20.835  0.00  0.00    +0.000 C 
ATOM      3  O   UNL     1      -1.552  15.986  20.995  0.00  0.00    +0.000 OA
ATOM      4  C   UNL     1      -3.376  14.437  21.048  0.00  0.00    +0.000 C 
ATOM      5  S   UNL     1      -3.557  12.693  20.655  0.00  0.00    +0.000 S 
ATOM      6  C   UNL     1      -1.787  12.462  20.320  0.00  0.00    +0.000 C 
ATOM      7  C   UNL     1      -1.627  11.847  18.891  0.00  0.00    +0.000 C 
ATOM      8  O   UNL     1      -1.907  12.384  17.828  0.00  0.00    +0.000 OA
ATOM      9  N   UNL     1      -0.988  10.602  19.044  0.00  0.00    +0.000 N 
ATOM     10  C   UNL     1      -0.738  10.327  20.398  0.00  0.00    +0.000 A 
ATOM     11  C   UNL     1      -0.112   9.226  20.954  0.00  0.00    +0.000 A 
ATOM     12  C   UNL     1       0.017   9.179  22.347  0.00  0.00    +0.000 A 
ATOM     13  C   UNL     1      -0.457  10.225  23.154  0.00  0.00    +0.000 A 
ATOM     14  C   UNL     1      -1.072  11.337  22.580  0.00  0.00    +0.000 A 
ATOM     15  C   UNL     1      -1.212  11.373  21.197  0.00  0.00    +0.000 A 
ENDROOT
BRANCH   1  20
ATOM     16  C   UNL     1       4.506  14.803  20.307  0.00  0.00    +0.000 C 
ATOM     17  C   UNL     1       3.050  14.426  20.325  0.00  0.00    +0.000 A 
ATOM     18  C   UNL     1       2.380  14.352  21.553  0.00  0.00    +0.000 A 
ATOM     19  C   UNL     1       1.014  14.075  21.606  0.00  0.00    +0.000 A 
ATOM     20  C   UNL     1       0.288  13.857  20.435  0.00  0.00    +0.000 A 
ATOM     21  C   UNL     1       0.966  13.847  19.208  0.00  0.00    +0.000 A 
ATOM     22  C   UNL     1       2.339  14.154  19.138  0.00  0.00    +0.000 A 
ATOM     23  C   UNL     1       3.017  14.224  17.796  0.00  0.00    +0.000 C 
ENDBRANCH   1  20
BRANCH   9  24
ATOM     24  C   UNL     1      -0.311   9.954  17.937  0.00  0.00    +0.000 C 
BRANCH  24  25
ATOM     25  C   UNL     1       1.182   9.660  18.029  0.00  0.00    +0.000 C 
ATOM     26  O   UNL     1       1.968  10.562  18.326  0.00  0.00    +0.000 OA
ATOM     27  N   UNL     1       1.602   8.362  17.852  0.00  0.00    +0.000 N 
ATOM     28  H   UNL     1       0.934   7.646  17.587  0.00  0.00    +0.000 HD
BRANCH  27  29
ATOM     29  C   UNL     1       3.018   8.066  17.971  0.00  0.00    +0.000 C 
BRANCH  29  30
ATOM     30  C   UNL     1       3.338   6.658  18.464  0.00  0.00    +0.000 C 
BRANCH  30  31
ATOM     31  C   UNL     1       4.065   5.882  17.389  0.00  0.00    +0.000 A 
ATOM     32  C   UNL     1       4.035   4.480  17.382  0.00  0.00    +0.000 A 
ATOM     33  C   UNL     1       4.774   3.759  16.443  0.00  0.00    +0.000 A 
ATOM     34  C   UNL     1       5.551   4.431  15.500  0.00  0.00    +0.000 A 
ATOM     35  C   UNL     1       5.586   5.824  15.495  0.00  0.00    +0.000 A 
ATOM     36  C   UNL     1       4.848   6.548  16.434  0.00  0.00    +0.000 A 
ENDBRANCH  30  31
ENDBRANCH  29  30
ENDBRANCH  27  29
ENDBRANCH  24  25
ENDBRANCH   9  24
TORSDOF 6
ENDMDL
MODEL 3
REMARK VINA RESULT:      -7.7      0.659      1.035
REMARK  Name = 
REMARK  8 active torsions:
REMARK  status: ('A' for Active; 'I' for Inactive)
REMARK    1  A    between atoms: C_1  and  C_2
REMARK    2  A    between atoms: C_5  and  N_6
REMARK    3  A    between atoms: N_14  and  C_15
REMARK    4  A    between atoms: C_15  and  C_16
REMARK    5  A    between atoms: N_18  and  C_19
REMARK    6  A    between atoms: C_19  and  C_20
REMARK    7  A    between atoms: C_20  and  C_21
REMARK    8  A    between atoms: C_34  and  C_35
REMARK                            x       y       z     vdW  Elec       q    Type
REMARK                         _______ _______ _______ _____ _____    ______ ____
ROOT
ATOM      1  N   UNL     1      -1.106  13.808  20.464  0.00  0.00    +0.000 N 
ATOM      2  C   UNL     1      -1.901  14.882  20.829  0.00  0.00    +0.000 C 
ATOM      3  O   UNL     1      -1.513  16.036  20.992  0.00  0.00    +0.000 OA
ATOM      4  C   UNL     1      -3.348  14.500  21.035  0.00  0.00    +0.000 C 
ATOM      5  S   UNL     1      -3.540  12.758  20.639  0.00  0.00    +0.000 S 
ATOM      6  C   UNL     1      -1.770  12.515  20.312  0.00  0.00    +0.000 C 
ATOM      7  C   UNL     1      -1.607  11.900  18.883  0.00  0.00    +0.000 C 
ATOM      8  O   UNL     1      -1.879  12.440  17.820  0.00  0.00    +0.000 OA
ATOM      9  N   UNL     1      -0.979  10.650  19.037  0.00  0.00    +0.000 N 
ATOM     10  C   UNL     1      -0.737  10.371  20.393  0.00  0.00    +0.000 A 
ATOM     11  C   UNL     1      -0.121   9.266  20.951  0.00  0.00    +0.000 A 
ATOM     12  C   UNL     1       0.001   9.216  22.344  0.00  0.00    +0.000 A 
ATOM     13  C   UNL     1      -0.470  10.265  23.150  0.00  0.00    +0.000 A 
ATOM     14  C   UNL     1      -1.074  11.382  22.574  0.00  0.00    +0.000 A 
ATOM     15  C   UNL     1      -1.207  11.421  21.191  0.00  0.00    +0.000 A 
ENDROOT
BRANCH   1  20
ATOM     16  C   UNL     1       4.540  14.809  20.311  0.00  0.00    +0.000 C 
ATOM     17  C   UNL     1       3.081  14.441  20.330  0.00  0.00    +0.000 A 
ATOM     18  C   UNL     1       2.402  14.409  21.555  0.00  0.00    +0.000 A 
ATOM     19  C   UNL     1       1.034  14.143  21.607  0.00  0.00    +0.000 A 
ATOM     20  C   UNL     1       0.315  13.894  20.438  0.00  0.00    +0.000 A 
ATOM     21  C   UNL     1       1.000  13.842  19.217  0.00  0.00    +0.000 A 
ATOM     22  C   UNL     1       2.376  14.139  19.147  0.00  0.00    +0.000 A 
ATOM     23  C   UNL     1       3.064  14.163  17.808  0.00  0.00    +0.000 C 
ENDBRANCH   1  20
BRANCH   9  24
ATOM     24  C   UNL     1      -0.301   9.998  17.933  0.00  0.00    +0.000 C 
BRANCH  24  25
ATOM     25  C   UNL     1       1.175   9.636  18.057  0.00  0.00    +0.000 C 
ATOM     26  O   UNL     1       1.994  10.501  18.375  0.00  0.00    +0.000 OA
ATOM     27  N   UNL     1       1.538   8.320  17.883  0.00  0.00    +0.000 N 
ATOM     28  H   UNL     1       0.845   7.637  17.600  0.00  0.00    +0.000 HD
BRANCH  27  29
ATOM     29  C   UNL     1       2.936   7.960  18.032  0.00  0.00    +0.000 C 
BRANCH  29  30
ATOM     30  C   UNL     1       3.206   6.841  19.034  0.00  0.00    +0.000 C 
BRANCH  30  31
ATOM     31  C   UNL     1       2.964   5.495  18.389  0.00  0.00    +0.000 A 
ATOM     32  C   UNL     1       1.844   4.729  18.745  0.00  0.00    +0.000 A 
ATOM     33  C   UNL     1       1.662   3.451  18.216  0.00  0.00    +0.000 A 
ATOM     34  C   UNL     1       2.597   2.922  17.327  0.00  0.00    +0.000 A 
ATOM     35  C   UNL     1       3.712   3.676  16.964  0.00  0.00    +0.000 A 
ATOM     36  C   UNL     1       3.897   4.955  17.492  0.00  0.00    +0.000 A 
ENDBRANCH  30  31
ENDBRANCH  29  30
ENDBRANCH  27  29
ENDBRANCH  24  25
ENDBRANCH   9  24
TORSDOF 6
ENDMDL
MODEL 4
REMARK VINA RESULT:      -7.5      2.432      4.806
REMARK  Name = 
REMARK  8 active torsions:
REMARK  status: ('A' for Active; 'I' for Inactive)
REMARK    1  A    between atoms: C_1  and  C_2
REMARK    2  A    between atoms: C_5  and  N_6
REMARK    3  A    between atoms: N_14  and  C_15
REMARK    4  A    between atoms: C_15  and  C_16
REMARK    5  A    between atoms: N_18  and  C_19
REMARK    6  A    between atoms: C_19  and  C_20
REMARK    7  A    between atoms: C_20  and  C_21
REMARK    8  A    between atoms: C_34  and  C_35
REMARK                            x       y       z     vdW  Elec       q    Type
REMARK                         _______ _______ _______ _____ _____    ______ ____
ROOT
ATOM      1  N   UNL     1      -1.340  13.778  20.371  0.00  0.00    +0.000 N 
ATOM      2  C   UNL     1      -1.085  15.135  20.254  0.00  0.00    +0.000 C 
ATOM      3  O   UNL     1      -1.735  16.032  20.784  0.00  0.00    +0.000 OA
ATOM      4  C   UNL     1       0.104  15.436  19.372  0.00  0.00    +0.000 C 
ATOM      5  S   UNL     1       0.831  13.880  18.843  0.00  0.00    +0.000 S 
ATOM      6  C   UNL     1      -0.436  12.872  19.667  0.00  0.00    +0.000 C 
ATOM      7  C   UNL     1       0.277  11.852  20.613  0.00  0.00    +0.000 C 
ATOM      8  O   UNL     1       0.928  12.115  21.615  0.00  0.00    +0.000 OA
ATOM      9  N   UNL     1      -0.064  10.561  20.166  0.00  0.00    +0.000 N 
ATOM     10  C   UNL     1      -0.892  10.622  19.033  0.00  0.00    +0.000 A 
ATOM     11  C   UNL     1      -1.456   9.582  18.318  0.00  0.00    +0.000 A 
ATOM     12  C   UNL     1      -2.249   9.901  17.211  0.00  0.00    +0.000 A 
ATOM     13  C   UNL     1      -2.483  11.237  16.848  0.00  0.00    +0.000 A 
ATOM     14  C   UNL     1      -1.921  12.278  17.587  0.00  0.00    +0.000 A 
ATOM     15  C   UNL     1      -1.121  11.956  18.676  0.00  0.00    +0.000 A 
ENDROOT
BRANCH   1  20
ATOM     16  C   UNL     1      -6.322  12.415  22.866  0.00  0.00    +0.000 C 
ATOM     17  C   UNL     1      -4.984  12.669  22.225  0.00  0.00    +0.000 A 
ATOM     18  C   UNL     1      -4.919  12.861  20.839  0.00  0.00    +0.000 A 
ATOM     19  C   UNL     1      -3.708  13.169  20.218  0.00  0.00    +0.000 A 
ATOM     20  C   UNL     1      -2.536  13.283  20.965  0.00  0.00    +0.000 A 
ATOM     21  C   UNL     1      -2.577  13.011  22.339  0.00  0.00    +0.000 A 
ATOM     22  C   UNL     1      -3.798  12.728  22.984  0.00  0.00    +0.000 A 
ATOM     23  C   UNL     1      -3.821  12.529  24.476  0.00  0.00    +0.000 C 
ENDBRANCH   1  20
BRANCH   9  24
ATOM     24  C   UNL     1       0.062   9.400  21.027  0.00  0.00    +0.000 C 
BRANCH  24  25
ATOM     25  C   UNL     1       1.042   8.290  20.665  0.00  0.00    +0.000 C 
ATOM     26  O   UNL     1       1.182   7.325  21.419  0.00  0.00    +0.000 OA
ATOM     27  N   UNL     1       1.689   8.364  19.453  0.00  0.00    +0.000 N 
ATOM     28  H   UNL     1       1.571   9.181  18.865  0.00  0.00    +0.000 HD
BRANCH  27  29
ATOM     29  C   UNL     1       2.600   7.296  19.085  0.00  0.00    +0.000 C 
BRANCH  29  30
ATOM     30  C   UNL     1       3.470   7.589  17.865  0.00  0.00    +0.000 C 
BRANCH  30  31
ATOM     31  C   UNL     1       4.006   6.300  17.285  0.00  0.00    +0.000 A 
ATOM     32  C   UNL     1       3.625   5.065  17.830  0.00  0.00    +0.000 A 
ATOM     33  C   UNL     1       4.183   3.877  17.353  0.00  0.00    +0.000 A 
ATOM     34  C   UNL     1       5.128   3.911  16.328  0.00  0.00    +0.000 A 
ATOM     35  C   UNL     1       5.511   5.132  15.778  0.00  0.00    +0.000 A 
ATOM     36  C   UNL     1       4.955   6.321  16.252  0.00  0.00    +0.000 A 
ENDBRANCH  30  31
ENDBRANCH  29  30
ENDBRANCH  27  29
ENDBRANCH  24  25
ENDBRANCH   9  24
TORSDOF 6
ENDMDL
MODEL 5
REMARK VINA RESULT:      -7.5      2.228      4.251
REMARK  Name = 
REMARK  8 active torsions:
REMARK  status: ('A' for Active; 'I' for Inactive)
REMARK    1  A    between atoms: C_1  and  C_2
REMARK    2  A    between atoms: C_5  and  N_6
REMARK    3  A    between atoms: N_14  and  C_15
REMARK    4  A    between atoms: C_15  and  C_16
REMARK    5  A    between atoms: N_18  and  C_19
REMARK    6  A    between atoms: C_19  and  C_20
REMARK    7  A    between atoms: C_20  and  C_21
REMARK    8  A    between atoms: C_34  and  C_35
REMARK                            x       y       z     vdW  Elec       q    Type
REMARK                         _______ _______ _______ _____ _____    ______ ____
ROOT
ATOM      1  N   UNL     1      -0.114  14.042  20.232  0.00  0.00    +0.000 N 
ATOM      2  C   UNL     1       0.327  15.309  19.886  0.00  0.00    +0.000 C 
ATOM      3  O   UNL     1      -0.055  16.361  20.393  0.00  0.00    +0.000 OA
ATOM      4  C   UNL     1       1.351  15.294  18.776  0.00  0.00    +0.000 C 
ATOM      5  S   UNL     1       1.702  13.585  18.347  0.00  0.00    +0.000 S 
ATOM      6  C   UNL     1       0.478  12.917  19.511  0.00  0.00    +0.000 C 
ATOM      7  C   UNL     1       1.193  11.889  20.449  0.00  0.00    +0.000 C 
ATOM      8  O   UNL     1       2.061  12.134  21.275  0.00  0.00    +0.000 OA
ATOM      9  N   UNL     1       0.569  10.643  20.251  0.00  0.00    +0.000 N 
ATOM     10  C   UNL     1      -0.445  10.734  19.283  0.00  0.00    +0.000 A 
ATOM     11  C   UNL     1      -1.297   9.745  18.829  0.00  0.00    +0.000 A 
ATOM     12  C   UNL     1      -2.232  10.084  17.846  0.00  0.00    +0.000 A 
ATOM     13  C   UNL     1      -2.317  11.395  17.349  0.00  0.00    +0.000 A 
ATOM     14  C   UNL     1      -1.463  12.388  17.827  0.00  0.00    +0.000 A 
ATOM     15  C   UNL     1      -0.525  12.043  18.793  0.00  0.00    +0.000 A 
ENDROOT
BRANCH   1  20
ATOM     16  C   UNL     1      -4.590  12.590  23.511  0.00  0.00    +0.000 C 
ATOM     17  C   UNL     1      -3.446  13.075  22.662  0.00  0.00    +0.000 A 
ATOM     18  C   UNL     1      -2.147  13.036  23.184  0.00  0.00    +0.000 A 
ATOM     19  C   UNL     1      -1.052  13.409  22.404  0.00  0.00    +0.000 A 
ATOM     20  C   UNL     1      -1.232  13.839  21.089  0.00  0.00    +0.000 A 
ATOM     21  C   UNL     1      -2.534  13.961  20.587  0.00  0.00    +0.000 A 
ATOM     22  C   UNL     1      -3.646  13.558  21.353  0.00  0.00    +0.000 A 
ATOM     23  C   UNL     1      -5.024  13.617  20.751  0.00  0.00    +0.000 C 
ENDBRANCH   1  20
BRANCH   9  24
ATOM     24  C   UNL     1       0.676   9.575  21.228  0.00  0.00    +0.000 C 
BRANCH  24  25
ATOM     25  C   UNL     1       1.263   8.230  20.820  0.00  0.00    +0.000 C 
ATOM     26  O   UNL     1       0.856   7.195  21.352  0.00  0.00    +0.000 OA
ATOM     27  N   UNL     1       2.186   8.206  19.799  0.00  0.00    +0.000 N 
ATOM     28  H   UNL     1       2.518   9.075  19.397  0.00  0.00    +0.000 HD
BRANCH  27  29
ATOM     29  C   UNL     1       2.727   6.926  19.381  0.00  0.00    +0.000 C 
BRANCH  29  30
ATOM     30  C   UNL     1       2.030   6.300  18.175  0.00  0.00    +0.000 C 
BRANCH  30  31
ATOM     31  C   UNL     1       2.338   4.822  18.104  0.00  0.00    +0.000 A 
ATOM     32  C   UNL     1       3.559   4.377  17.577  0.00  0.00    +0.000 A 
ATOM     33  C   UNL     1       3.813   3.012  17.431  0.00  0.00    +0.000 A 
ATOM     34  C   UNL     1       2.850   2.077  17.809  0.00  0.00    +0.000 A 
ATOM     35  C   UNL     1       1.634   2.509  18.336  0.00  0.00    +0.000 A 
ATOM     36  C   UNL     1       1.377   3.873  18.483  0.00  0.00    +0.000 A 
ENDBRANCH  30  31
ENDBRANCH  29  30
ENDBRANCH  27  29
ENDBRANCH  24  25
ENDBRANCH   9  24
TORSDOF 6
ENDMDL
MODEL 6
REMARK VINA RESULT:      -7.5      2.413      4.790
REMARK  Name = 
REMARK  8 active torsions:
REMARK  status: ('A' for Active; 'I' for Inactive)
REMARK    1  A    between atoms: C_1  and  C_2
REMARK    2  A    between atoms: C_5  and  N_6
REMARK    3  A    between atoms: N_14  and  C_15
REMARK    4  A    between atoms: C_15  and  C_16
REMARK    5  A    between atoms: N_18  and  C_19
REMARK    6  A    between atoms: C_19  and  C_20
REMARK    7  A    between atoms: C_20  and  C_21
REMARK    8  A    between atoms: C_34  and  C_35
REMARK                            x       y       z     vdW  Elec       q    Type
REMARK                         _______ _______ _______ _____ _____    ______ ____
ROOT
ATOM      1  N   UNL     1      -1.486  13.818  20.476  0.00  0.00    +0.000 N 
ATOM      2  C   UNL     1      -1.195  15.164  20.323  0.00  0.00    +0.000 C 
ATOM      3  O   UNL     1      -1.864  16.095  20.764  0.00  0.00    +0.000 OA
ATOM      4  C   UNL     1       0.062  15.408  19.521  0.00  0.00    +0.000 C 
ATOM      5  S   UNL     1       0.795  13.818  19.113  0.00  0.00    +0.000 S 
ATOM      6  C   UNL     1      -0.549  12.868  19.879  0.00  0.00    +0.000 C 
ATOM      7  C   UNL     1       0.071  11.877  20.918  0.00  0.00    +0.000 C 
ATOM      8  O   UNL     1       0.650  12.172  21.955  0.00  0.00    +0.000 OA
ATOM      9  N   UNL     1      -0.262  10.574  20.501  0.00  0.00    +0.000 N 
ATOM     10  C   UNL     1      -1.001  10.601  19.307  0.00  0.00    +0.000 A 
ATOM     11  C   UNL     1      -1.531   9.541  18.596  0.00  0.00    +0.000 A 
ATOM     12  C   UNL     1      -2.234   9.825  17.420  0.00  0.00    +0.000 A 
ATOM     13  C   UNL     1      -2.413  11.148  16.985  0.00  0.00    +0.000 A 
ATOM     14  C   UNL     1      -1.887  12.210  17.720  0.00  0.00    +0.000 A 
ATOM     15  C   UNL     1      -1.177  11.922  18.880  0.00  0.00    +0.000 A 
ENDROOT
BRANCH   1  20
ATOM     16  C   UNL     1      -6.634  12.643  22.714  0.00  0.00    +0.000 C 
ATOM     17  C   UNL     1      -5.260  12.845  22.136  0.00  0.00    +0.000 A 
ATOM     18  C   UNL     1      -5.130  13.113  20.767  0.00  0.00    +0.000 A 
ATOM     19  C   UNL     1      -3.880  13.377  20.207  0.00  0.00    +0.000 A 
ATOM     20  C   UNL     1      -2.732  13.369  20.998  0.00  0.00    +0.000 A 
ATOM     21  C   UNL     1      -2.841  13.020  22.350  0.00  0.00    +0.000 A 
ATOM     22  C   UNL     1      -4.101  12.781  22.936  0.00  0.00    +0.000 A 
ATOM     23  C   UNL     1      -4.193  12.497  24.411  0.00  0.00    +0.000 C 
ENDBRANCH   1  20
BRANCH   9  24
ATOM     24  C   UNL     1      -0.223   9.449  21.416  0.00  0.00    +0.000 C 
BRANCH  24  25
ATOM     25  C   UNL     1       0.944   8.470  21.366  0.00  0.00    +0.000 C 
ATOM     26  O   UNL     1       1.962   8.695  22.023  0.00  0.00    +0.000 OA
ATOM     27  N   UNL     1       0.789   7.311  20.640  0.00  0.00    +0.000 N 
ATOM     28  H   UNL     1      -0.051   7.165  20.093  0.00  0.00    +0.000 HD
BRANCH  27  29
ATOM     29  C   UNL     1       1.882   6.357  20.613  0.00  0.00    +0.000 C 
BRANCH  29  30
ATOM     30  C   UNL     1       1.466   4.901  20.803  0.00  0.00    +0.000 C 
BRANCH  30  31
ATOM     31  C   UNL     1       2.027   4.048  19.688  0.00  0.00    +0.000 A 
ATOM     32  C   UNL     1       2.784   2.905  19.982  0.00  0.00    +0.000 A 
ATOM     33  C   UNL     1       3.375   2.164  18.958  0.00  0.00    +0.000 A 
ATOM     34  C   UNL     1       3.217   2.556  17.630  0.00  0.00    +0.000 A 
ATOM     35  C   UNL     1       2.464   3.689  17.326  0.00  0.00    +0.000 A 
ATOM     36  C   UNL     1       1.872   4.433  18.348  0.00  0.00    +0.000 A 
ENDBRANCH  30  31
ENDBRANCH  29  30
ENDBRANCH  27  29
ENDBRANCH  24  25
ENDBRANCH   9  24
TORSDOF 6
ENDMDL
MODEL 7
REMARK VINA RESULT:      -7.5      2.371      4.449
REMARK  Name = 
REMARK  8 active torsions:
REMARK  status: ('A' for Active; 'I' for Inactive)
REMARK    1  A    between atoms: C_1  and  C_2
REMARK    2  A    between atoms: C_5  and  N_6
REMARK    3  A    between atoms: N_14  and  C_15
REMARK    4  A    between atoms: C_15  and  C_16
REMARK    5  A    between atoms: N_18  and  C_19
REMARK    6  A    between atoms: C_19  and  C_20
REMARK    7  A    between atoms: C_20  and  C_21
REMARK    8  A    between atoms: C_34  and  C_35
REMARK                            x       y       z     vdW  Elec       q    Type
REMARK                         _______ _______ _______ _____ _____    ______ ____
ROOT
ATOM      1  N   UNL     1      -0.087  13.890  20.381  0.00  0.00    +0.000 N 
ATOM      2  C   UNL     1       0.337  15.181  20.106  0.00  0.00    +0.000 C 
ATOM      3  O   UNL     1       0.022  16.186  20.738  0.00  0.00    +0.000 OA
ATOM      4  C   UNL     1       1.250  15.257  18.905  0.00  0.00    +0.000 C 
ATOM      5  S   UNL     1       1.532  13.590  18.296  0.00  0.00    +0.000 S 
ATOM      6  C   UNL     1       0.416  12.830  19.510  0.00  0.00    +0.000 C 
ATOM      7  C   UNL     1       1.201  11.719  20.281  0.00  0.00    +0.000 C 
ATOM      8  O   UNL     1       2.148  11.883  21.038  0.00  0.00    +0.000 OA
ATOM      9  N   UNL     1       0.542  10.498  20.037  0.00  0.00    +0.000 N 
ATOM     10  C   UNL     1      -0.559  10.682  19.183  0.00  0.00    +0.000 A 
ATOM     11  C   UNL     1      -1.465   9.742  18.729  0.00  0.00    +0.000 A 
ATOM     12  C   UNL     1      -2.485  10.174  17.874  0.00  0.00    +0.000 A 
ATOM     13  C   UNL     1      -2.597  11.524  17.504  0.00  0.00    +0.000 A 
ATOM     14  C   UNL     1      -1.686  12.465  17.982  0.00  0.00    +0.000 A 
ATOM     15  C   UNL     1      -0.665  12.029  18.819  0.00  0.00    +0.000 A 
ENDROOT
BRANCH   1  20
ATOM     16  C   UNL     1      -4.171  12.165  24.020  0.00  0.00    +0.000 C 
ATOM     17  C   UNL     1      -3.140  12.719  23.075  0.00  0.00    +0.000 A 
ATOM     18  C   UNL     1      -1.812  12.833  23.506  0.00  0.00    +0.000 A 
ATOM     19  C   UNL     1      -0.814  13.274  22.637  0.00  0.00    +0.000 A 
ATOM     20  C   UNL     1      -1.121  13.620  21.321  0.00  0.00    +0.000 A 
ATOM     21  C   UNL     1      -2.458  13.588  20.906  0.00  0.00    +0.000 A 
ATOM     22  C   UNL     1      -3.472  13.116  21.763  0.00  0.00    +0.000 A 
ATOM     23  C   UNL     1      -4.885  13.009  21.256  0.00  0.00    +0.000 C 
ENDBRANCH   1  20
BRANCH   9  24
ATOM     24  C   UNL     1       0.726   9.348  20.901  0.00  0.00    +0.000 C 
BRANCH  24  25
ATOM     25  C   UNL     1       1.494   8.133  20.394  0.00  0.00    +0.000 C 
ATOM     26  O   UNL     1       1.485   7.086  21.045  0.00  0.00    +0.000 OA
ATOM     27  N   UNL     1       2.116   8.221  19.170  0.00  0.00    +0.000 N 
ATOM     28  H   UNL     1       2.125   9.103  18.670  0.00  0.00    +0.000 HD
BRANCH  27  29
ATOM     29  C   UNL     1       2.822   7.059  18.664  0.00  0.00    +0.000 C 
BRANCH  29  30
ATOM     30  C   UNL     1       3.887   7.365  17.614  0.00  0.00    +0.000 C 
BRANCH  30  31
ATOM     31  C   UNL     1       4.356   6.086  16.960  0.00  0.00    +0.000 A 
ATOM     32  C   UNL     1       4.044   4.842  17.528  0.00  0.00    +0.000 A 
ATOM     33  C   UNL     1       4.547   3.663  16.975  0.00  0.00    +0.000 A 
ATOM     34  C   UNL     1       5.368   3.714  15.850  0.00  0.00    +0.000 A 
ATOM     35  C   UNL     1       5.682   4.943  15.275  0.00  0.00    +0.000 A 
ATOM     36  C   UNL     1       5.181   6.124  15.825  0.00  0.00    +0.000 A 
ENDBRANCH  30  31
ENDBRANCH  29  30
ENDBRANCH  27  29
ENDBRANCH  24  25
ENDBRANCH   9  24
TORSDOF 6
ENDMDL
MODEL 8
REMARK VINA RESULT:      -7.5      2.224      3.370
REMARK  Name = 
REMARK  8 active torsions:
REMARK  status: ('A' for Active; 'I' for Inactive)
REMARK    1  A    between atoms: C_1  and  C_2
REMARK    2  A    between atoms: C_5  and  N_6
REMARK    3  A    between atoms: N_14  and  C_15
REMARK    4  A    between atoms: C_15  and  C_16
REMARK    5  A    between atoms: N_18  and  C_19
REMARK    6  A    between atoms: C_19  and  C_20
REMARK    7  A    between atoms: C_20  and  C_21
REMARK    8  A    between atoms: C_34  and  C_35
REMARK                            x       y       z     vdW  Elec       q    Type
REMARK                         _______ _______ _______ _____ _____    ______ ____
ROOT
ATOM      1  N   UNL     1       0.101  12.014  18.856  0.00  0.00    +0.000 N 
ATOM      2  C   UNL     1      -0.807  12.750  18.112  0.00  0.00    +0.000 C 
ATOM      3  O   UNL     1      -0.644  13.905  17.725  0.00  0.00    +0.000 OA
ATOM      4  C   UNL     1      -2.077  11.988  17.811  0.00  0.00    +0.000 C 
ATOM      5  S   UNL     1      -1.915  10.326  18.473  0.00  0.00    +0.000 S 
ATOM      6  C   UNL     1      -0.284  10.648  19.205  0.00  0.00    +0.000 C 
ATOM      7  C   UNL     1       0.718   9.570  18.679  0.00  0.00    +0.000 C 
ATOM      8  O   UNL     1       1.102   9.428  17.525  0.00  0.00    +0.000 OA
ATOM      9  N   UNL     1       1.194   8.861  19.799  0.00  0.00    +0.000 N 
ATOM     10  C   UNL     1       0.602   9.334  20.982  0.00  0.00    +0.000 A 
ATOM     11  C   UNL     1       0.821   8.919  22.282  0.00  0.00    +0.000 A 
ATOM     12  C   UNL     1       0.100   9.549  23.302  0.00  0.00    +0.000 A 
ATOM     13  C   UNL     1      -0.804  10.584  23.017  0.00  0.00    +0.000 A 
ATOM     14  C   UNL     1      -1.004  11.005  21.703  0.00  0.00    +0.000 A 
ATOM     15  C   UNL     1      -0.297  10.366  20.691  0.00  0.00    +0.000 A 
ENDROOT
BRANCH   1  20
ATOM     16  C   UNL     1       4.462  14.982  21.106  0.00  0.00    +0.000 C 
ATOM     17  C   UNL     1       3.385  14.118  20.509  0.00  0.00    +0.000 A 
ATOM     18  C   UNL     1       2.341  13.668  21.328  0.00  0.00    +0.000 A 
ATOM     19  C   UNL     1       1.287  12.925  20.796  0.00  0.00    +0.000 A 
ATOM     20  C   UNL     1       1.256  12.606  19.438  0.00  0.00    +0.000 A 
ATOM     21  C   UNL     1       2.337  12.980  18.629  0.00  0.00    +0.000 A 
ATOM     22  C   UNL     1       3.394  13.757  19.146  0.00  0.00    +0.000 A 
ATOM     23  C   UNL     1       4.495  14.219  18.230  0.00  0.00    +0.000 C 
ENDBRANCH   1  20
BRANCH   9  24
ATOM     24  C   UNL     1       2.422   8.092  19.747  0.00  0.00    +0.000 C 
BRANCH  24  25
ATOM     25  C   UNL     1       2.364   6.582  19.546  0.00  0.00    +0.000 C 
ATOM     26  O   UNL     1       1.987   5.855  20.467  0.00  0.00    +0.000 OA
ATOM     27  N   UNL     1       2.664   6.080  18.301  0.00  0.00    +0.000 N 
ATOM     28  H   UNL     1       2.993   6.701  17.571  0.00  0.00    +0.000 HD
BRANCH  27  29
ATOM     29  C   UNL     1       2.579   4.646  18.091  0.00  0.00    +0.000 C 
BRANCH  29  30
ATOM     30  C   UNL     1       3.831   3.867  18.487  0.00  0.00    +0.000 C 
BRANCH  30  31
ATOM     31  C   UNL     1       4.969   4.199  17.550  0.00  0.00    +0.000 A 
ATOM     32  C   UNL     1       4.813   4.054  16.164  0.00  0.00    +0.000 A 
ATOM     33  C   UNL     1       5.887   4.277  15.301  0.00  0.00    +0.000 A 
ATOM     34  C   UNL     1       7.130   4.647  15.814  0.00  0.00    +0.000 A 
ATOM     35  C   UNL     1       7.296   4.797  17.189  0.00  0.00    +0.000 A 
ATOM     36  C   UNL     1       6.224   4.574  18.055  0.00  0.00    +0.000 A 
ENDBRANCH  30  31
ENDBRANCH  29  30
ENDBRANCH  27  29
ENDBRANCH  24  25
ENDBRANCH   9  24
TORSDOF 6
ENDMDL
MODEL 9
REMARK VINA RESULT:      -7.4      2.142      4.199
REMARK  Name = 
REMARK  8 active torsions:
REMARK  status: ('A' for Active; 'I' for Inactive)
REMARK    1  A    between atoms: C_1  and  C_2
REMARK    2  A    between atoms: C_5  and  N_6
REMARK    3  A    between atoms: N_14  and  C_15
REMARK    4  A    between atoms: C_15  and  C_16
REMARK    5  A    between atoms: N_18  and  C_19
REMARK    6  A    between atoms: C_19  and  C_20
REMARK    7  A    between atoms: C_20  and  C_21
REMARK    8  A    between atoms: C_34  and  C_35
REMARK                            x       y       z     vdW  Elec       q    Type
REMARK                         _______ _______ _______ _____ _____    ______ ____
ROOT
ATOM      1  N   UNL     1       0.067  13.872  20.359  0.00  0.00    +0.000 N 
ATOM      2  C   UNL     1       0.566  15.139  20.104  0.00  0.00    +0.000 C 
ATOM      3  O   UNL     1       0.251  16.165  20.701  0.00  0.00    +0.000 OA
ATOM      4  C   UNL     1       1.567  15.161  18.972  0.00  0.00    +0.000 C 
ATOM      5  S   UNL     1       1.819  13.476  18.402  0.00  0.00    +0.000 S 
ATOM      6  C   UNL     1       0.585  12.780  19.538  0.00  0.00    +0.000 C 
ATOM      7  C   UNL     1       1.263  11.645  20.374  0.00  0.00    +0.000 C 
ATOM      8  O   UNL     1       2.159  11.779  21.197  0.00  0.00    +0.000 OA
ATOM      9  N   UNL     1       0.571  10.451  20.094  0.00  0.00    +0.000 N 
ATOM     10  C   UNL     1      -0.456  10.672  19.161  0.00  0.00    +0.000 A 
ATOM     11  C   UNL     1      -1.367   9.766  18.650  0.00  0.00    +0.000 A 
ATOM     12  C   UNL     1      -2.303  10.230  17.719  0.00  0.00    +0.000 A 
ATOM     13  C   UNL     1      -2.328  11.579  17.329  0.00  0.00    +0.000 A 
ATOM     14  C   UNL     1      -1.414  12.486  17.864  0.00  0.00    +0.000 A 
ATOM     15  C   UNL     1      -0.476  12.017  18.777  0.00  0.00    +0.000 A 
ENDROOT
BRANCH   1  20
ATOM     16  C   UNL     1      -4.442  12.405  23.587  0.00  0.00    +0.000 C 
ATOM     17  C   UNL     1      -3.279  12.894  22.766  0.00  0.00    +0.000 A 
ATOM     18  C   UNL     1      -1.976  12.670  23.230  0.00  0.00    +0.000 A 
ATOM     19  C   UNL     1      -0.872  13.044  22.464  0.00  0.00    +0.000 A 
ATOM     20  C   UNL     1      -1.043  13.658  21.224  0.00  0.00    +0.000 A 
ATOM     21  C   UNL     1      -2.340  13.961  20.790  0.00  0.00    +0.000 A 
ATOM     22  C   UNL     1      -3.466  13.562  21.539  0.00  0.00    +0.000 A 
ATOM     23  C   UNL     1      -4.847  13.822  21.001  0.00  0.00    +0.000 C 
ENDBRANCH   1  20
BRANCH   9  24
ATOM     24  C   UNL     1       0.640   9.306  20.981  0.00  0.00    +0.000 C 
BRANCH  24  25
ATOM     25  C   UNL     1       1.571   8.145  20.649  0.00  0.00    +0.000 C 
ATOM     26  O   UNL     1       1.885   7.340  21.527  0.00  0.00    +0.000 OA
ATOM     27  N   UNL     1       1.973   7.987  19.342  0.00  0.00    +0.000 N 
ATOM     28  H   UNL     1       1.717   8.679  18.647  0.00  0.00    +0.000 HD
BRANCH  27  29
ATOM     29  C   UNL     1       2.833   6.867  19.010  0.00  0.00    +0.000 C 
BRANCH  29  30
ATOM     30  C   UNL     1       2.107   5.650  18.442  0.00  0.00    +0.000 C 
BRANCH  30  31
ATOM     31  C   UNL     1       2.185   4.495  19.414  0.00  0.00    +0.000 A 
ATOM     32  C   UNL     1       1.126   4.238  20.297  0.00  0.00    +0.000 A 
ATOM     33  C   UNL     1       1.230   3.226  21.253  0.00  0.00    +0.000 A 
ATOM     34  C   UNL     1       2.393   2.462  21.339  0.00  0.00    +0.000 A 
ATOM     35  C   UNL     1       3.450   2.707  20.465  0.00  0.00    +0.000 A 
ATOM     36  C   UNL     1       3.350   3.718  19.507  0.00  0.00    +0.000 A 
ENDBRANCH  30  31
ENDBRANCH  29  30
ENDBRANCH  27  29
ENDBRANCH  24  25
ENDBRANCH   9  24
TORSDOF 6
ENDMDL
