MODEL 1
REMARK VINA RESULT:      -6.8      0.000      0.000
REMARK  Name = 
REMARK  9 active torsions:
REMARK  status: ('A' for Active; 'I' for Inactive)
REMARK    1  A    between atoms: C_1  and  C_2
REMARK    2  A    between atoms: C_2  and  C_3
REMARK    3  A    between atoms: C_2  and  C_4
REMARK    4  A    between atoms: C_4  and  N_5
REMARK    5  A    between atoms: N_8  and  C_9
REMARK    6  A    between atoms: C_16  and  C_17
REMARK    7  A    between atoms: C_16  and  O_18
REMARK    8  A    between atoms: C_20  and  C_21
REMARK    9  A    between atoms: C_20  and  C_22
REMARK                            x       y       z     vdW  Elec       q    Type
REMARK                         _______ _______ _______ _____ _____    ______ ____
ROOT
ATOM      1  N   UNL     1       4.568   3.991  18.636  0.00  0.00    +0.000 N 
ATOM      2  C   UNL     1       4.164   5.198  19.194  0.00  0.00    +0.000 C 
ATOM      3  O   UNL     1       4.843   6.219  19.061  0.00  0.00    +0.000 OA
ATOM      4  N   UNL     1       2.906   5.254  19.787  0.00  0.00    +0.000 N 
ATOM      5  C   UNL     1       2.090   4.082  20.086  0.00  0.00    +0.000 C 
ATOM      6  C   UNL     1       0.566   4.312  20.035  0.00  0.00    +0.000 C 
ATOM      7  C   UNL     1       2.420   2.927  19.141  0.00  0.00    +0.000 C 
ATOM      8  C   UNL     1       3.936   2.697  19.000  0.00  0.00    +0.000 C 
ATOM      9  C   UNL     1       4.106   1.584  17.939  0.00  0.00    +0.000 C 
ATOM     10  C   UNL     1       4.564   2.157  20.300  0.00  0.00    +0.000 C 
ENDROOT
BRANCH   4  11
ATOM     11  C   UNL     1       2.293   6.543  19.754  0.00  0.00    +0.000 A 
ATOM     12  C   UNL     1       2.303   7.264  18.542  0.00  0.00    +0.000 A 
ATOM     13  C   UNL     1       1.814   8.561  18.488  0.00  0.00    +0.000 A 
ATOM     14  C   UNL     1       1.328   9.156  19.646  0.00  0.00    +0.000 A 
ATOM     15 CL   UNL     1       0.761  10.780  19.589  0.00  0.00    +0.000 Cl
ATOM     16  C   UNL     1       1.311   8.455  20.854  0.00  0.00    +0.000 A 
ATOM     17  C   UNL     1       1.786   7.140  20.911  0.00  0.00    +0.000 A 
ENDBRANCH   4  11
BRANCH   5  18
ATOM     18  O   UNL     1       2.373   3.696  21.426  0.00  0.00    +0.000 OA
ATOM     19  H   UNL     1       2.840   2.847  21.342  0.00  0.00    +0.000 HD
ENDBRANCH   5  18
BRANCH   1  20
ATOM     20  C   UNL     1       5.600   4.101  17.587  0.00  0.00    +0.000 C 
BRANCH  20  22
ATOM     21  C   UNL     1       5.200   5.943  15.880  0.00  0.00    +0.000 C 
ATOM     22  C   UNL     1       5.111   4.450  16.164  0.00  0.00    +0.000 C 
ATOM     23  C   UNL     1       5.915   3.653  15.133  0.00  0.00    +0.000 C 
ENDBRANCH  20  22
ENDBRANCH   1  20
TORSDOF 4
ENDMDL
MODEL 2
REMARK VINA RESULT:      -6.8      0.166      1.047
REMARK  Name = 
REMARK  9 active torsions:
REMARK  status: ('A' for Active; 'I' for Inactive)
REMARK    1  A    between atoms: C_1  and  C_2
REMARK    2  A    between atoms: C_2  and  C_3
REMARK    3  A    between atoms: C_2  and  C_4
REMARK    4  A    between atoms: C_4  and  N_5
REMARK    5  A    between atoms: N_8  and  C_9
REMARK    6  A    between atoms: C_16  and  C_17
REMARK    7  A    between atoms: C_16  and  O_18
REMARK    8  A    between atoms: C_20  and  C_21
REMARK    9  A    between atoms: C_20  and  C_22
REMARK                            x       y       z     vdW  Elec       q    Type
REMARK                         _______ _______ _______ _____ _____    ______ ____
ROOT
ATOM      1  N   UNL     1       4.574   4.021  18.585  0.00  0.00    +0.000 N 
ATOM      2  C   UNL     1       4.238   5.248  19.141  0.00  0.00    +0.000 C 
ATOM      3  O   UNL     1       4.966   6.234  18.994  0.00  0.00    +0.000 OA
ATOM      4  N   UNL     1       2.993   5.371  19.750  0.00  0.00    +0.000 N 
ATOM      5  C   UNL     1       2.123   4.243  20.065  0.00  0.00    +0.000 C 
ATOM      6  C   UNL     1       0.612   4.548  20.032  0.00  0.00    +0.000 C 
ATOM      7  C   UNL     1       2.383   3.068  19.123  0.00  0.00    +0.000 C 
ATOM      8  C   UNL     1       3.883   2.762  18.964  0.00  0.00    +0.000 C 
ATOM      9  C   UNL     1       3.983   1.636  17.906  0.00  0.00    +0.000 C 
ATOM     10  C   UNL     1       4.500   2.197  20.259  0.00  0.00    +0.000 C 
ENDROOT
BRANCH   4  11
ATOM     11  C   UNL     1       2.445   6.689  19.717  0.00  0.00    +0.000 A 
ATOM     12  C   UNL     1       1.888   7.218  20.900  0.00  0.00    +0.000 A 
ATOM     13  C   UNL     1       1.251   8.450  20.891  0.00  0.00    +0.000 A 
ATOM     14  C   UNL     1       1.149   9.157  19.699  0.00  0.00    +0.000 A 
ATOM     15 CL   UNL     1       0.321  10.666  19.678  0.00  0.00    +0.000 Cl
ATOM     16  C   UNL     1       1.695   8.646  18.519  0.00  0.00    +0.000 A 
ATOM     17  C   UNL     1       2.355   7.413  18.525  0.00  0.00    +0.000 A 
ENDBRANCH   4  11
BRANCH   5  18
ATOM     18  O   UNL     1       2.404   3.849  21.404  0.00  0.00    +0.000 OA
ATOM     19  H   UNL     1       2.979   4.552  21.750  0.00  0.00    +0.000 HD
ENDBRANCH   5  18
BRANCH   1  20
ATOM     20  C   UNL     1       5.597   4.073  17.522  0.00  0.00    +0.000 C 
BRANCH  20  22
ATOM     21  C   UNL     1       5.217   5.961  15.860  0.00  0.00    +0.000 C 
ATOM     22  C   UNL     1       5.112   4.462  16.108  0.00  0.00    +0.000 C 
ATOM     23  C   UNL     1       5.906   3.681  15.058  0.00  0.00    +0.000 C 
ENDBRANCH  20  22
ENDBRANCH   1  20
TORSDOF 4
ENDMDL
MODEL 3
REMARK VINA RESULT:      -6.8      1.116      1.713
REMARK  Name = 
REMARK  9 active torsions:
REMARK  status: ('A' for Active; 'I' for Inactive)
REMARK    1  A    between atoms: C_1  and  C_2
REMARK    2  A    between atoms: C_2  and  C_3
REMARK    3  A    between atoms: C_2  and  C_4
REMARK    4  A    between atoms: C_4  and  N_5
REMARK    5  A    between atoms: N_8  and  C_9
REMARK    6  A    between atoms: C_16  and  C_17
REMARK    7  A    between atoms: C_16  and  O_18
REMARK    8  A    between atoms: C_20  and  C_21
REMARK    9  A    between atoms: C_20  and  C_22
REMARK                            x       y       z     vdW  Elec       q    Type
REMARK                         _______ _______ _______ _____ _____    ______ ____
ROOT
ATOM      1  N   UNL     1       4.028   4.743  17.662  0.00  0.00    +0.000 N 
ATOM      2  C   UNL     1       3.810   6.023  18.154  0.00  0.00    +0.000 C 
ATOM      3  O   UNL     1       4.363   7.002  17.647  0.00  0.00    +0.000 OA
ATOM      4  N   UNL     1       2.846   6.186  19.145  0.00  0.00    +0.000 N 
ATOM      5  C   UNL     1       2.229   5.084  19.874  0.00  0.00    +0.000 C 
ATOM      6  C   UNL     1       0.780   5.333  20.340  0.00  0.00    +0.000 C 
ATOM      7  C   UNL     1       2.238   3.801  19.044  0.00  0.00    +0.000 C 
ATOM      8  C   UNL     1       3.610   3.525  18.403  0.00  0.00    +0.000 C 
ATOM      9  C   UNL     1       3.427   2.270  17.516  0.00  0.00    +0.000 C 
ATOM     10  C   UNL     1       4.679   3.162  19.454  0.00  0.00    +0.000 C 
ENDROOT
BRANCH   4  11
ATOM     11  C   UNL     1       2.219   7.470  19.155  0.00  0.00    +0.000 A 
ATOM     12  C   UNL     1       1.807   8.010  20.390  0.00  0.00    +0.000 A 
ATOM     13  C   UNL     1       1.101   9.203  20.439  0.00  0.00    +0.000 A 
ATOM     14  C   UNL     1       0.786   9.858  19.255  0.00  0.00    +0.000 A 
ATOM     15 CL   UNL     1      -0.127  11.316  19.312  0.00  0.00    +0.000 Cl
ATOM     16  C   UNL     1       1.187   9.336  18.023  0.00  0.00    +0.000 A 
ATOM     17  C   UNL     1       1.915   8.142  17.968  0.00  0.00    +0.000 A 
ENDBRANCH   4  11
BRANCH   5  18
ATOM     18  O   UNL     1       2.984   4.885  21.064  0.00  0.00    +0.000 OA
ATOM     19  H   UNL     1       3.785   5.421  20.938  0.00  0.00    +0.000 HD
ENDBRANCH   5  18
BRANCH   1  20
ATOM     20  C   UNL     1       4.614   4.683  16.309  0.00  0.00    +0.000 C 
BRANCH  20  22
ATOM     21  C   UNL     1       6.479   3.961  14.736  0.00  0.00    +0.000 C 
ATOM     22  C   UNL     1       6.010   4.035  16.183  0.00  0.00    +0.000 C 
ATOM     23  C   UNL     1       7.016   4.807  17.041  0.00  0.00    +0.000 C 
ENDBRANCH  20  22
ENDBRANCH   1  20
TORSDOF 4
ENDMDL
MODEL 4
REMARK VINA RESULT:      -6.8      2.886      5.283
REMARK  Name = 
REMARK  9 active torsions:
REMARK  status: ('A' for Active; 'I' for Inactive)
REMARK    1  A    between atoms: C_1  and  C_2
REMARK    2  A    between atoms: C_2  and  C_3
REMARK    3  A    between atoms: C_2  and  C_4
REMARK    4  A    between atoms: C_4  and  N_5
REMARK    5  A    between atoms: N_8  and  C_9
REMARK    6  A    between atoms: C_16  and  C_17
REMARK    7  A    between atoms: C_16  and  O_18
REMARK    8  A    between atoms: C_20  and  C_21
REMARK    9  A    between atoms: C_20  and  C_22
REMARK                            x       y       z     vdW  Elec       q    Type
REMARK                         _______ _______ _______ _____ _____    ______ ____
ROOT
ATOM      1  N   UNL     1       3.831   3.863  18.880  0.00  0.00    +0.000 N 
ATOM      2  C   UNL     1       4.412   5.107  18.667  0.00  0.00    +0.000 C 
ATOM      3  O   UNL     1       4.262   6.026  19.477  0.00  0.00    +0.000 OA
ATOM      4  N   UNL     1       5.280   5.246  17.588  0.00  0.00    +0.000 N 
ATOM      5  C   UNL     1       5.428   4.258  16.526  0.00  0.00    +0.000 C 
ATOM      6  C   UNL     1       6.828   4.189  15.882  0.00  0.00    +0.000 C 
ATOM      7  C   UNL     1       5.073   2.857  17.024  0.00  0.00    +0.000 C 
ATOM      8  C   UNL     1       3.752   2.831  17.814  0.00  0.00    +0.000 C 
ATOM      9  C   UNL     1       3.593   1.384  18.339  0.00  0.00    +0.000 C 
ATOM     10  C   UNL     1       2.531   3.103  16.913  0.00  0.00    +0.000 C 
ENDROOT
BRANCH   4  11
ATOM     11  C   UNL     1       6.291   6.239  17.766  0.00  0.00    +0.000 A 
ATOM     12  C   UNL     1       7.331   5.986  18.684  0.00  0.00    +0.000 A 
ATOM     13  C   UNL     1       8.276   6.961  18.967  0.00  0.00    +0.000 A 
ATOM     14  C   UNL     1       8.179   8.204  18.351  0.00  0.00    +0.000 A 
ATOM     15 CL   UNL     1       9.326   9.429  18.735  0.00  0.00    +0.000 Cl
ATOM     16  C   UNL     1       7.154   8.470  17.441  0.00  0.00    +0.000 A 
ATOM     17  C   UNL     1       6.210   7.484  17.136  0.00  0.00    +0.000 A 
ENDBRANCH   4  11
BRANCH   5  18
ATOM     18  O   UNL     1       4.543   4.626  15.474  0.00  0.00    +0.000 OA
ATOM     19  H   UNL     1       4.802   4.061  14.727  0.00  0.00    +0.000 HD
ENDBRANCH   5  18
BRANCH   1  20
ATOM     20  C   UNL     1       3.386   3.608  20.263  0.00  0.00    +0.000 C 
BRANCH  20  22
ATOM     21  C   UNL     1       1.551   2.626  21.726  0.00  0.00    +0.000 C 
ATOM     22  C   UNL     1       1.866   3.455  20.488  0.00  0.00    +0.000 C 
ATOM     23  C   UNL     1       1.216   4.838  20.583  0.00  0.00    +0.000 C 
ENDBRANCH  20  22
ENDBRANCH   1  20
TORSDOF 4
ENDMDL
MODEL 5
REMARK VINA RESULT:      -6.7      1.031      1.290
REMARK  Name = 
REMARK  9 active torsions:
REMARK  status: ('A' for Active; 'I' for Inactive)
REMARK    1  A    between atoms: C_1  and  C_2
REMARK    2  A    between atoms: C_2  and  C_3
REMARK    3  A    between atoms: C_2  and  C_4
REMARK    4  A    between atoms: C_4  and  N_5
REMARK    5  A    between atoms: N_8  and  C_9
REMARK    6  A    between atoms: C_16  and  C_17
REMARK    7  A    between atoms: C_16  and  O_18
REMARK    8  A    between atoms: C_20  and  C_21
REMARK    9  A    between atoms: C_20  and  C_22
REMARK                            x       y       z     vdW  Elec       q    Type
REMARK                         _______ _______ _______ _____ _____    ______ ____
ROOT
ATOM      1  N   UNL     1       4.058   4.673  17.739  0.00  0.00    +0.000 N 
ATOM      2  C   UNL     1       3.786   5.937  18.249  0.00  0.00    +0.000 C 
ATOM      3  O   UNL     1       4.318   6.943  17.773  0.00  0.00    +0.000 OA
ATOM      4  N   UNL     1       2.793   6.050  19.218  0.00  0.00    +0.000 N 
ATOM      5  C   UNL     1       2.196   4.915  19.912  0.00  0.00    +0.000 C 
ATOM      6  C   UNL     1       0.728   5.107  20.347  0.00  0.00    +0.000 C 
ATOM      7  C   UNL     1       2.268   3.648  19.059  0.00  0.00    +0.000 C 
ATOM      8  C   UNL     1       3.664   3.429  18.448  0.00  0.00    +0.000 C 
ATOM      9  C   UNL     1       3.544   2.186  17.535  0.00  0.00    +0.000 C 
ATOM     10  C   UNL     1       4.718   3.082  19.518  0.00  0.00    +0.000 C 
ENDROOT
BRANCH   4  11
ATOM     11  C   UNL     1       2.124   7.311  19.235  0.00  0.00    +0.000 A 
ATOM     12  C   UNL     1       1.923   7.985  18.012  0.00  0.00    +0.000 A 
ATOM     13  C   UNL     1       1.373   9.259  17.990  0.00  0.00    +0.000 A 
ATOM     14  C   UNL     1       1.036   9.877  19.189  0.00  0.00    +0.000 A 
ATOM     15 CL   UNL     1       0.394  11.474  19.164  0.00  0.00    +0.000 Cl
ATOM     16  C   UNL     1       1.230   9.223  20.407  0.00  0.00    +0.000 A 
ATOM     17  C   UNL     1       1.766   7.931  20.435  0.00  0.00    +0.000 A 
ENDBRANCH   4  11
BRANCH   5  18
ATOM     18  O   UNL     1       2.928   4.719  21.117  0.00  0.00    +0.000 OA
ATOM     19  H   UNL     1       2.316   4.988  21.822  0.00  0.00    +0.000 HD
ENDBRANCH   5  18
BRANCH   1  20
ATOM     20  C   UNL     1       4.678   4.659  16.400  0.00  0.00    +0.000 C 
BRANCH  20  22
ATOM     21  C   UNL     1       6.658   4.157  14.884  0.00  0.00    +0.000 C 
ATOM     22  C   UNL     1       6.115   4.100  16.306  0.00  0.00    +0.000 C 
ATOM     23  C   UNL     1       7.030   4.865  17.266  0.00  0.00    +0.000 C 
ENDBRANCH  20  22
ENDBRANCH   1  20
TORSDOF 4
ENDMDL
MODEL 6
REMARK VINA RESULT:      -6.3      3.065      4.674
REMARK  Name = 
REMARK  9 active torsions:
REMARK  status: ('A' for Active; 'I' for Inactive)
REMARK    1  A    between atoms: C_1  and  C_2
REMARK    2  A    between atoms: C_2  and  C_3
REMARK    3  A    between atoms: C_2  and  C_4
REMARK    4  A    between atoms: C_4  and  N_5
REMARK    5  A    between atoms: N_8  and  C_9
REMARK    6  A    between atoms: C_16  and  C_17
REMARK    7  A    between atoms: C_16  and  O_18
REMARK    8  A    between atoms: C_20  and  C_21
REMARK    9  A    between atoms: C_20  and  C_22
REMARK                            x       y       z     vdW  Elec       q    Type
REMARK                         _______ _______ _______ _____ _____    ______ ____
ROOT
ATOM      1  N   UNL     1       5.602   5.709  17.498  0.00  0.00    +0.000 N 
ATOM      2  C   UNL     1       5.210   4.988  18.619  0.00  0.00    +0.000 C 
ATOM      3  O   UNL     1       5.519   5.359  19.754  0.00  0.00    +0.000 OA
ATOM      4  N   UNL     1       4.343   3.914  18.435  0.00  0.00    +0.000 N 
ATOM      5  C   UNL     1       4.018   3.341  17.134  0.00  0.00    +0.000 C 
ATOM      6  C   UNL     1       2.606   2.730  17.019  0.00  0.00    +0.000 C 
ATOM      7  C   UNL     1       4.170   4.378  16.021  0.00  0.00    +0.000 C 
ATOM      8  C   UNL     1       5.493   5.159  16.122  0.00  0.00    +0.000 C 
ATOM      9  C   UNL     1       5.446   6.232  15.008  0.00  0.00    +0.000 C 
ATOM     10  C   UNL     1       6.716   4.270  15.818  0.00  0.00    +0.000 C 
ENDROOT
BRANCH   4  11
ATOM     11  C   UNL     1       3.500   3.636  19.553  0.00  0.00    +0.000 A 
ATOM     12  C   UNL     1       3.815   2.539  20.380  0.00  0.00    +0.000 A 
ATOM     13  C   UNL     1       2.969   2.167  21.414  0.00  0.00    +0.000 A 
ATOM     14  C   UNL     1       1.791   2.876  21.620  0.00  0.00    +0.000 A 
ATOM     15 CL   UNL     1       0.719   2.389  22.875  0.00  0.00    +0.000 Cl
ATOM     16  C   UNL     1       1.464   3.965  20.809  0.00  0.00    +0.000 A 
ATOM     17  C   UNL     1       2.323   4.357  19.776  0.00  0.00    +0.000 A 
ENDBRANCH   4  11
BRANCH   5  18
ATOM     18  O   UNL     1       4.919   2.264  16.905  0.00  0.00    +0.000 OA
ATOM     19  H   UNL     1       4.430   1.653  16.328  0.00  0.00    +0.000 HD
ENDBRANCH   5  18
BRANCH   1  20
ATOM     20  C   UNL     1       6.041   7.092  17.765  0.00  0.00    +0.000 C 
BRANCH  20  22
ATOM     21  C   UNL     1       7.870   8.859  17.715  0.00  0.00    +0.000 C 
ATOM     22  C   UNL     1       7.558   7.369  17.679  0.00  0.00    +0.000 C 
ATOM     23  C   UNL     1       8.280   6.636  18.813  0.00  0.00    +0.000 C 
ENDBRANCH  20  22
ENDBRANCH   1  20
TORSDOF 4
ENDMDL
MODEL 7
REMARK VINA RESULT:      -6.3      2.955      5.178
REMARK  Name = 
REMARK  9 active torsions:
REMARK  status: ('A' for Active; 'I' for Inactive)
REMARK    1  A    between atoms: C_1  and  C_2
REMARK    2  A    between atoms: C_2  and  C_3
REMARK    3  A    between atoms: C_2  and  C_4
REMARK    4  A    between atoms: C_4  and  N_5
REMARK    5  A    between atoms: N_8  and  C_9
REMARK    6  A    between atoms: C_16  and  C_17
REMARK    7  A    between atoms: C_16  and  O_18
REMARK    8  A    between atoms: C_20  and  C_21
REMARK    9  A    between atoms: C_20  and  C_22
REMARK                            x       y       z     vdW  Elec       q    Type
REMARK                         _______ _______ _______ _____ _____    ______ ____
ROOT
ATOM      1  N   UNL     1       3.764   3.694  18.939  0.00  0.00    +0.000 N 
ATOM      2  C   UNL     1       4.283   4.971  18.770  0.00  0.00    +0.000 C 
ATOM      3  O   UNL     1       4.077   5.857  19.604  0.00  0.00    +0.000 OA
ATOM      4  N   UNL     1       5.155   5.186  17.707  0.00  0.00    +0.000 N 
ATOM      5  C   UNL     1       5.367   4.238  16.619  0.00  0.00    +0.000 C 
ATOM      6  C   UNL     1       6.776   4.259  15.993  0.00  0.00    +0.000 C 
ATOM      7  C   UNL     1       5.079   2.807  17.072  0.00  0.00    +0.000 C 
ATOM      8  C   UNL     1       3.752   2.690  17.844  0.00  0.00    +0.000 C 
ATOM      9  C   UNL     1       3.661   1.222  18.325  0.00  0.00    +0.000 C 
ATOM     10  C   UNL     1       2.529   2.926  16.934  0.00  0.00    +0.000 C 
ENDROOT
BRANCH   4  11
ATOM     11  C   UNL     1       6.112   6.223  17.927  0.00  0.00    +0.000 A 
ATOM     12  C   UNL     1       5.949   7.447  17.245  0.00  0.00    +0.000 A 
ATOM     13  C   UNL     1       6.908   8.445  17.346  0.00  0.00    +0.000 A 
ATOM     14  C   UNL     1       8.045   8.223  18.113  0.00  0.00    +0.000 A 
ATOM     15 CL   UNL     1       9.255   9.443  18.204  0.00  0.00    +0.000 Cl
ATOM     16  C   UNL     1       8.221   7.016  18.794  0.00  0.00    +0.000 A 
ATOM     17  C   UNL     1       7.249   6.013  18.712  0.00  0.00    +0.000 A 
ENDBRANCH   4  11
BRANCH   5  18
ATOM     18  O   UNL     1       4.476   4.592  15.567  0.00  0.00    +0.000 OA
ATOM     19  H   UNL     1       3.935   3.797  15.427  0.00  0.00    +0.000 HD
ENDBRANCH   5  18
BRANCH   1  20
ATOM     20  C   UNL     1       3.317   3.375  20.309  0.00  0.00    +0.000 C 
BRANCH  20  22
ATOM     21  C   UNL     1       1.515   2.478  21.863  0.00  0.00    +0.000 C 
ATOM     22  C   UNL     1       1.812   3.085  20.499  0.00  0.00    +0.000 C 
ATOM     23  C   UNL     1       1.008   4.372  20.292  0.00  0.00    +0.000 C 
ENDBRANCH  20  22
ENDBRANCH   1  20
TORSDOF 4
ENDMDL
MODEL 8
REMARK VINA RESULT:      -6.2      2.746      5.630
REMARK  Name = 
REMARK  9 active torsions:
REMARK  status: ('A' for Active; 'I' for Inactive)
REMARK    1  A    between atoms: C_1  and  C_2
REMARK    2  A    between atoms: C_2  and  C_3
REMARK    3  A    between atoms: C_2  and  C_4
REMARK    4  A    between atoms: C_4  and  N_5
REMARK    5  A    between atoms: N_8  and  C_9
REMARK    6  A    between atoms: C_16  and  C_17
REMARK    7  A    between atoms: C_16  and  O_18
REMARK    8  A    between atoms: C_20  and  C_21
REMARK    9  A    between atoms: C_20  and  C_22
REMARK                            x       y       z     vdW  Elec       q    Type
REMARK                         _______ _______ _______ _____ _____    ______ ____
ROOT
ATOM      1  N   UNL     1       2.719   5.230  19.335  0.00  0.00    +0.000 N 
ATOM      2  C   UNL     1       3.246   5.268  18.050  0.00  0.00    +0.000 C 
ATOM      3  O   UNL     1       3.451   6.341  17.477  0.00  0.00    +0.000 OA
ATOM      4  N   UNL     1       3.667   4.069  17.482  0.00  0.00    +0.000 N 
ATOM      5  C   UNL     1       3.366   2.752  18.034  0.00  0.00    +0.000 C 
ATOM      6  C   UNL     1       4.430   1.668  17.767  0.00  0.00    +0.000 C 
ATOM      7  C   UNL     1       3.145   2.827  19.545  0.00  0.00    +0.000 C 
ATOM      8  C   UNL     1       2.204   3.978  19.946  0.00  0.00    +0.000 C 
ATOM      9  C   UNL     1       2.172   3.989  21.493  0.00  0.00    +0.000 C 
ATOM     10  C   UNL     1       0.754   3.730  19.483  0.00  0.00    +0.000 C 
ENDROOT
BRANCH   4  11
ATOM     11  C   UNL     1       4.723   4.203  16.530  0.00  0.00    +0.000 A 
ATOM     12  C   UNL     1       5.997   4.600  16.988  0.00  0.00    +0.000 A 
ATOM     13  C   UNL     1       7.025   4.845  16.089  0.00  0.00    +0.000 A 
ATOM     14  C   UNL     1       6.786   4.714  14.726  0.00  0.00    +0.000 A 
ATOM     15 CL   UNL     1       8.049   5.060  13.609  0.00  0.00    +0.000 Cl
ATOM     16  C   UNL     1       5.530   4.322  14.258  0.00  0.00    +0.000 A 
ATOM     17  C   UNL     1       4.494   4.055  15.160  0.00  0.00    +0.000 A 
ENDBRANCH   4  11
BRANCH   5  18
ATOM     18  O   UNL     1       2.179   2.287  17.403  0.00  0.00    +0.000 OA
ATOM     19  H   UNL     1       1.710   3.096  17.136  0.00  0.00    +0.000 HD
ENDBRANCH   5  18
BRANCH   1  20
ATOM     20  C   UNL     1       2.797   6.501  20.081  0.00  0.00    +0.000 C 
BRANCH  20  22
ATOM     21  C   UNL     1       1.165   7.930  21.409  0.00  0.00    +0.000 C 
ATOM     22  C   UNL     1       1.553   7.415  20.030  0.00  0.00    +0.000 C 
ATOM     23  C   UNL     1       1.808   8.579  19.068  0.00  0.00    +0.000 C 
ENDBRANCH  20  22
ENDBRANCH   1  20
TORSDOF 4
ENDMDL
MODEL 9
REMARK VINA RESULT:      -5.9      9.255     10.992
REMARK  Name = 
REMARK  9 active torsions:
REMARK  status: ('A' for Active; 'I' for Inactive)
REMARK    1  A    between atoms: C_1  and  C_2
REMARK    2  A    between atoms: C_2  and  C_3
REMARK    3  A    between atoms: C_2  and  C_4
REMARK    4  A    between atoms: C_4  and  N_5
REMARK    5  A    between atoms: N_8  and  C_9
REMARK    6  A    between atoms: C_16  and  C_17
REMARK    7  A    between atoms: C_16  and  O_18
REMARK    8  A    between atoms: C_20  and  C_21
REMARK    9  A    between atoms: C_20  and  C_22
REMARK                            x       y       z     vdW  Elec       q    Type
REMARK                         _______ _______ _______ _____ _____    ______ ____
ROOT
ATOM      1  N   UNL     1      10.161  12.793  18.249  0.00  0.00    +0.000 N 
ATOM      2  C   UNL     1       9.113  13.699  18.147  0.00  0.00    +0.000 C 
ATOM      3  O   UNL     1       8.098  13.429  17.500  0.00  0.00    +0.000 OA
ATOM      4  N   UNL     1       9.179  14.863  18.909  0.00  0.00    +0.000 N 
ATOM      5  C   UNL     1      10.377  15.314  19.609  0.00  0.00    +0.000 C 
ATOM      6  C   UNL     1      10.120  16.115  20.901  0.00  0.00    +0.000 C 
ATOM      7  C   UNL     1      11.284  14.135  19.963  0.00  0.00    +0.000 C 
ATOM      8  C   UNL     1      11.495  13.178  18.775  0.00  0.00    +0.000 C 
ATOM      9  C   UNL     1      12.332  11.996  19.319  0.00  0.00    +0.000 C 
ATOM     10  C   UNL     1      12.332  13.824  17.652  0.00  0.00    +0.000 C 
ENDROOT
BRANCH   4  11
ATOM     11  C   UNL     1       7.909  15.404  19.275  0.00  0.00    +0.000 A 
ATOM     12  C   UNL     1       7.136  14.721  20.236  0.00  0.00    +0.000 A 
ATOM     13  C   UNL     1       5.854  15.150  20.546  0.00  0.00    +0.000 A 
ATOM     14  C   UNL     1       5.326  16.254  19.886  0.00  0.00    +0.000 A 
ATOM     15 CL   UNL     1       3.719  16.761  20.238  0.00  0.00    +0.000 Cl
ATOM     16  C   UNL     1       6.079  16.940  18.930  0.00  0.00    +0.000 A 
ATOM     17  C   UNL     1       7.379  16.524  18.627  0.00  0.00    +0.000 A 
ENDBRANCH   4  11
BRANCH   5  18
ATOM     18  O   UNL     1      11.069  16.202  18.739  0.00  0.00    +0.000 OA
ATOM     19  H   UNL     1      10.670  17.072  18.909  0.00  0.00    +0.000 HD
ENDBRANCH   5  18
BRANCH   1  20
ATOM     20  C   UNL     1       9.824  11.403  17.888  0.00  0.00    +0.000 C 
BRANCH  20  22
ATOM     21  C   UNL     1       8.487   9.276  18.290  0.00  0.00    +0.000 C 
ATOM     22  C   UNL     1       8.816  10.672  18.802  0.00  0.00    +0.000 C 
ATOM     23  C   UNL     1       9.367  10.610  20.230  0.00  0.00    +0.000 C 
ENDBRANCH  20  22
ENDBRANCH   1  20
TORSDOF 4
ENDMDL
