MODEL 1
REMARK VINA RESULT:      -8.6      0.000      0.000
REMARK  Name = 
REMARK  5 active torsions:
REMARK  status: ('A' for Active; 'I' for Inactive)
REMARK    1  A    between atoms: C_2  and  C_4
REMARK    2  A    between atoms: C_6  and  C_7
REMARK    3  A    between atoms: C_10  and  C_11
REMARK    4  A    between atoms: C_11  and  C_12
REMARK    5  A    between atoms: C_20  and  O_21
REMARK                            x       y       z     vdW  Elec       q    Type
REMARK                         _______ _______ _______ _____ _____    ______ ____
ROOT
ATOM      1  C   UNL     1       2.264   4.624  20.283  0.00  0.00    +0.000 A 
ATOM      2  N   UNL     1       1.779   5.848  20.647  0.00  0.00    +0.000 NA
ATOM      3  C   UNL     1       2.108   6.895  19.856  0.00  0.00    +0.000 A 
ATOM      4  C   UNL     1       2.887   6.755  18.707  0.00  0.00    +0.000 A 
ATOM      5  C   UNL     1       3.347   5.491  18.324  0.00  0.00    +0.000 A 
ATOM      6  N   UNL     1       4.063   5.356  17.185  0.00  0.00    +0.000 NA
ATOM      7  C   UNL     1       4.469   4.130  16.793  0.00  0.00    +0.000 A 
ATOM      8  C   UNL     1       4.203   2.984  17.502  0.00  0.00    +0.000 A 
ATOM      9  C   UNL     1       3.483   3.110  18.681  0.00  0.00    +0.000 A 
ATOM     10  C   UNL     1       3.033   4.379  19.128  0.00  0.00    +0.000 A 
ENDROOT
BRANCH   1  12
ATOM     11  N   UNL     1       0.677   2.893  20.895  0.00  0.00    +0.000 N 
ATOM     12  C   UNL     1       1.853   3.516  21.218  0.00  0.00    +0.000 C 
ATOM     13  O   UNL     1       2.494   3.172  22.201  0.00  0.00    +0.000 OA
ATOM     14  H   UNL     1       0.330   2.162  21.499  0.00  0.00    +0.000 HD
ATOM     15  H   UNL     1       0.107   3.236  20.131  0.00  0.00    +0.000 HD
ENDBRANCH   1  12
BRANCH   3  16
ATOM     16  C   UNL     1       1.587   8.195  20.265  0.00  0.00    +0.000 A 
ATOM     17  N   UNL     1       1.334   8.640  21.482  0.00  0.00    +0.000 NA
ATOM     18  N   UNL     1       0.813   9.906  21.340  0.00  0.00    +0.000 NA
ATOM     19  C   UNL     1       0.780  10.153  20.046  0.00  0.00    +0.000 A 
ATOM     20  O   UNL     1       1.264   9.112  19.294  0.00  0.00    +0.000 OA
BRANCH  19  21
ATOM     21  C   UNL     1       0.210  11.319  19.325  0.00  0.00    +0.000 C 
BRANCH  21  22
ATOM     22  C   UNL     1      -1.196  11.116  18.801  0.00  0.00    +0.000 A 
ATOM     23  C   UNL     1      -2.253  11.900  19.291  0.00  0.00    +0.000 A 
ATOM     24  C   UNL     1      -3.532  11.789  18.742  0.00  0.00    +0.000 A 
ATOM     25  C   UNL     1      -3.758  10.891  17.706  0.00  0.00    +0.000 A 
ATOM     26  F   UNL     1      -4.980  10.804  17.165  0.00  0.00    +0.000 F 
ATOM     27  C   UNL     1      -2.733  10.091  17.219  0.00  0.00    +0.000 A 
ATOM     28  C   UNL     1      -1.451  10.202  17.765  0.00  0.00    +0.000 A 
ENDBRANCH  21  22
ENDBRANCH  19  21
ENDBRANCH   3  16
BRANCH   4  29
ATOM     29  O   UNL     1       3.222   7.829  17.905  0.00  0.00    +0.000 OA
ATOM     30  H   UNL     1       3.874   7.577  17.223  0.00  0.00    +0.000 HD
ENDBRANCH   4  29
TORSDOF 5
ENDMDL
MODEL 2
REMARK VINA RESULT:      -8.5      3.391      7.992
REMARK  Name = 
REMARK  5 active torsions:
REMARK  status: ('A' for Active; 'I' for Inactive)
REMARK    1  A    between atoms: C_2  and  C_4
REMARK    2  A    between atoms: C_6  and  C_7
REMARK    3  A    between atoms: C_10  and  C_11
REMARK    4  A    between atoms: C_11  and  C_12
REMARK    5  A    between atoms: C_20  and  O_21
REMARK                            x       y       z     vdW  Elec       q    Type
REMARK                         _______ _______ _______ _____ _____    ______ ____
ROOT
ATOM      1  C   UNL     1      -0.251  11.500  19.225  0.00  0.00    +0.000 A 
ATOM      2  N   UNL     1       0.555  10.643  18.530  0.00  0.00    +0.000 NA
ATOM      3  C   UNL     1       1.085   9.608  19.221  0.00  0.00    +0.000 A 
ATOM      4  C   UNL     1       0.822   9.392  20.574  0.00  0.00    +0.000 A 
ATOM      5  C   UNL     1      -0.034  10.255  21.266  0.00  0.00    +0.000 A 
ATOM      6  N   UNL     1      -0.320  10.014  22.566  0.00  0.00    +0.000 NA
ATOM      7  C   UNL     1      -1.180  10.821  23.220  0.00  0.00    +0.000 A 
ATOM      8  C   UNL     1      -1.790  11.906  22.639  0.00  0.00    +0.000 A 
ATOM      9  C   UNL     1      -1.492  12.175  21.310  0.00  0.00    +0.000 A 
ATOM     10  C   UNL     1      -0.597  11.349  20.583  0.00  0.00    +0.000 A 
ENDROOT
BRANCH   1  12
ATOM     11  N   UNL     1      -1.650  12.236  17.384  0.00  0.00    +0.000 N 
ATOM     12  C   UNL     1      -0.797  12.624  18.383  0.00  0.00    +0.000 C 
ATOM     13  O   UNL     1      -0.521  13.803  18.547  0.00  0.00    +0.000 OA
ATOM     14  H   UNL     1      -2.027  12.939  16.764  0.00  0.00    +0.000 HD
ATOM     15  H   UNL     1      -1.809  11.253  17.197  0.00  0.00    +0.000 HD
ENDBRANCH   1  12
BRANCH   3  16
ATOM     16  C   UNL     1       1.949   8.708  18.463  0.00  0.00    +0.000 A 
ATOM     17  N   UNL     1       2.656   8.959  17.377  0.00  0.00    +0.000 NA
ATOM     18  N   UNL     1       3.264   7.777  17.019  0.00  0.00    +0.000 NA
ATOM     19  C   UNL     1       2.888   6.880  17.908  0.00  0.00    +0.000 A 
ATOM     20  O   UNL     1       2.053   7.399  18.866  0.00  0.00    +0.000 OA
BRANCH  19  21
ATOM     21  C   UNL     1       3.153   5.419  17.941  0.00  0.00    +0.000 C 
BRANCH  21  22
ATOM     22  C   UNL     1       2.470   4.676  19.070  0.00  0.00    +0.000 A 
ATOM     23  C   UNL     1       1.418   3.787  18.796  0.00  0.00    +0.000 A 
ATOM     24  C   UNL     1       0.852   3.023  19.819  0.00  0.00    +0.000 A 
ATOM     25  C   UNL     1       1.331   3.150  21.116  0.00  0.00    +0.000 A 
ATOM     26  F   UNL     1       0.803   2.397  22.090  0.00  0.00    +0.000 F 
ATOM     27  C   UNL     1       2.358   4.036  21.414  0.00  0.00    +0.000 A 
ATOM     28  C   UNL     1       2.929   4.800  20.393  0.00  0.00    +0.000 A 
ENDBRANCH  21  22
ENDBRANCH  19  21
ENDBRANCH   3  16
BRANCH   4  29
ATOM     29  O   UNL     1       1.370   8.334  21.274  0.00  0.00    +0.000 OA
ATOM     30  H   UNL     1       0.764   7.569  21.300  0.00  0.00    +0.000 HD
ENDBRANCH   4  29
TORSDOF 5
ENDMDL
MODEL 3
REMARK VINA RESULT:      -8.4      4.950      9.134
REMARK  Name = 
REMARK  5 active torsions:
REMARK  status: ('A' for Active; 'I' for Inactive)
REMARK    1  A    between atoms: C_2  and  C_4
REMARK    2  A    between atoms: C_6  and  C_7
REMARK    3  A    between atoms: C_10  and  C_11
REMARK    4  A    between atoms: C_11  and  C_12
REMARK    5  A    between atoms: C_20  and  O_21
REMARK                            x       y       z     vdW  Elec       q    Type
REMARK                         _______ _______ _______ _____ _____    ______ ____
ROOT
ATOM      1  C   UNL     1       3.142   5.825  18.110  0.00  0.00    +0.000 A 
ATOM      2  N   UNL     1       4.201   6.003  17.265  0.00  0.00    +0.000 NA
ATOM      3  C   UNL     1       4.776   4.887  16.763  0.00  0.00    +0.000 A 
ATOM      4  C   UNL     1       4.317   3.603  17.061  0.00  0.00    +0.000 A 
ATOM      5  C   UNL     1       3.210   3.434  17.899  0.00  0.00    +0.000 A 
ATOM      6  N   UNL     1       2.743   2.190  18.148  0.00  0.00    +0.000 NA
ATOM      7  C   UNL     1       1.648   2.030  18.920  0.00  0.00    +0.000 A 
ATOM      8  C   UNL     1       0.967   3.078  19.492  0.00  0.00    +0.000 A 
ATOM      9  C   UNL     1       1.445   4.359  19.258  0.00  0.00    +0.000 A 
ATOM     10  C   UNL     1       2.591   4.572  18.449  0.00  0.00    +0.000 A 
ENDROOT
BRANCH   1  12
ATOM     11  N   UNL     1       2.504   7.220  19.989  0.00  0.00    +0.000 N 
ATOM     12  C   UNL     1       2.563   7.117  18.625  0.00  0.00    +0.000 C 
ATOM     13  O   UNL     1       2.166   8.026  17.911  0.00  0.00    +0.000 OA
ATOM     14  H   UNL     1       2.098   8.050  20.398  0.00  0.00    +0.000 HD
ATOM     15  H   UNL     1       2.755   6.433  20.576  0.00  0.00    +0.000 HD
ENDBRANCH   1  12
BRANCH   3  16
ATOM     16  C   UNL     1       5.909   5.097  15.868  0.00  0.00    +0.000 A 
ATOM     17  N   UNL     1       7.079   5.651  16.129  0.00  0.00    +0.000 NA
ATOM     18  N   UNL     1       7.786   5.660  14.949  0.00  0.00    +0.000 NA
ATOM     19  C   UNL     1       7.004   5.111  14.042  0.00  0.00    +0.000 A 
ATOM     20  O   UNL     1       5.791   4.720  14.552  0.00  0.00    +0.000 OA
BRANCH  19  21
ATOM     21  C   UNL     1       7.216   4.968  12.579  0.00  0.00    +0.000 C 
BRANCH  21  22
ATOM     22  C   UNL     1       6.802   3.629  12.006  0.00  0.00    +0.000 A 
ATOM     23  C   UNL     1       7.777   2.710  11.584  0.00  0.00    +0.000 A 
ATOM     24  C   UNL     1       7.408   1.435  11.149  0.00  0.00    +0.000 A 
ATOM     25  C   UNL     1       6.066   1.079  11.130  0.00  0.00    +0.000 A 
ATOM     26  F   UNL     1       5.717  -0.153  10.736  0.00  0.00    +0.000 F 
ATOM     27  C   UNL     1       5.083   1.977  11.525  0.00  0.00    +0.000 A 
ATOM     28  C   UNL     1       5.449   3.252  11.963  0.00  0.00    +0.000 A 
ENDBRANCH  21  22
ENDBRANCH  19  21
ENDBRANCH   3  16
BRANCH   4  29
ATOM     29  O   UNL     1       4.912   2.467  16.548  0.00  0.00    +0.000 OA
ATOM     30  H   UNL     1       5.489   2.035  17.207  0.00  0.00    +0.000 HD
ENDBRANCH   4  29
TORSDOF 5
ENDMDL
MODEL 4
REMARK VINA RESULT:      -8.4      5.074      8.988
REMARK  Name = 
REMARK  5 active torsions:
REMARK  status: ('A' for Active; 'I' for Inactive)
REMARK    1  A    between atoms: C_2  and  C_4
REMARK    2  A    between atoms: C_6  and  C_7
REMARK    3  A    between atoms: C_10  and  C_11
REMARK    4  A    between atoms: C_11  and  C_12
REMARK    5  A    between atoms: C_20  and  O_21
REMARK                            x       y       z     vdW  Elec       q    Type
REMARK                         _______ _______ _______ _____ _____    ______ ____
ROOT
ATOM      1  C   UNL     1       3.519   3.322  18.310  0.00  0.00    +0.000 A 
ATOM      2  N   UNL     1       4.510   3.484  17.383  0.00  0.00    +0.000 NA
ATOM      3  C   UNL     1       4.885   4.753  17.105  0.00  0.00    +0.000 A 
ATOM      4  C   UNL     1       4.317   5.862  17.734  0.00  0.00    +0.000 A 
ATOM      5  C   UNL     1       3.328   5.682  18.708  0.00  0.00    +0.000 A 
ATOM      6  N   UNL     1       2.814   6.757  19.346  0.00  0.00    +0.000 NA
ATOM      7  C   UNL     1       1.893   6.580  20.316  0.00  0.00    +0.000 A 
ATOM      8  C   UNL     1       1.426   5.346  20.698  0.00  0.00    +0.000 A 
ATOM      9  C   UNL     1       1.933   4.235  20.040  0.00  0.00    +0.000 A 
ATOM     10  C   UNL     1       2.905   4.375  19.017  0.00  0.00    +0.000 A 
ENDROOT
BRANCH   1  12
ATOM     11  N   UNL     1       4.204   0.998  18.446  0.00  0.00    +0.000 N 
ATOM     12  C   UNL     1       3.161   1.879  18.558  0.00  0.00    +0.000 C 
ATOM     13  O   UNL     1       2.038   1.488  18.838  0.00  0.00    +0.000 OA
ATOM     14  H   UNL     1       4.024   0.012  18.570  0.00  0.00    +0.000 HD
ATOM     15  H   UNL     1       5.113   1.315  18.130  0.00  0.00    +0.000 HD
ENDBRANCH   1  12
BRANCH   3  16
ATOM     16  C   UNL     1       5.939   4.906  16.108  0.00  0.00    +0.000 A 
ATOM     17  N   UNL     1       7.198   5.261  16.282  0.00  0.00    +0.000 NA
ATOM     18  N   UNL     1       7.774   5.306  15.032  0.00  0.00    +0.000 NA
ATOM     19  C   UNL     1       6.829   4.977  14.175  0.00  0.00    +0.000 A 
ATOM     20  O   UNL     1       5.630   4.701  14.785  0.00  0.00    +0.000 OA
BRANCH  19  21
ATOM     21  C   UNL     1       6.865   4.973  12.690  0.00  0.00    +0.000 C 
BRANCH  21  22
ATOM     22  C   UNL     1       6.603   3.625  12.053  0.00  0.00    +0.000 A 
ATOM     23  C   UNL     1       7.676   2.808  11.661  0.00  0.00    +0.000 A 
ATOM     24  C   UNL     1       7.445   1.523  11.166  0.00  0.00    +0.000 A 
ATOM     25  C   UNL     1       6.142   1.054  11.056  0.00  0.00    +0.000 A 
ATOM     26  F   UNL     1       5.925  -0.188  10.604  0.00  0.00    +0.000 F 
ATOM     27  C   UNL     1       5.064   1.851  11.419  0.00  0.00    +0.000 A 
ATOM     28  C   UNL     1       5.292   3.136  11.917  0.00  0.00    +0.000 A 
ENDBRANCH  21  22
ENDBRANCH  19  21
ENDBRANCH   3  16
BRANCH   4  29
ATOM     29  O   UNL     1       4.702   7.156  17.443  0.00  0.00    +0.000 OA
ATOM     30  H   UNL     1       3.936   7.711  17.200  0.00  0.00    +0.000 HD
ENDBRANCH   4  29
TORSDOF 5
ENDMDL
MODEL 5
REMARK VINA RESULT:      -8.2      3.341      8.249
REMARK  Name = 
REMARK  5 active torsions:
REMARK  status: ('A' for Active; 'I' for Inactive)
REMARK    1  A    between atoms: C_2  and  C_4
REMARK    2  A    between atoms: C_6  and  C_7
REMARK    3  A    between atoms: C_10  and  C_11
REMARK    4  A    between atoms: C_11  and  C_12
REMARK    5  A    between atoms: C_20  and  O_21
REMARK                            x       y       z     vdW  Elec       q    Type
REMARK                         _______ _______ _______ _____ _____    ______ ____
ROOT
ATOM      1  C   UNL     1      -2.147  11.143  18.209  0.00  0.00    +0.000 A 
ATOM      2  N   UNL     1      -1.068  10.352  17.934  0.00  0.00    +0.000 NA
ATOM      3  C   UNL     1      -0.099  10.292  18.876  0.00  0.00    +0.000 A 
ATOM      4  C   UNL     1      -0.181  10.980  20.087  0.00  0.00    +0.000 A 
ATOM      5  C   UNL     1      -1.308  11.759  20.373  0.00  0.00    +0.000 A 
ATOM      6  N   UNL     1      -1.402  12.387  21.566  0.00  0.00    +0.000 NA
ATOM      7  C   UNL     1      -2.508  13.102  21.859  0.00  0.00    +0.000 A 
ATOM      8  C   UNL     1      -3.567  13.243  20.994  0.00  0.00    +0.000 A 
ATOM      9  C   UNL     1      -3.476  12.618  19.759  0.00  0.00    +0.000 A 
ATOM     10  C   UNL     1      -2.333  11.853  19.412  0.00  0.00    +0.000 A 
ENDROOT
BRANCH   1  12
ATOM     11  N   UNL     1      -2.715  11.581  15.891  0.00  0.00    +0.000 N 
ATOM     12  C   UNL     1      -3.176  11.155  17.109  0.00  0.00    +0.000 C 
ATOM     13  O   UNL     1      -4.342  10.818  17.253  0.00  0.00    +0.000 OA
ATOM     14  H   UNL     1      -3.363  11.642  15.119  0.00  0.00    +0.000 HD
ATOM     15  H   UNL     1      -1.773  11.940  15.795  0.00  0.00    +0.000 HD
ENDBRANCH   1  12
BRANCH   3  16
ATOM     16  C   UNL     1       1.049   9.447  18.561  0.00  0.00    +0.000 A 
ATOM     17  N   UNL     1       1.825   9.468  17.493  0.00  0.00    +0.000 NA
ATOM     18  N   UNL     1       2.735   8.447  17.644  0.00  0.00    +0.000 NA
ATOM     19  C   UNL     1       2.457   7.867  18.794  0.00  0.00    +0.000 A 
ATOM     20  O   UNL     1       1.398   8.452  19.442  0.00  0.00    +0.000 OA
BRANCH  19  21
ATOM     21  C   UNL     1       3.048   6.647  19.399  0.00  0.00    +0.000 C 
BRANCH  21  22
ATOM     22  C   UNL     1       2.240   5.383  19.195  0.00  0.00    +0.000 A 
ATOM     23  C   UNL     1       2.120   4.819  17.915  0.00  0.00    +0.000 A 
ATOM     24  C   UNL     1       1.463   3.600  17.735  0.00  0.00    +0.000 A 
ATOM     25  C   UNL     1       0.918   2.946  18.833  0.00  0.00    +0.000 A 
ATOM     26  F   UNL     1       0.309   1.766  18.661  0.00  0.00    +0.000 F 
ATOM     27  C   UNL     1       1.006   3.494  20.106  0.00  0.00    +0.000 A 
ATOM     28  C   UNL     1       1.667   4.712  20.290  0.00  0.00    +0.000 A 
ENDBRANCH  21  22
ENDBRANCH  19  21
ENDBRANCH   3  16
BRANCH   4  29
ATOM     29  O   UNL     1       0.815  10.918  21.042  0.00  0.00    +0.000 OA
ATOM     30  H   UNL     1       0.443  10.898  21.946  0.00  0.00    +0.000 HD
ENDBRANCH   4  29
TORSDOF 5
ENDMDL
MODEL 6
REMARK VINA RESULT:      -8.2      3.268      8.154
REMARK  Name = 
REMARK  5 active torsions:
REMARK  status: ('A' for Active; 'I' for Inactive)
REMARK    1  A    between atoms: C_2  and  C_4
REMARK    2  A    between atoms: C_6  and  C_7
REMARK    3  A    between atoms: C_10  and  C_11
REMARK    4  A    between atoms: C_11  and  C_12
REMARK    5  A    between atoms: C_20  and  O_21
REMARK                            x       y       z     vdW  Elec       q    Type
REMARK                         _______ _______ _______ _____ _____    ______ ____
ROOT
ATOM      1  C   UNL     1      -2.100  11.101  18.652  0.00  0.00    +0.000 A 
ATOM      2  N   UNL     1      -1.074  10.267  18.310  0.00  0.00    +0.000 NA
ATOM      3  C   UNL     1       0.025  10.297  19.097  0.00  0.00    +0.000 A 
ATOM      4  C   UNL     1       0.125  11.117  20.222  0.00  0.00    +0.000 A 
ATOM      5  C   UNL     1      -0.947  11.940  20.583  0.00  0.00    +0.000 A 
ATOM      6  N   UNL     1      -0.862  12.699  21.699  0.00  0.00    +0.000 NA
ATOM      7  C   UNL     1      -1.913  13.458  22.071  0.00  0.00    +0.000 A 
ATOM      8  C   UNL     1      -3.089  13.520  21.364  0.00  0.00    +0.000 A 
ATOM      9  C   UNL     1      -3.184  12.759  20.207  0.00  0.00    +0.000 A 
ATOM     10  C   UNL     1      -2.105  11.943  19.782  0.00  0.00    +0.000 A 
ENDROOT
BRANCH   1  12
ATOM     11  N   UNL     1      -3.222  11.822  16.624  0.00  0.00    +0.000 N 
ATOM     12  C   UNL     1      -3.283  11.006  17.723  0.00  0.00    +0.000 C 
ATOM     13  O   UNL     1      -4.243  10.270  17.903  0.00  0.00    +0.000 OA
ATOM     14  H   UNL     1      -3.998  11.828  15.978  0.00  0.00    +0.000 HD
ATOM     15  H   UNL     1      -2.468  12.491  16.522  0.00  0.00    +0.000 HD
ENDBRANCH   1  12
BRANCH   3  16
ATOM     16  C   UNL     1       1.114   9.405  18.711  0.00  0.00    +0.000 A 
ATOM     17  N   UNL     1       1.757   9.332  17.561  0.00  0.00    +0.000 NA
ATOM     18  N   UNL     1       2.663   8.303  17.677  0.00  0.00    +0.000 NA
ATOM     19  C   UNL     1       2.514   7.812  18.890  0.00  0.00    +0.000 A 
ATOM     20  O   UNL     1       1.549   8.466  19.615  0.00  0.00    +0.000 OA
BRANCH  19  21
ATOM     21  C   UNL     1       3.154   6.623  19.509  0.00  0.00    +0.000 C 
BRANCH  21  22
ATOM     22  C   UNL     1       2.422   5.317  19.278  0.00  0.00    +0.000 A 
ATOM     23  C   UNL     1       1.657   4.745  20.308  0.00  0.00    +0.000 A 
ATOM     24  C   UNL     1       0.899   3.596  20.073  0.00  0.00    +0.000 A 
ATOM     25  C   UNL     1       0.908   3.014  18.811  0.00  0.00    +0.000 A 
ATOM     26  F   UNL     1       0.161   1.926  18.583  0.00  0.00    +0.000 F 
ATOM     27  C   UNL     1       1.672   3.551  17.783  0.00  0.00    +0.000 A 
ATOM     28  C   UNL     1       2.430   4.702  18.015  0.00  0.00    +0.000 A 
ENDBRANCH  21  22
ENDBRANCH  19  21
ENDBRANCH   3  16
BRANCH   4  29
ATOM     29  O   UNL     1       1.252  11.146  21.019  0.00  0.00    +0.000 OA
ATOM     30  H   UNL     1       1.020  11.167  21.968  0.00  0.00    +0.000 HD
ENDBRANCH   4  29
TORSDOF 5
ENDMDL
MODEL 7
REMARK VINA RESULT:      -8.1      1.799      3.104
REMARK  Name = 
REMARK  5 active torsions:
REMARK  status: ('A' for Active; 'I' for Inactive)
REMARK    1  A    between atoms: C_2  and  C_4
REMARK    2  A    between atoms: C_6  and  C_7
REMARK    3  A    between atoms: C_10  and  C_11
REMARK    4  A    between atoms: C_11  and  C_12
REMARK    5  A    between atoms: C_20  and  O_21
REMARK                            x       y       z     vdW  Elec       q    Type
REMARK                         _______ _______ _______ _____ _____    ______ ____
ROOT
ATOM      1  C   UNL     1       4.069   4.841  18.184  0.00  0.00    +0.000 A 
ATOM      2  N   UNL     1       3.664   6.113  17.896  0.00  0.00    +0.000 NA
ATOM      3  C   UNL     1       2.749   6.666  18.725  0.00  0.00    +0.000 A 
ATOM      4  C   UNL     1       2.241   5.997  19.840  0.00  0.00    +0.000 A 
ATOM      5  C   UNL     1       2.691   4.708  20.146  0.00  0.00    +0.000 A 
ATOM      6  N   UNL     1       2.229   4.083  21.253  0.00  0.00    +0.000 NA
ATOM      7  C   UNL     1       2.696   2.859  21.571  0.00  0.00    +0.000 A 
ATOM      8  C   UNL     1       3.626   2.185  20.818  0.00  0.00    +0.000 A 
ATOM      9  C   UNL     1       4.097   2.807  19.670  0.00  0.00    +0.000 A 
ATOM     10  C   UNL     1       3.636   4.097  19.300  0.00  0.00    +0.000 A 
ENDROOT
BRANCH   1  12
ATOM     11  N   UNL     1       6.366   4.232  17.693  0.00  0.00    +0.000 N 
ATOM     12  C   UNL     1       5.085   4.302  17.212  0.00  0.00    +0.000 C 
ATOM     13  O   UNL     1       4.825   3.945  16.072  0.00  0.00    +0.000 OA
ATOM     14  H   UNL     1       7.100   3.908  17.080  0.00  0.00    +0.000 HD
ATOM     15  H   UNL     1       6.592   4.607  18.606  0.00  0.00    +0.000 HD
ENDBRANCH   1  12
BRANCH   3  16
ATOM     16  C   UNL     1       2.323   8.022  18.397  0.00  0.00    +0.000 A 
ATOM     17  N   UNL     1       2.810   8.846  17.487  0.00  0.00    +0.000 NA
ATOM     18  N   UNL     1       2.103  10.021  17.597  0.00  0.00    +0.000 NA
ATOM     19  C   UNL     1       1.230   9.841  18.567  0.00  0.00    +0.000 A 
ATOM     20  O   UNL     1       1.304   8.588  19.123  0.00  0.00    +0.000 OA
BRANCH  19  21
ATOM     21  C   UNL     1       0.292  10.815  19.182  0.00  0.00    +0.000 C 
BRANCH  21  22
ATOM     22  C   UNL     1      -1.114  10.781  18.622  0.00  0.00    +0.000 A 
ATOM     23  C   UNL     1      -2.096  11.652  19.123  0.00  0.00    +0.000 A 
ATOM     24  C   UNL     1      -3.366  11.698  18.544  0.00  0.00    +0.000 A 
ATOM     25  C   UNL     1      -3.659  10.869  17.468  0.00  0.00    +0.000 A 
ATOM     26  F   UNL     1      -4.870  10.933  16.899  0.00  0.00    +0.000 F 
ATOM     27  C   UNL     1      -2.711   9.986  16.967  0.00  0.00    +0.000 A 
ATOM     28  C   UNL     1      -1.439   9.940  17.543  0.00  0.00    +0.000 A 
ENDBRANCH  21  22
ENDBRANCH  19  21
ENDBRANCH   3  16
BRANCH   4  29
ATOM     29  O   UNL     1       1.304   6.566  20.680  0.00  0.00    +0.000 OA
ATOM     30  H   UNL     1       1.714   7.212  21.288  0.00  0.00    +0.000 HD
ENDBRANCH   4  29
TORSDOF 5
ENDMDL
MODEL 8
REMARK VINA RESULT:      -8.1      3.247      8.037
REMARK  Name = 
REMARK  5 active torsions:
REMARK  status: ('A' for Active; 'I' for Inactive)
REMARK    1  A    between atoms: C_2  and  C_4
REMARK    2  A    between atoms: C_6  and  C_7
REMARK    3  A    between atoms: C_10  and  C_11
REMARK    4  A    between atoms: C_11  and  C_12
REMARK    5  A    between atoms: C_20  and  O_21
REMARK                            x       y       z     vdW  Elec       q    Type
REMARK                         _______ _______ _______ _____ _____    ______ ____
ROOT
ATOM      1  C   UNL     1      -0.814  11.684  20.797  0.00  0.00    +0.000 A 
ATOM      2  N   UNL     1       0.220  10.936  20.311  0.00  0.00    +0.000 NA
ATOM      3  C   UNL     1       0.019  10.313  19.127  0.00  0.00    +0.000 A 
ATOM      4  C   UNL     1      -1.171  10.429  18.407  0.00  0.00    +0.000 A 
ATOM      5  C   UNL     1      -2.209  11.228  18.897  0.00  0.00    +0.000 A 
ATOM      6  N   UNL     1      -3.342  11.372  18.173  0.00  0.00    +0.000 NA
ATOM      7  C   UNL     1      -4.325  12.177  18.625  0.00  0.00    +0.000 A 
ATOM      8  C   UNL     1      -4.250  12.869  19.810  0.00  0.00    +0.000 A 
ATOM      9  C   UNL     1      -3.100  12.717  20.571  0.00  0.00    +0.000 A 
ATOM     10  C   UNL     1      -2.040  11.884  20.131  0.00  0.00    +0.000 A 
ENDROOT
BRANCH   1  12
ATOM     11  N   UNL     1       0.019  13.601  22.029  0.00  0.00    +0.000 N 
ATOM     12  C   UNL     1      -0.508  12.340  22.118  0.00  0.00    +0.000 C 
ATOM     13  O   UNL     1      -0.700  11.818  23.207  0.00  0.00    +0.000 OA
ATOM     14  H   UNL     1       0.275  14.084  22.879  0.00  0.00    +0.000 HD
ATOM     15  H   UNL     1       0.256  13.997  21.127  0.00  0.00    +0.000 HD
ENDBRANCH   1  12
BRANCH   3  16
ATOM     16  C   UNL     1       1.132   9.512  18.628  0.00  0.00    +0.000 A 
ATOM     17  N   UNL     1       1.775   9.613  17.479  0.00  0.00    +0.000 NA
ATOM     18  N   UNL     1       2.710   8.603  17.458  0.00  0.00    +0.000 NA
ATOM     19  C   UNL     1       2.577   7.949  18.594  0.00  0.00    +0.000 A 
ATOM     20  O   UNL     1       1.595   8.472  19.397  0.00  0.00    +0.000 OA
BRANCH  19  21
ATOM     21  C   UNL     1       3.250   6.705  19.048  0.00  0.00    +0.000 C 
BRANCH  21  22
ATOM     22  C   UNL     1       2.390   5.461  18.989  0.00  0.00    +0.000 A 
ATOM     23  C   UNL     1       2.225   4.772  17.776  0.00  0.00    +0.000 A 
ATOM     24  C   UNL     1       1.518   3.569  17.734  0.00  0.00    +0.000 A 
ATOM     25  C   UNL     1       0.969   3.055  18.902  0.00  0.00    +0.000 A 
ATOM     26  F   UNL     1       0.312   1.888  18.863  0.00  0.00    +0.000 F 
ATOM     27  C   UNL     1       1.103   3.727  20.110  0.00  0.00    +0.000 A 
ATOM     28  C   UNL     1       1.813   4.930  20.155  0.00  0.00    +0.000 A 
ENDBRANCH  21  22
ENDBRANCH  19  21
ENDBRANCH   3  16
BRANCH   4  29
ATOM     29  O   UNL     1      -1.370   9.787  17.200  0.00  0.00    +0.000 OA
ATOM     30  H   UNL     1      -2.120   9.162  17.246  0.00  0.00    +0.000 HD
ENDBRANCH   4  29
TORSDOF 5
ENDMDL
MODEL 9
REMARK VINA RESULT:      -8.1      1.610      2.311
REMARK  Name = 
REMARK  5 active torsions:
REMARK  status: ('A' for Active; 'I' for Inactive)
REMARK    1  A    between atoms: C_2  and  C_4
REMARK    2  A    between atoms: C_6  and  C_7
REMARK    3  A    between atoms: C_10  and  C_11
REMARK    4  A    between atoms: C_11  and  C_12
REMARK    5  A    between atoms: C_20  and  O_21
REMARK                            x       y       z     vdW  Elec       q    Type
REMARK                         _______ _______ _______ _____ _____    ______ ____
ROOT
ATOM      1  C   UNL     1       3.868   4.113  18.419  0.00  0.00    +0.000 A 
ATOM      2  N   UNL     1       3.098   4.953  19.171  0.00  0.00    +0.000 NA
ATOM      3  C   UNL     1       3.067   6.252  18.797  0.00  0.00    +0.000 A 
ATOM      4  C   UNL     1       3.765   6.734  17.689  0.00  0.00    +0.000 A 
ATOM      5  C   UNL     1       4.521   5.857  16.904  0.00  0.00    +0.000 A 
ATOM      6  N   UNL     1       5.158   6.322  15.806  0.00  0.00    +0.000 NA
ATOM      7  C   UNL     1       5.851   5.468  15.025  0.00  0.00    +0.000 A 
ATOM      8  C   UNL     1       5.962   4.124  15.288  0.00  0.00    +0.000 A 
ATOM      9  C   UNL     1       5.327   3.636  16.422  0.00  0.00    +0.000 A 
ATOM     10  C   UNL     1       4.585   4.499  17.268  0.00  0.00    +0.000 A 
ENDROOT
BRANCH   1  12
ATOM     11  N   UNL     1       4.859   2.355  19.765  0.00  0.00    +0.000 N 
ATOM     12  C   UNL     1       3.847   2.686  18.904  0.00  0.00    +0.000 C 
ATOM     13  O   UNL     1       3.008   1.860  18.576  0.00  0.00    +0.000 OA
ATOM     14  H   UNL     1       4.920   1.405  20.103  0.00  0.00    +0.000 HD
ATOM     15  H   UNL     1       5.600   3.016  19.967  0.00  0.00    +0.000 HD
ENDBRANCH   1  12
BRANCH   3  16
ATOM     16  C   UNL     1       2.245   7.136  19.618  0.00  0.00    +0.000 A 
ATOM     17  N   UNL     1       1.524   6.843  20.684  0.00  0.00    +0.000 NA
ATOM     18  N   UNL     1       0.896   8.006  21.070  0.00  0.00    +0.000 NA
ATOM     19  C   UNL     1       1.271   8.933  20.213  0.00  0.00    +0.000 A 
ATOM     20  O   UNL     1       2.137   8.458  19.260  0.00  0.00    +0.000 OA
BRANCH  19  21
ATOM     21  C   UNL     1       0.812  10.340  20.088  0.00  0.00    +0.000 C 
BRANCH  21  22
ATOM     22  C   UNL     1      -0.394  10.536  19.193  0.00  0.00    +0.000 A 
ATOM     23  C   UNL     1      -0.518   9.799  18.003  0.00  0.00    +0.000 A 
ATOM     24  C   UNL     1      -1.672   9.900  17.224  0.00  0.00    +0.000 A 
ATOM     25  C   UNL     1      -2.702  10.741  17.629  0.00  0.00    +0.000 A 
ATOM     26  F   UNL     1      -3.818  10.817  16.892  0.00  0.00    +0.000 F 
ATOM     27  C   UNL     1      -2.594  11.494  18.790  0.00  0.00    +0.000 A 
ATOM     28  C   UNL     1      -1.441  11.393  19.574  0.00  0.00    +0.000 A 
ENDBRANCH  21  22
ENDBRANCH  19  21
ENDBRANCH   3  16
BRANCH   4  29
ATOM     29  O   UNL     1       3.733   8.064  17.315  0.00  0.00    +0.000 OA
ATOM     30  H   UNL     1       4.248   8.621  17.930  0.00  0.00    +0.000 HD
ENDBRANCH   4  29
TORSDOF 5
ENDMDL
