MODEL 1
REMARK VINA RESULT:      -8.0      0.000      0.000
REMARK  Name = 
REMARK  10 active torsions:
REMARK  status: ('A' for Active; 'I' for Inactive)
REMARK    1  A    between atoms: C_1  and  C_2
REMARK    2  A    between atoms: C_10  and  O_11
REMARK    3  A    between atoms: O_11  and  C_12
REMARK    4  A    between atoms: C_14  and  C_15
REMARK    5  A    between atoms: C_15  and  O_16
REMARK    6  A    between atoms: C_17  and  O_18
REMARK    7  A    between atoms: C_19  and  O_20
REMARK    8  A    between atoms: C_21  and  O_22
REMARK    9  A    between atoms: C_23  and  C_24
REMARK   10  A    between atoms: C_23  and  O_25
REMARK                            x       y       z     vdW  Elec       q    Type
REMARK                         _______ _______ _______ _____ _____    ______ ____
ROOT
ATOM      1  O   UNL     1       4.229   3.809  19.091  0.00  0.00    +0.000 OA
ENDROOT
BRANCH   1  11
ATOM      2  C   UNL     1       5.401   3.832  13.617  0.00  0.00    +0.000 C 
ATOM      3  C   UNL     1       6.224   4.317  14.821  0.00  0.00    +0.000 C 
ATOM      4  C   UNL     1       7.296   5.296  14.391  0.00  0.00    +0.000 C 
ATOM      5  O   UNL     1       7.762   5.322  13.259  0.00  0.00    +0.000 OA
ATOM      6  O   UNL     1       7.857   5.997  15.405  0.00  0.00    +0.000 OA
ATOM      7  C   UNL     1       7.006   6.634  16.367  0.00  0.00    +0.000 C 
ATOM      8  C   UNL     1       5.923   5.752  16.958  0.00  0.00    +0.000 C 
ATOM      9  C   UNL     1       5.281   4.890  15.878  0.00  0.00    +0.000 C 
ATOM     10  C   UNL     1       4.584   3.777  16.651  0.00  0.00    +0.000 C 
ATOM     11  C   UNL     1       5.212   3.688  18.054  0.00  0.00    +0.000 C 
ATOM     12  C   UNL     1       6.333   4.776  18.080  0.00  0.00    +0.000 C 
ATOM     13  C   UNL     1       6.509   5.465  19.430  0.00  0.00    +0.000 C 
BRANCH  12  14
ATOM     14  O   UNL     1       7.601   4.183  17.782  0.00  0.00    +0.000 OA
ATOM     15  H   UNL     1       7.514   3.486  17.113  0.00  0.00    +0.000 HD
ENDBRANCH  12  14
ENDBRANCH   1  11
BRANCH   1  16
ATOM     16  C   UNL     1       2.927   3.299  18.749  0.00  0.00    +0.000 C 
ATOM     17  O   UNL     1       1.957   4.362  18.759  0.00  0.00    +0.000 OA
ATOM     18  C   UNL     1       1.397   4.695  20.031  0.00  0.00    +0.000 C 
ATOM     19  C   UNL     1       0.774   3.436  20.656  0.00  0.00    +0.000 C 
ATOM     20  C   UNL     1       1.839   2.359  20.873  0.00  0.00    +0.000 C 
ATOM     21  C   UNL     1       2.509   2.025  19.533  0.00  0.00    +0.000 C 
BRANCH  19  22
ATOM     22  O   UNL     1      -0.217   2.892  19.752  0.00  0.00    +0.000 OA
ATOM     23  H   UNL     1      -0.959   2.555  20.290  0.00  0.00    +0.000 HD
ENDBRANCH  19  22
BRANCH  20  24
ATOM     24  O   UNL     1       2.760   2.777  21.883  0.00  0.00    +0.000 OA
ATOM     25  H   UNL     1       3.168   1.996  22.299  0.00  0.00    +0.000 HD
ENDBRANCH  20  24
BRANCH  21  26
ATOM     26  O   UNL     1       1.637   1.225  18.712  0.00  0.00    +0.000 OA
ATOM     27  H   UNL     1       1.044   1.847  18.237  0.00  0.00    +0.000 HD
ENDBRANCH  21  26
BRANCH  18  28
ATOM     28  C   UNL     1       2.370   5.493  20.908  0.00  0.00    +0.000 C 
BRANCH  28  29
ATOM     29  O   UNL     1       3.140   6.402  20.132  0.00  0.00    +0.000 OA
ATOM     30  H   UNL     1       2.680   7.263  20.168  0.00  0.00    +0.000 HD
ENDBRANCH  28  29
ENDBRANCH  18  28
ENDBRANCH   1  16
TORSDOF 8
ENDMDL
MODEL 2
REMARK VINA RESULT:      -6.7      1.126      1.874
REMARK  Name = 
REMARK  10 active torsions:
REMARK  status: ('A' for Active; 'I' for Inactive)
REMARK    1  A    between atoms: C_1  and  C_2
REMARK    2  A    between atoms: C_10  and  O_11
REMARK    3  A    between atoms: O_11  and  C_12
REMARK    4  A    between atoms: C_14  and  C_15
REMARK    5  A    between atoms: C_15  and  O_16
REMARK    6  A    between atoms: C_17  and  O_18
REMARK    7  A    between atoms: C_19  and  O_20
REMARK    8  A    between atoms: C_21  and  O_22
REMARK    9  A    between atoms: C_23  and  C_24
REMARK   10  A    between atoms: C_23  and  O_25
REMARK                            x       y       z     vdW  Elec       q    Type
REMARK                         _______ _______ _______ _____ _____    ______ ____
ROOT
ATOM      1  O   UNL     1       3.461   3.514  18.389  0.00  0.00    +0.000 OA
ENDROOT
BRANCH   1  11
ATOM      2  C   UNL     1       5.971   3.752  13.391  0.00  0.00    +0.000 C 
ATOM      3  C   UNL     1       6.418   4.278  14.764  0.00  0.00    +0.000 C 
ATOM      4  C   UNL     1       7.475   5.352  14.619  0.00  0.00    +0.000 C 
ATOM      5  O   UNL     1       8.208   5.441  13.642  0.00  0.00    +0.000 OA
ATOM      6  O   UNL     1       7.699   6.076  15.741  0.00  0.00    +0.000 OA
ATOM      7  C   UNL     1       6.581   6.619  16.456  0.00  0.00    +0.000 C 
ATOM      8  C   UNL     1       5.464   5.637  16.754  0.00  0.00    +0.000 C 
ATOM      9  C   UNL     1       5.193   4.747  15.547  0.00  0.00    +0.000 C 
ATOM     10  C   UNL     1       4.422   3.563  16.119  0.00  0.00    +0.000 C 
ATOM     11  C   UNL     1       4.681   3.498  17.635  0.00  0.00    +0.000 C 
ATOM     12  C   UNL     1       5.660   4.675  17.944  0.00  0.00    +0.000 C 
ATOM     13  C   UNL     1       5.430   5.347  19.294  0.00  0.00    +0.000 C 
BRANCH  12  14
ATOM     14  O   UNL     1       7.009   4.197  17.977  0.00  0.00    +0.000 OA
ATOM     15  H   UNL     1       7.258   3.791  17.132  0.00  0.00    +0.000 HD
ENDBRANCH  12  14
ENDBRANCH   1  11
BRANCH   1  16
ATOM     16  C   UNL     1       3.374   2.508  19.416  0.00  0.00    +0.000 C 
ATOM     17  O   UNL     1       2.085   1.871  19.381  0.00  0.00    +0.000 OA
ATOM     18  C   UNL     1       1.029   2.543  20.071  0.00  0.00    +0.000 C 
ATOM     19  C   UNL     1       1.442   2.768  21.535  0.00  0.00    +0.000 C 
ATOM     20  C   UNL     1       2.694   3.645  21.612  0.00  0.00    +0.000 C 
ATOM     21  C   UNL     1       3.832   2.983  20.822  0.00  0.00    +0.000 C 
BRANCH  19  22
ATOM     22  O   UNL     1       1.765   1.495  22.143  0.00  0.00    +0.000 OA
ATOM     23  H   UNL     1       1.425   1.508  23.059  0.00  0.00    +0.000 HD
ENDBRANCH  19  22
BRANCH  20  24
ATOM     24  O   UNL     1       2.391   4.972  21.173  0.00  0.00    +0.000 OA
ATOM     25  H   UNL     1       1.549   5.264  21.568  0.00  0.00    +0.000 HD
ENDBRANCH  20  24
BRANCH  21  26
ATOM     26  O   UNL     1       4.374   1.865  21.549  0.00  0.00    +0.000 OA
ATOM     27  H   UNL     1       5.197   1.597  21.085  0.00  0.00    +0.000 HD
ENDBRANCH  21  26
BRANCH  18  28
ATOM     28  C   UNL     1       0.512   3.766  19.303  0.00  0.00    +0.000 C 
BRANCH  28  29
ATOM     29  O   UNL     1       0.726   3.627  17.904  0.00  0.00    +0.000 OA
ATOM     30  H   UNL     1       1.660   3.368  17.786  0.00  0.00    +0.000 HD
ENDBRANCH  28  29
ENDBRANCH  18  28
ENDBRANCH   1  16
TORSDOF 8
ENDMDL
MODEL 3
REMARK VINA RESULT:      -6.3      1.012      1.996
REMARK  Name = 
REMARK  10 active torsions:
REMARK  status: ('A' for Active; 'I' for Inactive)
REMARK    1  A    between atoms: C_1  and  C_2
REMARK    2  A    between atoms: C_10  and  O_11
REMARK    3  A    between atoms: O_11  and  C_12
REMARK    4  A    between atoms: C_14  and  C_15
REMARK    5  A    between atoms: C_15  and  O_16
REMARK    6  A    between atoms: C_17  and  O_18
REMARK    7  A    between atoms: C_19  and  O_20
REMARK    8  A    between atoms: C_21  and  O_22
REMARK    9  A    between atoms: C_23  and  C_24
REMARK   10  A    between atoms: C_23  and  O_25
REMARK                            x       y       z     vdW  Elec       q    Type
REMARK                         _______ _______ _______ _____ _____    ______ ____
ROOT
ATOM      1  O   UNL     1       4.304   3.300  19.009  0.00  0.00    +0.000 OA
ENDROOT
BRANCH   1  11
ATOM      2  C   UNL     1       5.452   3.747  13.549  0.00  0.00    +0.000 C 
ATOM      3  C   UNL     1       6.236   4.225  14.781  0.00  0.00    +0.000 C 
ATOM      4  C   UNL     1       7.223   5.313  14.412  0.00  0.00    +0.000 C 
ATOM      5  O   UNL     1       7.682   5.445  13.284  0.00  0.00    +0.000 OA
ATOM      6  O   UNL     1       7.728   5.995  15.466  0.00  0.00    +0.000 OA
ATOM      7  C   UNL     1       6.830   6.502  16.464  0.00  0.00    +0.000 C 
ATOM      8  C   UNL     1       5.825   5.500  17.000  0.00  0.00    +0.000 C 
ATOM      9  C   UNL     1       5.253   4.654  15.868  0.00  0.00    +0.000 C 
ATOM     10  C   UNL     1       4.653   3.443  16.572  0.00  0.00    +0.000 C 
ATOM     11  C   UNL     1       5.291   3.323  17.968  0.00  0.00    +0.000 C 
ATOM     12  C   UNL     1       6.318   4.496  18.062  0.00  0.00    +0.000 C 
ATOM     13  C   UNL     1       6.442   5.115  19.451  0.00  0.00    +0.000 C 
BRANCH  12  14
ATOM     14  O   UNL     1       7.630   4.028  17.730  0.00  0.00    +0.000 OA
ATOM     15  H   UNL     1       7.787   3.141  18.089  0.00  0.00    +0.000 HD
ENDBRANCH  12  14
ENDBRANCH   1  11
BRANCH   1  16
ATOM     16  C   UNL     1       3.499   4.490  19.103  0.00  0.00    +0.000 C 
ATOM     17  O   UNL     1       3.341   4.878  20.479  0.00  0.00    +0.000 OA
ATOM     18  C   UNL     1       2.300   4.221  21.205  0.00  0.00    +0.000 C 
ATOM     19  C   UNL     1       0.966   4.419  20.468  0.00  0.00    +0.000 C 
ATOM     20  C   UNL     1       1.028   3.805  19.068  0.00  0.00    +0.000 C 
ATOM     21  C   UNL     1       2.182   4.442  18.281  0.00  0.00    +0.000 C 
BRANCH  19  22
ATOM     22  O   UNL     1       0.709   5.834  20.311  0.00  0.00    +0.000 OA
ATOM     23  H   UNL     1       0.965   6.085  19.402  0.00  0.00    +0.000 HD
ENDBRANCH  19  22
BRANCH  20  24
ATOM     24  O   UNL     1       1.118   2.381  19.161  0.00  0.00    +0.000 OA
ATOM     25  H   UNL     1       1.875   2.135  19.724  0.00  0.00    +0.000 HD
ENDBRANCH  20  24
BRANCH  21  26
ATOM     26  O   UNL     1       1.836   5.774  17.857  0.00  0.00    +0.000 OA
ATOM     27  H   UNL     1       1.394   6.208  18.619  0.00  0.00    +0.000 HD
ENDBRANCH  21  26
BRANCH  18  28
ATOM     28  C   UNL     1       2.672   2.784  21.590  0.00  0.00    +0.000 C 
BRANCH  28  29
ATOM     29  O   UNL     1       1.581   2.117  22.214  0.00  0.00    +0.000 OA
ATOM     30  H   UNL     1       1.808   2.031  23.160  0.00  0.00    +0.000 HD
ENDBRANCH  28  29
ENDBRANCH  18  28
ENDBRANCH   1  16
TORSDOF 8
ENDMDL
MODEL 4
REMARK VINA RESULT:      -6.3      1.086      1.760
REMARK  Name = 
REMARK  10 active torsions:
REMARK  status: ('A' for Active; 'I' for Inactive)
REMARK    1  A    between atoms: C_1  and  C_2
REMARK    2  A    between atoms: C_10  and  O_11
REMARK    3  A    between atoms: O_11  and  C_12
REMARK    4  A    between atoms: C_14  and  C_15
REMARK    5  A    between atoms: C_15  and  O_16
REMARK    6  A    between atoms: C_17  and  O_18
REMARK    7  A    between atoms: C_19  and  O_20
REMARK    8  A    between atoms: C_21  and  O_22
REMARK    9  A    between atoms: C_23  and  C_24
REMARK   10  A    between atoms: C_23  and  O_25
REMARK                            x       y       z     vdW  Elec       q    Type
REMARK                         _______ _______ _______ _____ _____    ______ ____
ROOT
ATOM      1  O   UNL     1       4.381   4.346  19.198  0.00  0.00    +0.000 OA
ENDROOT
BRANCH   1  11
ATOM      2  C   UNL     1       5.033   3.814  13.664  0.00  0.00    +0.000 C 
ATOM      3  C   UNL     1       6.033   4.224  14.756  0.00  0.00    +0.000 C 
ATOM      4  C   UNL     1       7.210   4.971  14.167  0.00  0.00    +0.000 C 
ATOM      5  O   UNL     1       7.568   4.843  13.002  0.00  0.00    +0.000 OA
ATOM      6  O   UNL     1       7.971   5.627  15.074  0.00  0.00    +0.000 OA
ATOM      7  C   UNL     1       7.332   6.463  16.047  0.00  0.00    +0.000 C 
ATOM      8  C   UNL     1       6.174   5.823  16.791  0.00  0.00    +0.000 C 
ATOM      9  C   UNL     1       5.301   5.019  15.836  0.00  0.00    +0.000 C 
ATOM     10  C   UNL     1       4.500   4.096  16.747  0.00  0.00    +0.000 C 
ATOM     11  C   UNL     1       5.231   3.990  18.098  0.00  0.00    +0.000 C 
ATOM     12  C   UNL     1       6.516   4.865  17.950  0.00  0.00    +0.000 C 
ATOM     13  C   UNL     1       6.929   5.597  19.223  0.00  0.00    +0.000 C 
BRANCH  12  14
ATOM     14  O   UNL     1       7.634   4.042  17.599  0.00  0.00    +0.000 OA
ATOM     15  H   UNL     1       7.993   3.588  18.377  0.00  0.00    +0.000 HD
ENDBRANCH  12  14
ENDBRANCH   1  11
BRANCH   1  16
ATOM     16  C   UNL     1       3.669   3.245  19.791  0.00  0.00    +0.000 C 
ATOM     17  O   UNL     1       2.768   2.661  18.834  0.00  0.00    +0.000 OA
ATOM     18  C   UNL     1       1.495   3.296  18.694  0.00  0.00    +0.000 C 
ATOM     19  C   UNL     1       0.805   3.356  20.067  0.00  0.00    +0.000 C 
ATOM     20  C   UNL     1       1.639   4.175  21.053  0.00  0.00    +0.000 C 
ATOM     21  C   UNL     1       3.039   3.558  21.176  0.00  0.00    +0.000 C 
BRANCH  19  22
ATOM     22  O   UNL     1       0.688   2.017  20.604  0.00  0.00    +0.000 OA
ATOM     23  H   UNL     1       1.433   1.877  21.220  0.00  0.00    +0.000 HD
ENDBRANCH  19  22
BRANCH  20  24
ATOM     24  O   UNL     1       1.654   5.550  20.659  0.00  0.00    +0.000 OA
ATOM     25  H   UNL     1       2.029   5.631  19.763  0.00  0.00    +0.000 HD
ENDBRANCH  20  24
BRANCH  21  26
ATOM     26  O   UNL     1       2.997   2.353  21.964  0.00  0.00    +0.000 OA
ATOM     27  H   UNL     1       2.138   1.919  21.772  0.00  0.00    +0.000 HD
ENDBRANCH  21  26
BRANCH  18  28
ATOM     28  C   UNL     1       1.579   4.608  17.905  0.00  0.00    +0.000 C 
BRANCH  28  29
ATOM     29  O   UNL     1       0.703   4.595  16.784  0.00  0.00    +0.000 OA
ATOM     30  H   UNL     1       0.634   3.666  16.492  0.00  0.00    +0.000 HD
ENDBRANCH  28  29
ENDBRANCH  18  28
ENDBRANCH   1  16
TORSDOF 8
ENDMDL
MODEL 5
REMARK VINA RESULT:      -6.3      4.054      6.752
REMARK  Name = 
REMARK  10 active torsions:
REMARK  status: ('A' for Active; 'I' for Inactive)
REMARK    1  A    between atoms: C_1  and  C_2
REMARK    2  A    between atoms: C_10  and  O_11
REMARK    3  A    between atoms: O_11  and  C_12
REMARK    4  A    between atoms: C_14  and  C_15
REMARK    5  A    between atoms: C_15  and  O_16
REMARK    6  A    between atoms: C_17  and  O_18
REMARK    7  A    between atoms: C_19  and  O_20
REMARK    8  A    between atoms: C_21  and  O_22
REMARK    9  A    between atoms: C_23  and  C_24
REMARK   10  A    between atoms: C_23  and  O_25
REMARK                            x       y       z     vdW  Elec       q    Type
REMARK                         _______ _______ _______ _____ _____    ______ ____
ROOT
ATOM      1  O   UNL     1       1.489   8.395  19.723  0.00  0.00    +0.000 OA
ENDROOT
BRANCH   1  11
ATOM      2  C   UNL     1       1.927   3.118  21.539  0.00  0.00    +0.000 C 
ATOM      3  C   UNL     1       2.686   3.863  20.430  0.00  0.00    +0.000 C 
ATOM      4  C   UNL     1       3.322   2.893  19.457  0.00  0.00    +0.000 C 
ATOM      5  O   UNL     1       3.616   1.742  19.757  0.00  0.00    +0.000 OA
ATOM      6  O   UNL     1       3.742   3.452  18.298  0.00  0.00    +0.000 OA
ATOM      7  C   UNL     1       2.852   4.314  17.577  0.00  0.00    +0.000 C 
ATOM      8  C   UNL     1       2.192   5.402  18.403  0.00  0.00    +0.000 C 
ATOM      9  C   UNL     1       1.742   4.854  19.752  0.00  0.00    +0.000 C 
ATOM     10  C   UNL     1       1.542   6.096  20.613  0.00  0.00    +0.000 C 
ATOM     11  C   UNL     1       2.327   7.260  19.982  0.00  0.00    +0.000 C 
ATOM     12  C   UNL     1       3.028   6.658  18.723  0.00  0.00    +0.000 C 
ATOM     13  C   UNL     1       3.131   7.618  17.541  0.00  0.00    +0.000 C 
BRANCH  12  14
ATOM     14  O   UNL     1       4.375   6.290  19.039  0.00  0.00    +0.000 OA
ATOM     15  H   UNL     1       4.536   6.333  19.994  0.00  0.00    +0.000 HD
ENDBRANCH  12  14
ENDBRANCH   1  11
BRANCH   1  16
ATOM     16  C   UNL     1       0.695   8.826  20.843  0.00  0.00    +0.000 C 
ATOM     17  O   UNL     1      -0.676   9.001  20.445  0.00  0.00    +0.000 OA
ATOM     18  C   UNL     1      -1.004  10.254  19.840  0.00  0.00    +0.000 C 
ATOM     19  C   UNL     1      -0.604  11.395  20.790  0.00  0.00    +0.000 C 
ATOM     20  C   UNL     1       0.903  11.374  21.053  0.00  0.00    +0.000 C 
ATOM     21  C   UNL     1       1.301  10.013  21.641  0.00  0.00    +0.000 C 
BRANCH  19  22
ATOM     22  O   UNL     1      -1.270  11.215  22.063  0.00  0.00    +0.000 OA
ATOM     23  H   UNL     1      -0.681  10.683  22.634  0.00  0.00    +0.000 HD
ENDBRANCH  19  22
BRANCH  20  24
ATOM     24  O   UNL     1       1.613  11.709  19.858  0.00  0.00    +0.000 OA
ATOM     25  H   UNL     1       1.068  11.491  19.079  0.00  0.00    +0.000 HD
ENDBRANCH  20  24
BRANCH  21  26
ATOM     26  O   UNL     1       0.897   9.916  23.020  0.00  0.00    +0.000 OA
ATOM     27  H   UNL     1       0.775   8.961  23.213  0.00  0.00    +0.000 HD
ENDBRANCH  21  26
BRANCH  18  28
ATOM     28  C   UNL     1      -0.507  10.354  18.393  0.00  0.00    +0.000 C 
BRANCH  28  29
ATOM     29  O   UNL     1      -0.647  11.676  17.888  0.00  0.00    +0.000 OA
ATOM     30  H   UNL     1      -1.605  11.861  17.845  0.00  0.00    +0.000 HD
ENDBRANCH  28  29
ENDBRANCH  18  28
ENDBRANCH   1  16
TORSDOF 8
ENDMDL
MODEL 6
REMARK VINA RESULT:      -6.2      0.943      1.691
REMARK  Name = 
REMARK  10 active torsions:
REMARK  status: ('A' for Active; 'I' for Inactive)
REMARK    1  A    between atoms: C_1  and  C_2
REMARK    2  A    between atoms: C_10  and  O_11
REMARK    3  A    between atoms: O_11  and  C_12
REMARK    4  A    between atoms: C_14  and  C_15
REMARK    5  A    between atoms: C_15  and  O_16
REMARK    6  A    between atoms: C_17  and  O_18
REMARK    7  A    between atoms: C_19  and  O_20
REMARK    8  A    between atoms: C_21  and  O_22
REMARK    9  A    between atoms: C_23  and  C_24
REMARK   10  A    between atoms: C_23  and  O_25
REMARK                            x       y       z     vdW  Elec       q    Type
REMARK                         _______ _______ _______ _____ _____    ______ ____
ROOT
ATOM      1  O   UNL     1       4.148   4.325  19.298  0.00  0.00    +0.000 OA
ENDROOT
BRANCH   1  11
ATOM      2  C   UNL     1       5.040   4.124  13.775  0.00  0.00    +0.000 C 
ATOM      3  C   UNL     1       5.989   4.473  14.932  0.00  0.00    +0.000 C 
ATOM      4  C   UNL     1       7.185   5.259  14.439  0.00  0.00    +0.000 C 
ATOM      5  O   UNL     1       7.594   5.201  13.285  0.00  0.00    +0.000 OA
ATOM      6  O   UNL     1       7.903   5.863  15.415  0.00  0.00    +0.000 OA
ATOM      7  C   UNL     1       7.217   6.637  16.408  0.00  0.00    +0.000 C 
ATOM      8  C   UNL     1       6.033   5.950  17.062  0.00  0.00    +0.000 C 
ATOM      9  C   UNL     1       5.206   5.200  16.024  0.00  0.00    +0.000 C 
ATOM     10  C   UNL     1       4.374   4.221  16.844  0.00  0.00    +0.000 C 
ATOM     11  C   UNL     1       5.047   4.038  18.217  0.00  0.00    +0.000 C 
ATOM     12  C   UNL     1       6.331   4.926  18.176  0.00  0.00    +0.000 C 
ATOM     13  C   UNL     1       6.684   5.583  19.506  0.00  0.00    +0.000 C 
BRANCH  12  14
ATOM     14  O   UNL     1       7.468   4.130  17.826  0.00  0.00    +0.000 OA
ATOM     15  H   UNL     1       7.712   3.529  18.547  0.00  0.00    +0.000 HD
ENDBRANCH  12  14
ENDBRANCH   1  11
BRANCH   1  16
ATOM     16  C   UNL     1       2.768   4.467  18.913  0.00  0.00    +0.000 C 
ATOM     17  O   UNL     1       1.947   4.688  20.073  0.00  0.00    +0.000 OA
ATOM     18  C   UNL     1       1.537   3.521  20.789  0.00  0.00    +0.000 C 
ATOM     19  C   UNL     1       0.809   2.567  19.828  0.00  0.00    +0.000 C 
ATOM     20  C   UNL     1       1.740   2.128  18.696  0.00  0.00    +0.000 C 
ATOM     21  C   UNL     1       2.254   3.365  17.947  0.00  0.00    +0.000 C 
BRANCH  19  22
ATOM     22  O   UNL     1      -0.312   3.257  19.225  0.00  0.00    +0.000 OA
ATOM     23  H   UNL     1      -0.780   3.740  19.934  0.00  0.00    +0.000 HD
ENDBRANCH  19  22
BRANCH  20  24
ATOM     24  O   UNL     1       2.784   1.300  19.214  0.00  0.00    +0.000 OA
ATOM     25  H   UNL     1       2.871   0.499  18.666  0.00  0.00    +0.000 HD
ENDBRANCH  20  24
BRANCH  21  26
ATOM     26  O   UNL     1       1.224   3.914  17.103  0.00  0.00    +0.000 OA
ATOM     27  H   UNL     1       1.295   4.891  17.167  0.00  0.00    +0.000 HD
ENDBRANCH  21  26
BRANCH  18  28
ATOM     28  C   UNL     1       2.671   2.921  21.630  0.00  0.00    +0.000 C 
BRANCH  28  29
ATOM     29  O   UNL     1       2.241   1.755  22.321  0.00  0.00    +0.000 OA
ATOM     30  H   UNL     1       2.873   1.045  22.095  0.00  0.00    +0.000 HD
ENDBRANCH  28  29
ENDBRANCH  18  28
ENDBRANCH   1  16
TORSDOF 8
ENDMDL
MODEL 7
REMARK VINA RESULT:      -6.0      0.969      2.427
REMARK  Name = 
REMARK  10 active torsions:
REMARK  status: ('A' for Active; 'I' for Inactive)
REMARK    1  A    between atoms: C_1  and  C_2
REMARK    2  A    between atoms: C_10  and  O_11
REMARK    3  A    between atoms: O_11  and  C_12
REMARK    4  A    between atoms: C_14  and  C_15
REMARK    5  A    between atoms: C_15  and  O_16
REMARK    6  A    between atoms: C_17  and  O_18
REMARK    7  A    between atoms: C_19  and  O_20
REMARK    8  A    between atoms: C_21  and  O_22
REMARK    9  A    between atoms: C_23  and  C_24
REMARK   10  A    between atoms: C_23  and  O_25
REMARK                            x       y       z     vdW  Elec       q    Type
REMARK                         _______ _______ _______ _____ _____    ______ ____
ROOT
ATOM      1  O   UNL     1       3.107   4.206  18.100  0.00  0.00    +0.000 OA
ENDROOT
BRANCH   1  11
ATOM      2  C   UNL     1       5.921   3.863  13.273  0.00  0.00    +0.000 C 
ATOM      3  C   UNL     1       6.351   4.397  14.649  0.00  0.00    +0.000 C 
ATOM      4  C   UNL     1       7.546   5.318  14.528  0.00  0.00    +0.000 C 
ATOM      5  O   UNL     1       8.342   5.261  13.598  0.00  0.00    +0.000 OA
ATOM      6  O   UNL     1       7.796   6.063  15.630  0.00  0.00    +0.000 OA
ATOM      7  C   UNL     1       6.718   6.781  16.245  0.00  0.00    +0.000 C 
ATOM      8  C   UNL     1       5.466   5.967  16.511  0.00  0.00    +0.000 C 
ATOM      9  C   UNL     1       5.153   5.059  15.328  0.00  0.00    +0.000 C 
ATOM     10  C   UNL     1       4.201   4.015  15.898  0.00  0.00    +0.000 C 
ATOM     11  C   UNL     1       4.357   3.995  17.429  0.00  0.00    +0.000 C 
ATOM     12  C   UNL     1       5.462   5.051  17.752  0.00  0.00    +0.000 C 
ATOM     13  C   UNL     1       5.242   5.815  19.053  0.00  0.00    +0.000 C 
BRANCH  12  14
ATOM     14  O   UNL     1       6.733   4.405  17.894  0.00  0.00    +0.000 OA
ATOM     15  H   UNL     1       6.836   4.028  18.781  0.00  0.00    +0.000 HD
ENDBRANCH  12  14
ENDBRANCH   1  11
BRANCH   1  16
ATOM     16  C   UNL     1       3.205   4.338  19.530  0.00  0.00    +0.000 C 
ATOM     17  O   UNL     1       3.777   3.149  20.102  0.00  0.00    +0.000 OA
ATOM     18  C   UNL     1       2.875   2.069  20.351  0.00  0.00    +0.000 C 
ATOM     19  C   UNL     1       1.730   2.563  21.251  0.00  0.00    +0.000 C 
ATOM     20  C   UNL     1       0.950   3.685  20.563  0.00  0.00    +0.000 C 
ATOM     21  C   UNL     1       1.905   4.836  20.220  0.00  0.00    +0.000 C 
BRANCH  19  22
ATOM     22  O   UNL     1       2.280   3.103  22.475  0.00  0.00    +0.000 OA
ATOM     23  H   UNL     1       2.130   2.448  23.184  0.00  0.00    +0.000 HD
ENDBRANCH  19  22
BRANCH  20  24
ATOM     24  O   UNL     1       0.247   3.169  19.429  0.00  0.00    +0.000 OA
ATOM     25  H   UNL     1       0.833   2.583  18.917  0.00  0.00    +0.000 HD
ENDBRANCH  20  24
BRANCH  21  26
ATOM     26  O   UNL     1       2.249   5.582  21.403  0.00  0.00    +0.000 OA
ATOM     27  H   UNL     1       1.613   6.328  21.463  0.00  0.00    +0.000 HD
ENDBRANCH  21  26
BRANCH  18  28
ATOM     28  C   UNL     1       2.476   1.332  19.067  0.00  0.00    +0.000 C 
BRANCH  28  29
ATOM     29  O   UNL     1       3.617   0.998  18.286  0.00  0.00    +0.000 OA
ATOM     30  H   UNL     1       4.395   1.353  18.758  0.00  0.00    +0.000 HD
ENDBRANCH  28  29
ENDBRANCH  18  28
ENDBRANCH   1  16
TORSDOF 8
ENDMDL
MODEL 8
REMARK VINA RESULT:      -5.9     10.355     12.843
REMARK  Name = 
REMARK  10 active torsions:
REMARK  status: ('A' for Active; 'I' for Inactive)
REMARK    1  A    between atoms: C_1  and  C_2
REMARK    2  A    between atoms: C_10  and  O_11
REMARK    3  A    between atoms: O_11  and  C_12
REMARK    4  A    between atoms: C_14  and  C_15
REMARK    5  A    between atoms: C_15  and  O_16
REMARK    6  A    between atoms: C_17  and  O_18
REMARK    7  A    between atoms: C_19  and  O_20
REMARK    8  A    between atoms: C_21  and  O_22
REMARK    9  A    between atoms: C_23  and  C_24
REMARK   10  A    between atoms: C_23  and  O_25
REMARK                            x       y       z     vdW  Elec       q    Type
REMARK                         _______ _______ _______ _____ _____    ______ ____
ROOT
ATOM      1  O   UNL     1       9.081  14.714  18.940  0.00  0.00    +0.000 OA
ENDROOT
BRANCH   1  11
ATOM      2  C   UNL     1       3.621  14.958  17.729  0.00  0.00    +0.000 C 
ATOM      3  C   UNL     1       4.566  16.017  18.317  0.00  0.00    +0.000 C 
ATOM      4  C   UNL     1       3.791  17.104  19.032  0.00  0.00    +0.000 C 
ATOM      5  O   UNL     1       2.626  17.376  18.770  0.00  0.00    +0.000 OA
ATOM      6  O   UNL     1       4.542  17.898  19.830  0.00  0.00    +0.000 OA
ATOM      7  C   UNL     1       5.454  17.294  20.757  0.00  0.00    +0.000 C 
ATOM      8  C   UNL     1       6.366  16.233  20.170  0.00  0.00    +0.000 C 
ATOM      9  C   UNL     1       5.596  15.331  19.213  0.00  0.00    +0.000 C 
ATOM     10  C   UNL     1       6.680  14.654  18.382  0.00  0.00    +0.000 C 
ATOM     11  C   UNL     1       7.967  15.492  18.481  0.00  0.00    +0.000 C 
ATOM     12  C   UNL     1       7.603  16.714  19.384  0.00  0.00    +0.000 C 
ATOM     13  C   UNL     1       8.735  17.187  20.290  0.00  0.00    +0.000 C 
BRANCH  12  14
ATOM     14  O   UNL     1       7.265  17.843  18.570  0.00  0.00    +0.000 OA
ATOM     15  H   UNL     1       6.304  17.943  18.491  0.00  0.00    +0.000 HD
ENDBRANCH  12  14
ENDBRANCH   1  11
BRANCH   1  16
ATOM     16  C   UNL     1       9.658  13.845  17.948  0.00  0.00    +0.000 C 
ATOM     17  O   UNL     1       9.580  12.475  18.379  0.00  0.00    +0.000 OA
ATOM     18  C   UNL     1      10.618  12.026  19.252  0.00  0.00    +0.000 C 
ATOM     19  C   UNL     1      11.982  12.268  18.583  0.00  0.00    +0.000 C 
ATOM     20  C   UNL     1      12.195  13.759  18.320  0.00  0.00    +0.000 C 
ATOM     21  C   UNL     1      11.056  14.291  17.438  0.00  0.00    +0.000 C 
BRANCH  19  22
ATOM     22  O   UNL     1      12.016  11.591  17.304  0.00  0.00    +0.000 OA
ATOM     23  H   UNL     1      12.226  12.256  16.621  0.00  0.00    +0.000 HD
ENDBRANCH  19  22
BRANCH  20  24
ATOM     24  O   UNL     1      12.333  14.461  19.558  0.00  0.00    +0.000 OA
ATOM     25  H   UNL     1      11.497  14.912  19.775  0.00  0.00    +0.000 HD
ENDBRANCH  20  24
BRANCH  21  26
ATOM     26  O   UNL     1      11.225  13.862  16.074  0.00  0.00    +0.000 OA
ATOM     27  H   UNL     1      10.338  13.596  15.748  0.00  0.00    +0.000 HD
ENDBRANCH  21  26
BRANCH  18  28
ATOM     28  C   UNL     1      10.448  12.549  20.683  0.00  0.00    +0.000 C 
BRANCH  28  29
ATOM     29  O   UNL     1       9.897  11.552  21.536  0.00  0.00    +0.000 OA
ATOM     30  H   UNL     1      10.464  10.762  21.448  0.00  0.00    +0.000 HD
ENDBRANCH  28  29
ENDBRANCH  18  28
ENDBRANCH   1  16
TORSDOF 8
ENDMDL
MODEL 9
REMARK VINA RESULT:      -5.9      9.890     12.849
REMARK  Name = 
REMARK  10 active torsions:
REMARK  status: ('A' for Active; 'I' for Inactive)
REMARK    1  A    between atoms: C_1  and  C_2
REMARK    2  A    between atoms: C_10  and  O_11
REMARK    3  A    between atoms: O_11  and  C_12
REMARK    4  A    between atoms: C_14  and  C_15
REMARK    5  A    between atoms: C_15  and  O_16
REMARK    6  A    between atoms: C_17  and  O_18
REMARK    7  A    between atoms: C_19  and  O_20
REMARK    8  A    between atoms: C_21  and  O_22
REMARK    9  A    between atoms: C_23  and  C_24
REMARK   10  A    between atoms: C_23  and  O_25
REMARK                            x       y       z     vdW  Elec       q    Type
REMARK                         _______ _______ _______ _____ _____    ______ ____
ROOT
ATOM      1  O   UNL     1       9.702  14.596  20.034  0.00  0.00    +0.000 OA
ENDROOT
BRANCH   1  11
ATOM      2  C   UNL     1       7.368  11.676  24.199  0.00  0.00    +0.000 C 
ATOM      3  C   UNL     1       6.880  12.930  23.458  0.00  0.00    +0.000 C 
ATOM      4  C   UNL     1       5.842  13.675  24.270  0.00  0.00    +0.000 C 
ATOM      5  O   UNL     1       5.144  13.135  25.120  0.00  0.00    +0.000 OA
ATOM      6  O   UNL     1       5.588  14.933  23.841  0.00  0.00    +0.000 OA
ATOM      7  C   UNL     1       6.687  15.814  23.574  0.00  0.00    +0.000 C 
ATOM      8  C   UNL     1       7.782  15.238  22.697  0.00  0.00    +0.000 C 
ATOM      9  C   UNL     1       8.083  13.797  23.089  0.00  0.00    +0.000 C 
ATOM     10  C   UNL     1       8.820  13.225  21.884  0.00  0.00    +0.000 C 
ATOM     11  C   UNL     1       8.509  14.105  20.659  0.00  0.00    +0.000 C 
ATOM     12  C   UNL     1       7.534  15.211  21.175  0.00  0.00    +0.000 C 
ATOM     13  C   UNL     1       7.726  16.575  20.518  0.00  0.00    +0.000 C 
BRANCH  12  14
ATOM     14  O   UNL     1       6.179  14.839  20.900  0.00  0.00    +0.000 OA
ATOM     15  H   UNL     1       5.691  14.663  21.719  0.00  0.00    +0.000 HD
ENDBRANCH  12  14
ENDBRANCH   1  11
BRANCH   1  16
ATOM     16  C   UNL     1      10.664  13.581  19.690  0.00  0.00    +0.000 C 
ATOM     17  O   UNL     1      11.801  14.173  19.037  0.00  0.00    +0.000 OA
ATOM     18  C   UNL     1      11.673  14.406  17.632  0.00  0.00    +0.000 C 
ATOM     19  C   UNL     1      11.318  13.085  16.930  0.00  0.00    +0.000 C 
ATOM     20  C   UNL     1       9.983  12.544  17.445  0.00  0.00    +0.000 C 
ATOM     21  C   UNL     1      10.063  12.346  18.965  0.00  0.00    +0.000 C 
BRANCH  19  22
ATOM     22  O   UNL     1      12.331  12.096  17.227  0.00  0.00    +0.000 OA
ATOM     23  H   UNL     1      12.714  11.797  16.379  0.00  0.00    +0.000 HD
ENDBRANCH  19  22
BRANCH  20  24
ATOM     24  O   UNL     1       8.915  13.404  17.037  0.00  0.00    +0.000 OA
ATOM     25  H   UNL     1       8.276  13.503  17.766  0.00  0.00    +0.000 HD
ENDBRANCH  20  24
BRANCH  21  26
ATOM     26  O   UNL     1      10.843  11.179  19.286  0.00  0.00    +0.000 OA
ATOM     27  H   UNL     1      10.623  10.497  18.615  0.00  0.00    +0.000 HD
ENDBRANCH  21  26
BRANCH  18  28
ATOM     28  C   UNL     1      10.786  15.617  17.318  0.00  0.00    +0.000 C 
BRANCH  28  29
ATOM     29  O   UNL     1      10.652  15.809  15.915  0.00  0.00    +0.000 OA
ATOM     30  H   UNL     1      11.535  16.058  15.579  0.00  0.00    +0.000 HD
ENDBRANCH  28  29
ENDBRANCH  18  28
ENDBRANCH   1  16
TORSDOF 8
ENDMDL
