MODEL 1
REMARK VINA RESULT:      -7.8      0.000      0.000
REMARK  Name = 
REMARK  5 active torsions:
REMARK  status: ('A' for Active; 'I' for Inactive)
REMARK    1  A    between atoms: C_5  and  O_6
REMARK    2  A    between atoms: O_6  and  C_7
REMARK    3  A    between atoms: C_7  and  C_8
REMARK    4  A    between atoms: C_11  and  C_12
REMARK    5  A    between atoms: C_12  and  N_13
REMARK                            x       y       z     vdW  Elec       q    Type
REMARK                         _______ _______ _______ _____ _____    ______ ____
ROOT
ATOM      1  C   UNL     1       7.538   7.619  17.862  0.00  0.00    +0.000 A 
ATOM      2  C   UNL     1       7.997   6.592  18.700  0.00  0.00    +0.000 A 
ATOM      3  C   UNL     1       7.284   5.410  18.848  0.00  0.00    +0.000 A 
ATOM      4  C   UNL     1       6.076   5.216  18.170  0.00  0.00    +0.000 A 
ATOM      5  C   UNL     1       5.654   6.200  17.265  0.00  0.00    +0.000 A 
ATOM      6  C   UNL     1       6.375   7.388  17.113  0.00  0.00    +0.000 A 
ENDROOT
BRANCH   1   7
ATOM      7  C   UNL     1       8.201   8.981  17.852  0.00  0.00    +0.000 C 
BRANCH   7   8
ATOM      8  O   UNL     1       8.891   9.333  19.049  0.00  0.00    +0.000 OA
BRANCH   8  13
ATOM      9 BR   UNL     1      10.933  14.920  19.709  0.00  0.00    +0.000 Br
ATOM     10  C   UNL     1      10.562  13.079  19.495  0.00  0.00    +0.000 A 
ATOM     11  C   UNL     1      10.276  12.301  20.610  0.00  0.00    +0.000 A 
ATOM     12  C   UNL     1       9.777  11.014  20.422  0.00  0.00    +0.000 A 
ATOM     13  C   UNL     1       9.570  10.510  19.130  0.00  0.00    +0.000 A 
ATOM     14  C   UNL     1       9.994  11.245  18.031  0.00  0.00    +0.000 A 
ATOM     15  C   UNL     1      10.463  12.546  18.212  0.00  0.00    +0.000 A 
ENDBRANCH   8  13
ENDBRANCH   7   8
ENDBRANCH   1   7
BRANCH   4  16
ATOM     16  C   UNL     1       5.239   3.985  18.436  0.00  0.00    +0.000 C 
BRANCH  16  17
ATOM     17  N   UNL     1       3.809   4.294  18.672  0.00  0.00    +0.000 NA
ATOM     18  C   UNL     1       2.941   3.697  17.644  0.00  0.00    +0.000 C 
ATOM     19  C   UNL     1       1.466   4.021  17.890  0.00  0.00    +0.000 C 
ATOM     20  C   UNL     1       1.030   3.577  19.278  0.00  0.00    +0.000 C 
ATOM     21  C   UNL     1       1.951   4.178  20.331  0.00  0.00    +0.000 C 
ATOM     22  C   UNL     1       3.422   3.881  20.028  0.00  0.00    +0.000 C 
ENDBRANCH  16  17
ENDBRANCH   4  16
TORSDOF 5
ENDMDL
MODEL 2
REMARK VINA RESULT:      -7.8      0.769      1.636
REMARK  Name = 
REMARK  5 active torsions:
REMARK  status: ('A' for Active; 'I' for Inactive)
REMARK    1  A    between atoms: C_5  and  O_6
REMARK    2  A    between atoms: O_6  and  C_7
REMARK    3  A    between atoms: C_7  and  C_8
REMARK    4  A    between atoms: C_11  and  C_12
REMARK    5  A    between atoms: C_12  and  N_13
REMARK                            x       y       z     vdW  Elec       q    Type
REMARK                         _______ _______ _______ _____ _____    ______ ____
ROOT
ATOM      1  C   UNL     1       7.107   7.291  17.830  0.00  0.00    +0.000 A 
ATOM      2  C   UNL     1       5.864   7.308  17.183  0.00  0.00    +0.000 A 
ATOM      3  C   UNL     1       5.044   6.187  17.166  0.00  0.00    +0.000 A 
ATOM      4  C   UNL     1       5.445   5.001  17.789  0.00  0.00    +0.000 A 
ATOM      5  C   UNL     1       6.647   5.001  18.511  0.00  0.00    +0.000 A 
ATOM      6  C   UNL     1       7.469   6.131  18.531  0.00  0.00    +0.000 A 
ENDROOT
BRANCH   1   7
ATOM      7  C   UNL     1       8.088   8.436  17.680  0.00  0.00    +0.000 C 
BRANCH   7   8
ATOM      8  O   UNL     1       8.774   8.811  18.872  0.00  0.00    +0.000 OA
BRANCH   8  13
ATOM      9 BR   UNL     1      11.413  14.169  19.257  0.00  0.00    +0.000 Br
ATOM     10  C   UNL     1      10.338  12.616  19.192  0.00  0.00    +0.000 A 
ATOM     11  C   UNL     1       9.882  12.145  17.967  0.00  0.00    +0.000 A 
ATOM     12  C   UNL     1       9.297  10.883  17.907  0.00  0.00    +0.000 A 
ATOM     13  C   UNL     1       9.165  10.101  19.064  0.00  0.00    +0.000 A 
ATOM     14  C   UNL     1       9.495  10.643  20.299  0.00  0.00    +0.000 A 
ATOM     15  C   UNL     1      10.111  11.892  20.361  0.00  0.00    +0.000 A 
ENDBRANCH   8  13
ENDBRANCH   7   8
ENDBRANCH   1   7
BRANCH   4  16
ATOM     16  C   UNL     1       4.611   3.747  17.656  0.00  0.00    +0.000 C 
BRANCH  16  17
ATOM     17  N   UNL     1       3.253   3.888  18.233  0.00  0.00    +0.000 NA
ATOM     18  C   UNL     1       2.434   2.686  18.010  0.00  0.00    +0.000 C 
ATOM     19  C   UNL     1       1.032   2.837  18.606  0.00  0.00    +0.000 C 
ATOM     20  C   UNL     1       1.097   3.170  20.089  0.00  0.00    +0.000 C 
ATOM     21  C   UNL     1       1.970   4.398  20.309  0.00  0.00    +0.000 C 
ATOM     22  C   UNL     1       3.345   4.237  19.658  0.00  0.00    +0.000 C 
ENDBRANCH  16  17
ENDBRANCH   4  16
TORSDOF 5
ENDMDL
MODEL 3
REMARK VINA RESULT:      -7.7      1.058      1.365
REMARK  Name = 
REMARK  5 active torsions:
REMARK  status: ('A' for Active; 'I' for Inactive)
REMARK    1  A    between atoms: C_5  and  O_6
REMARK    2  A    between atoms: O_6  and  C_7
REMARK    3  A    between atoms: C_7  and  C_8
REMARK    4  A    between atoms: C_11  and  C_12
REMARK    5  A    between atoms: C_12  and  N_13
REMARK                            x       y       z     vdW  Elec       q    Type
REMARK                         _______ _______ _______ _____ _____    ______ ____
ROOT
ATOM      1  C   UNL     1       7.582   7.659  17.881  0.00  0.00    +0.000 A 
ATOM      2  C   UNL     1       8.140   6.775  18.815  0.00  0.00    +0.000 A 
ATOM      3  C   UNL     1       7.483   5.610  19.189  0.00  0.00    +0.000 A 
ATOM      4  C   UNL     1       6.233   5.292  18.647  0.00  0.00    +0.000 A 
ATOM      5  C   UNL     1       5.708   6.125  17.648  0.00  0.00    +0.000 A 
ATOM      6  C   UNL     1       6.373   7.295  17.270  0.00  0.00    +0.000 A 
ENDROOT
BRANCH   1   7
ATOM      7  C   UNL     1       8.194   9.021  17.623  0.00  0.00    +0.000 C 
BRANCH   7   8
ATOM      8  O   UNL     1       8.577   9.748  18.788  0.00  0.00    +0.000 OA
BRANCH   8  13
ATOM      9 BR   UNL     1      12.078  14.364  17.285  0.00  0.00    +0.000 Br
ATOM     10  C   UNL     1      10.906  13.060  17.990  0.00  0.00    +0.000 A 
ATOM     11  C   UNL     1       9.591  13.001  17.541  0.00  0.00    +0.000 A 
ATOM     12  C   UNL     1       8.812  11.900  17.887  0.00  0.00    +0.000 A 
ATOM     13  C   UNL     1       9.341  10.870  18.677  0.00  0.00    +0.000 A 
ATOM     14  C   UNL     1      10.606  11.012  19.233  0.00  0.00    +0.000 A 
ATOM     15  C   UNL     1      11.402  12.095  18.864  0.00  0.00    +0.000 A 
ENDBRANCH   8  13
ENDBRANCH   7   8
ENDBRANCH   1   7
BRANCH   4  16
ATOM     16  C   UNL     1       5.463   4.094  19.152  0.00  0.00    +0.000 C 
BRANCH  16  17
ATOM     17  N   UNL     1       4.071   4.040  18.645  0.00  0.00    +0.000 NA
ATOM     18  C   UNL     1       3.735   2.715  18.101  0.00  0.00    +0.000 C 
ATOM     19  C   UNL     1       2.298   2.666  17.576  0.00  0.00    +0.000 C 
ATOM     20  C   UNL     1       1.304   3.066  18.656  0.00  0.00    +0.000 C 
ATOM     21  C   UNL     1       1.678   4.425  19.231  0.00  0.00    +0.000 C 
ATOM     22  C   UNL     1       3.135   4.458  19.698  0.00  0.00    +0.000 C 
ENDBRANCH  16  17
ENDBRANCH   4  16
TORSDOF 5
ENDMDL
MODEL 4
REMARK VINA RESULT:      -7.7      1.082      1.464
REMARK  Name = 
REMARK  5 active torsions:
REMARK  status: ('A' for Active; 'I' for Inactive)
REMARK    1  A    between atoms: C_5  and  O_6
REMARK    2  A    between atoms: O_6  and  C_7
REMARK    3  A    between atoms: C_7  and  C_8
REMARK    4  A    between atoms: C_11  and  C_12
REMARK    5  A    between atoms: C_12  and  N_13
REMARK                            x       y       z     vdW  Elec       q    Type
REMARK                         _______ _______ _______ _____ _____    ______ ____
ROOT
ATOM      1  C   UNL     1       7.238   6.946  17.779  0.00  0.00    +0.000 A 
ATOM      2  C   UNL     1       7.344   5.612  18.197  0.00  0.00    +0.000 A 
ATOM      3  C   UNL     1       6.315   4.705  17.984  0.00  0.00    +0.000 A 
ATOM      4  C   UNL     1       5.132   5.105  17.354  0.00  0.00    +0.000 A 
ATOM      5  C   UNL     1       5.051   6.413  16.856  0.00  0.00    +0.000 A 
ATOM      6  C   UNL     1       6.090   7.324  17.067  0.00  0.00    +0.000 A 
ENDROOT
BRANCH   1   7
ATOM      7  C   UNL     1       8.266   7.983  18.185  0.00  0.00    +0.000 C 
BRANCH   7   8
ATOM      8  O   UNL     1       7.957   9.325  17.816  0.00  0.00    +0.000 OA
BRANCH   8  13
ATOM      9 BR   UNL     1      10.339  13.917  20.826  0.00  0.00    +0.000 Br
ATOM     10  C   UNL     1       9.839  12.448  19.746  0.00  0.00    +0.000 A 
ATOM     11  C   UNL     1       9.910  11.160  20.262  0.00  0.00    +0.000 A 
ATOM     12  C   UNL     1       9.323  10.117  19.549  0.00  0.00    +0.000 A 
ATOM     13  C   UNL     1       8.674  10.361  18.330  0.00  0.00    +0.000 A 
ATOM     14  C   UNL     1       8.736  11.627  17.762  0.00  0.00    +0.000 A 
ATOM     15  C   UNL     1       9.294  12.680  18.486  0.00  0.00    +0.000 A 
ENDBRANCH   8  13
ENDBRANCH   7   8
ENDBRANCH   1   7
BRANCH   4  16
ATOM     16  C   UNL     1       3.965   4.150  17.242  0.00  0.00    +0.000 C 
BRANCH  16  17
ATOM     17  N   UNL     1       3.328   3.855  18.548  0.00  0.00    +0.000 NA
ATOM     18  C   UNL     1       2.759   5.063  19.167  0.00  0.00    +0.000 C 
ATOM     19  C   UNL     1       2.106   4.753  20.516  0.00  0.00    +0.000 C 
ATOM     20  C   UNL     1       1.042   3.675  20.377  0.00  0.00    +0.000 C 
ATOM     21  C   UNL     1       1.634   2.441  19.710  0.00  0.00    +0.000 C 
ATOM     22  C   UNL     1       2.326   2.792  18.390  0.00  0.00    +0.000 C 
ENDBRANCH  16  17
ENDBRANCH   4  16
TORSDOF 5
ENDMDL
MODEL 5
REMARK VINA RESULT:      -7.6      1.128      1.667
REMARK  Name = 
REMARK  5 active torsions:
REMARK  status: ('A' for Active; 'I' for Inactive)
REMARK    1  A    between atoms: C_5  and  O_6
REMARK    2  A    between atoms: O_6  and  C_7
REMARK    3  A    between atoms: C_7  and  C_8
REMARK    4  A    between atoms: C_11  and  C_12
REMARK    5  A    between atoms: C_12  and  N_13
REMARK                            x       y       z     vdW  Elec       q    Type
REMARK                         _______ _______ _______ _____ _____    ______ ____
ROOT
ATOM      1  C   UNL     1       7.163   7.107  17.924  0.00  0.00    +0.000 A 
ATOM      2  C   UNL     1       5.962   7.041  17.203  0.00  0.00    +0.000 A 
ATOM      3  C   UNL     1       5.072   5.990  17.379  0.00  0.00    +0.000 A 
ATOM      4  C   UNL     1       5.358   4.957  18.277  0.00  0.00    +0.000 A 
ATOM      5  C   UNL     1       6.514   5.059  19.064  0.00  0.00    +0.000 A 
ATOM      6  C   UNL     1       7.407   6.120  18.890  0.00  0.00    +0.000 A 
ENDROOT
BRANCH   1   7
ATOM      7  C   UNL     1       8.224   8.136  17.592  0.00  0.00    +0.000 C 
BRANCH   7   8
ATOM      8  O   UNL     1       7.794   9.495  17.643  0.00  0.00    +0.000 OA
BRANCH   8  13
ATOM      9 BR   UNL     1      10.576  13.775  20.767  0.00  0.00    +0.000 Br
ATOM     10  C   UNL     1       9.947  12.388  19.649  0.00  0.00    +0.000 A 
ATOM     11  C   UNL     1       9.913  11.082  20.123  0.00  0.00    +0.000 A 
ATOM     12  C   UNL     1       9.235  10.116  19.385  0.00  0.00    +0.000 A 
ATOM     13  C   UNL     1       8.600  10.451  18.181  0.00  0.00    +0.000 A 
ATOM     14  C   UNL     1       8.763  11.725  17.651  0.00  0.00    +0.000 A 
ATOM     15  C   UNL     1       9.412  12.704  18.401  0.00  0.00    +0.000 A 
ENDBRANCH   8  13
ENDBRANCH   7   8
ENDBRANCH   1   7
BRANCH   4  16
ATOM     16  C   UNL     1       4.452   3.750  18.369  0.00  0.00    +0.000 C 
BRANCH  16  17
ATOM     17  N   UNL     1       3.475   3.839  19.481  0.00  0.00    +0.000 NA
ATOM     18  C   UNL     1       2.104   4.053  18.991  0.00  0.00    +0.000 C 
ATOM     19  C   UNL     1       1.100   4.148  20.143  0.00  0.00    +0.000 C 
ATOM     20  C   UNL     1       1.162   2.913  21.029  0.00  0.00    +0.000 C 
ATOM     21  C   UNL     1       2.590   2.686  21.507  0.00  0.00    +0.000 C 
ATOM     22  C   UNL     1       3.576   2.649  20.337  0.00  0.00    +0.000 C 
ENDBRANCH  16  17
ENDBRANCH   4  16
TORSDOF 5
ENDMDL
MODEL 6
REMARK VINA RESULT:      -7.6      0.921      1.385
REMARK  Name = 
REMARK  5 active torsions:
REMARK  status: ('A' for Active; 'I' for Inactive)
REMARK    1  A    between atoms: C_5  and  O_6
REMARK    2  A    between atoms: O_6  and  C_7
REMARK    3  A    between atoms: C_7  and  C_8
REMARK    4  A    between atoms: C_11  and  C_12
REMARK    5  A    between atoms: C_12  and  N_13
REMARK                            x       y       z     vdW  Elec       q    Type
REMARK                         _______ _______ _______ _____ _____    ______ ____
ROOT
ATOM      1  C   UNL     1       7.058   7.147  17.744  0.00  0.00    +0.000 A 
ATOM      2  C   UNL     1       5.786   7.164  17.154  0.00  0.00    +0.000 A 
ATOM      3  C   UNL     1       4.970   6.041  17.166  0.00  0.00    +0.000 A 
ATOM      4  C   UNL     1       5.403   4.851  17.761  0.00  0.00    +0.000 A 
ATOM      5  C   UNL     1       6.637   4.851  18.428  0.00  0.00    +0.000 A 
ATOM      6  C   UNL     1       7.455   5.984  18.419  0.00  0.00    +0.000 A 
ENDROOT
BRANCH   1   7
ATOM      7  C   UNL     1       8.027   8.297  17.559  0.00  0.00    +0.000 C 
BRANCH   7   8
ATOM      8  O   UNL     1       8.577   8.831  18.761  0.00  0.00    +0.000 OA
BRANCH   8  13
ATOM      9 BR   UNL     1       9.885  14.589  19.736  0.00  0.00    +0.000 Br
ATOM     10  C   UNL     1       9.711  12.765  19.274  0.00  0.00    +0.000 A 
ATOM     11  C   UNL     1      10.155  11.785  20.154  0.00  0.00    +0.000 A 
ATOM     12  C   UNL     1       9.811  10.458  19.913  0.00  0.00    +0.000 A 
ATOM     13  C   UNL     1       9.033  10.113  18.798  0.00  0.00    +0.000 A 
ATOM     14  C   UNL     1       8.719  11.082  17.854  0.00  0.00    +0.000 A 
ATOM     15  C   UNL     1       9.032  12.417  18.108  0.00  0.00    +0.000 A 
ENDBRANCH   8  13
ENDBRANCH   7   8
ENDBRANCH   1   7
BRANCH   4  16
ATOM     16  C   UNL     1       4.568   3.596  17.657  0.00  0.00    +0.000 C 
BRANCH  16  17
ATOM     17  N   UNL     1       3.232   3.732  18.283  0.00  0.00    +0.000 NA
ATOM     18  C   UNL     1       2.358   2.590  17.967  0.00  0.00    +0.000 C 
ATOM     19  C   UNL     1       0.979   2.738  18.614  0.00  0.00    +0.000 C 
ATOM     20  C   UNL     1       1.094   2.919  20.120  0.00  0.00    +0.000 C 
ATOM     21  C   UNL     1       2.022   4.084  20.435  0.00  0.00    +0.000 C 
ATOM     22  C   UNL     1       3.373   3.934  19.732  0.00  0.00    +0.000 C 
ENDBRANCH  16  17
ENDBRANCH   4  16
TORSDOF 5
ENDMDL
MODEL 7
REMARK VINA RESULT:      -7.6      1.031      1.579
REMARK  Name = 
REMARK  5 active torsions:
REMARK  status: ('A' for Active; 'I' for Inactive)
REMARK    1  A    between atoms: C_5  and  O_6
REMARK    2  A    between atoms: O_6  and  C_7
REMARK    3  A    between atoms: C_7  and  C_8
REMARK    4  A    between atoms: C_11  and  C_12
REMARK    5  A    between atoms: C_12  and  N_13
REMARK                            x       y       z     vdW  Elec       q    Type
REMARK                         _______ _______ _______ _____ _____    ______ ____
ROOT
ATOM      1  C   UNL     1       7.174   6.731  17.794  0.00  0.00    +0.000 A 
ATOM      2  C   UNL     1       7.381   5.375  18.083  0.00  0.00    +0.000 A 
ATOM      3  C   UNL     1       6.376   4.436  17.897  0.00  0.00    +0.000 A 
ATOM      4  C   UNL     1       5.118   4.823  17.423  0.00  0.00    +0.000 A 
ATOM      5  C   UNL     1       4.930   6.161  17.050  0.00  0.00    +0.000 A 
ATOM      6  C   UNL     1       5.944   7.104  17.234  0.00  0.00    +0.000 A 
ENDROOT
BRANCH   1   7
ATOM      7  C   UNL     1       8.193   7.783  18.184  0.00  0.00    +0.000 C 
BRANCH   7   8
ATOM      8  O   UNL     1       7.903   9.106  17.739  0.00  0.00    +0.000 OA
BRANCH   8  13
ATOM      9 BR   UNL     1      11.296  13.756  19.377  0.00  0.00    +0.000 Br
ATOM     10  C   UNL     1      10.042  12.379  19.057  0.00  0.00    +0.000 A 
ATOM     11  C   UNL     1       9.123  12.511  18.023  0.00  0.00    +0.000 A 
ATOM     12  C   UNL     1       8.368  11.403  17.649  0.00  0.00    +0.000 A 
ATOM     13  C   UNL     1       8.527  10.175  18.306  0.00  0.00    +0.000 A 
ATOM     14  C   UNL     1       9.344  10.098  19.428  0.00  0.00    +0.000 A 
ATOM     15  C   UNL     1      10.126  11.194  19.786  0.00  0.00    +0.000 A 
ENDBRANCH   8  13
ENDBRANCH   7   8
ENDBRANCH   1   7
BRANCH   4  16
ATOM     16  C   UNL     1       3.988   3.821  17.346  0.00  0.00    +0.000 C 
BRANCH  16  17
ATOM     17  N   UNL     1       2.910   4.084  18.329  0.00  0.00    +0.000 NA
ATOM     18  C   UNL     1       1.881   3.032  18.310  0.00  0.00    +0.000 C 
ATOM     19  C   UNL     1       0.769   3.309  19.324  0.00  0.00    +0.000 C 
ATOM     20  C   UNL     1       1.333   3.477  20.727  0.00  0.00    +0.000 C 
ATOM     21  C   UNL     1       2.415   4.548  20.728  0.00  0.00    +0.000 C 
ATOM     22  C   UNL     1       3.484   4.270  19.669  0.00  0.00    +0.000 C 
ENDBRANCH  16  17
ENDBRANCH   4  16
TORSDOF 5
ENDMDL
MODEL 8
REMARK VINA RESULT:      -7.6      1.085      1.909
REMARK  Name = 
REMARK  5 active torsions:
REMARK  status: ('A' for Active; 'I' for Inactive)
REMARK    1  A    between atoms: C_5  and  O_6
REMARK    2  A    between atoms: O_6  and  C_7
REMARK    3  A    between atoms: C_7  and  C_8
REMARK    4  A    between atoms: C_11  and  C_12
REMARK    5  A    between atoms: C_12  and  N_13
REMARK                            x       y       z     vdW  Elec       q    Type
REMARK                         _______ _______ _______ _____ _____    ______ ____
ROOT
ATOM      1  C   UNL     1       7.280   7.007  18.056  0.00  0.00    +0.000 A 
ATOM      2  C   UNL     1       6.298   7.204  17.075  0.00  0.00    +0.000 A 
ATOM      3  C   UNL     1       5.377   6.213  16.766  0.00  0.00    +0.000 A 
ATOM      4  C   UNL     1       5.413   4.978  17.423  0.00  0.00    +0.000 A 
ATOM      5  C   UNL     1       6.335   4.803  18.464  0.00  0.00    +0.000 A 
ATOM      6  C   UNL     1       7.259   5.804  18.777  0.00  0.00    +0.000 A 
ENDROOT
BRANCH   1   7
ATOM      7  C   UNL     1       8.406   8.002  18.253  0.00  0.00    +0.000 C 
BRANCH   7   8
ATOM      8  O   UNL     1       8.122   9.336  17.838  0.00  0.00    +0.000 OA
BRANCH   8  13
ATOM      9 BR   UNL     1      11.593  13.870  19.631  0.00  0.00    +0.000 Br
ATOM     10  C   UNL     1      10.304  12.542  19.246  0.00  0.00    +0.000 A 
ATOM     11  C   UNL     1       9.471  12.690  18.144  0.00  0.00    +0.000 A 
ATOM     12  C   UNL     1       8.696  11.607  17.737  0.00  0.00    +0.000 A 
ATOM     13  C   UNL     1       8.751  10.388  18.429  0.00  0.00    +0.000 A 
ATOM     14  C   UNL     1       9.479  10.302  19.609  0.00  0.00    +0.000 A 
ATOM     15  C   UNL     1      10.282  11.372  20.002  0.00  0.00    +0.000 A 
ENDBRANCH   8  13
ENDBRANCH   7   8
ENDBRANCH   1   7
BRANCH   4  16
ATOM     16  C   UNL     1       4.494   3.857  16.993  0.00  0.00    +0.000 C 
BRANCH  16  17
ATOM     17  N   UNL     1       3.495   3.495  18.026  0.00  0.00    +0.000 NA
ATOM     18  C   UNL     1       2.371   4.445  18.060  0.00  0.00    +0.000 C 
ATOM     19  C   UNL     1       1.344   4.069  19.130  0.00  0.00    +0.000 C 
ATOM     20  C   UNL     1       0.834   2.650  18.929  0.00  0.00    +0.000 C 
ATOM     21  C   UNL     1       2.006   1.680  18.867  0.00  0.00    +0.000 C 
ATOM     22  C   UNL     1       3.041   2.112  17.825  0.00  0.00    +0.000 C 
ENDBRANCH  16  17
ENDBRANCH   4  16
TORSDOF 5
ENDMDL
MODEL 9
REMARK VINA RESULT:      -7.4      0.874      1.966
REMARK  Name = 
REMARK  5 active torsions:
REMARK  status: ('A' for Active; 'I' for Inactive)
REMARK    1  A    between atoms: C_5  and  O_6
REMARK    2  A    between atoms: O_6  and  C_7
REMARK    3  A    between atoms: C_7  and  C_8
REMARK    4  A    between atoms: C_11  and  C_12
REMARK    5  A    between atoms: C_12  and  N_13
REMARK                            x       y       z     vdW  Elec       q    Type
REMARK                         _______ _______ _______ _____ _____    ______ ____
ROOT
ATOM      1  C   UNL     1       7.141   7.234  17.623  0.00  0.00    +0.000 A 
ATOM      2  C   UNL     1       5.836   7.227  17.112  0.00  0.00    +0.000 A 
ATOM      3  C   UNL     1       5.131   6.042  16.949  0.00  0.00    +0.000 A 
ATOM      4  C   UNL     1       5.713   4.815  17.280  0.00  0.00    +0.000 A 
ATOM      5  C   UNL     1       6.985   4.819  17.872  0.00  0.00    +0.000 A 
ATOM      6  C   UNL     1       7.691   6.013  18.040  0.00  0.00    +0.000 A 
ENDROOT
BRANCH   1   7
ATOM      7  C   UNL     1       7.984   8.493  17.614  0.00  0.00    +0.000 C 
BRANCH   7   8
ATOM      8  O   UNL     1       8.584   8.835  18.862  0.00  0.00    +0.000 OA
BRANCH   8  13
ATOM      9 BR   UNL     1      11.964  13.758  19.251  0.00  0.00    +0.000 Br
ATOM     10  C   UNL     1      10.675  12.378  19.167  0.00  0.00    +0.000 A 
ATOM     11  C   UNL     1      10.220  11.935  17.930  0.00  0.00    +0.000 A 
ATOM     12  C   UNL     1       9.458  10.772  17.872  0.00  0.00    +0.000 A 
ATOM     13  C   UNL     1       9.150  10.059  19.040  0.00  0.00    +0.000 A 
ATOM     14  C   UNL     1       9.491  10.590  20.277  0.00  0.00    +0.000 A 
ATOM     15  C   UNL     1      10.282  11.737  20.340  0.00  0.00    +0.000 A 
ENDBRANCH   8  13
ENDBRANCH   7   8
ENDBRANCH   1   7
BRANCH   4  16
ATOM     16  C   UNL     1       4.994   3.520  16.978  0.00  0.00    +0.000 C 
BRANCH  16  17
ATOM     17  N   UNL     1       3.853   3.262  17.889  0.00  0.00    +0.000 NA
ATOM     18  C   UNL     1       4.143   3.689  19.267  0.00  0.00    +0.000 C 
ATOM     19  C   UNL     1       2.964   3.417  20.204  0.00  0.00    +0.000 C 
ATOM     20  C   UNL     1       1.694   4.083  19.697  0.00  0.00    +0.000 C 
ATOM     21  C   UNL     1       1.419   3.656  18.261  0.00  0.00    +0.000 C 
ATOM     22  C   UNL     1       2.635   3.892  17.361  0.00  0.00    +0.000 C 
ENDBRANCH  16  17
ENDBRANCH   4  16
TORSDOF 5
ENDMDL
