MODEL 1
REMARK VINA RESULT:      -8.2      0.000      0.000
REMARK  Name = 
REMARK  6 active torsions:
REMARK  status: ('A' for Active; 'I' for Inactive)
REMARK    1  A    between atoms: C_1  and  O_2
REMARK    2  A    between atoms: O_2  and  C_3
REMARK    3  A    between atoms: C_6  and  C_7
REMARK    4  A    between atoms: C_10  and  S_11
REMARK    5  A    between atoms: S_11  and  C_12
REMARK    6  A    between atoms: N_16  and  O_17
REMARK                            x       y       z     vdW  Elec       q    Type
REMARK                         _______ _______ _______ _____ _____    ______ ____
ROOT
ATOM      1  C   UNL     1       1.758   7.205  20.277  0.00  0.00    +0.000 A 
ATOM      2  C   UNL     1       1.480   6.028  20.996  0.00  0.00    +0.000 A 
ATOM      3  C   UNL     1       1.993   4.785  20.595  0.00  0.00    +0.000 A 
ATOM      4  C   UNL     1       2.789   4.681  19.454  0.00  0.00    +0.000 A 
ATOM      5  C   UNL     1       3.094   5.837  18.737  0.00  0.00    +0.000 A 
ATOM      6  C   UNL     1       2.589   7.076  19.148  0.00  0.00    +0.000 A 
ENDROOT
BRANCH   1  10
ATOM      7  C   UNL     1       0.136  11.068  21.374  0.00  0.00    +0.000 A 
ATOM      8  C   UNL     1       0.362  10.099  22.351  0.00  0.00    +0.000 A 
ATOM      9  C   UNL     1       0.899   8.850  22.007  0.00  0.00    +0.000 A 
ATOM     10  C   UNL     1       1.196   8.522  20.671  0.00  0.00    +0.000 A 
ATOM     11  C   UNL     1       0.923   9.508  19.706  0.00  0.00    +0.000 A 
ATOM     12  C   UNL     1       0.410  10.762  20.047  0.00  0.00    +0.000 A 
BRANCH   7  14
ATOM     13  C   UNL     1      -1.293  12.143  22.910  0.00  0.00    +0.000 C 
ATOM     14  O   UNL     1      -0.385  12.252  21.817  0.00  0.00    +0.000 OA
ENDBRANCH   7  14
ENDBRANCH   1  10
BRANCH   4  15
ATOM     15  S   UNL     1       3.470   3.110  18.965  0.00  0.00    +0.000 S 
BRANCH  15  16
ATOM     16  C   UNL     1       4.668   3.620  17.830  0.00  0.00    +0.000 A 
ATOM     17  C   UNL     1       4.419   3.806  16.530  0.00  0.00    +0.000 A 
ATOM     18  C   UNL     1       5.502   4.308  15.663  0.00  0.00    +0.000 A 
ATOM     19  O   UNL     1       5.311   4.490  14.461  0.00  0.00    +0.000 OA
ATOM     20  N   UNL     1       6.698   4.559  16.289  0.00  0.00    +0.000 N 
ATOM     21  C   UNL     1       6.960   4.382  17.634  0.00  0.00    +0.000 A 
ATOM     22  O   UNL     1       8.026   4.619  18.199  0.00  0.00    +0.000 OA
ATOM     23  N   UNL     1       5.894   3.900  18.358  0.00  0.00    +0.000 N 
ATOM     24  H   UNL     1       6.046   3.773  19.350  0.00  0.00    +0.000 HD
BRANCH  20  25
ATOM     25  O   UNL     1       7.739   5.064  15.481  0.00  0.00    +0.000 OA
ATOM     26  H   UNL     1       7.648   6.030  15.612  0.00  0.00    +0.000 HD
ENDBRANCH  20  25
ENDBRANCH  15  16
ENDBRANCH   4  15
TORSDOF 5
ENDMDL
MODEL 2
REMARK VINA RESULT:      -8.1      0.247      1.009
REMARK  Name = 
REMARK  6 active torsions:
REMARK  status: ('A' for Active; 'I' for Inactive)
REMARK    1  A    between atoms: C_1  and  O_2
REMARK    2  A    between atoms: O_2  and  C_3
REMARK    3  A    between atoms: C_6  and  C_7
REMARK    4  A    between atoms: C_10  and  S_11
REMARK    5  A    between atoms: S_11  and  C_12
REMARK    6  A    between atoms: N_16  and  O_17
REMARK                            x       y       z     vdW  Elec       q    Type
REMARK                         _______ _______ _______ _____ _____    ______ ____
ROOT
ATOM      1  C   UNL     1       1.811   7.123  20.219  0.00  0.00    +0.000 A 
ATOM      2  C   UNL     1       2.559   7.037  19.031  0.00  0.00    +0.000 A 
ATOM      3  C   UNL     1       3.093   5.818  18.586  0.00  0.00    +0.000 A 
ATOM      4  C   UNL     1       2.904   4.649  19.323  0.00  0.00    +0.000 A 
ATOM      5  C   UNL     1       2.149   4.706  20.494  0.00  0.00    +0.000 A 
ATOM      6  C   UNL     1       1.610   5.923  20.928  0.00  0.00    +0.000 A 
ENDROOT
BRANCH   1  10
ATOM      7  C   UNL     1       0.244  10.907  21.624  0.00  0.00    +0.000 A 
ATOM      8  C   UNL     1       0.522   9.884  22.530  0.00  0.00    +0.000 A 
ATOM      9  C   UNL     1       1.042   8.659  22.086  0.00  0.00    +0.000 A 
ATOM     10  C   UNL     1       1.268   8.412  20.719  0.00  0.00    +0.000 A 
ATOM     11  C   UNL     1       0.943   9.451  19.828  0.00  0.00    +0.000 A 
ATOM     12  C   UNL     1       0.447  10.680  20.270  0.00  0.00    +0.000 A 
BRANCH   7  14
ATOM     13  C   UNL     1      -1.530  11.936  22.789  0.00  0.00    +0.000 C 
ATOM     14  O   UNL     1      -0.255  12.060  22.163  0.00  0.00    +0.000 OA
ENDBRANCH   7  14
ENDBRANCH   1  10
BRANCH   4  15
ATOM     15  S   UNL     1       3.549   3.095  18.741  0.00  0.00    +0.000 S 
BRANCH  15  16
ATOM     16  C   UNL     1       4.721   3.644  17.597  0.00  0.00    +0.000 A 
ATOM     17  C   UNL     1       4.441   3.880  16.311  0.00  0.00    +0.000 A 
ATOM     18  C   UNL     1       5.505   4.410  15.438  0.00  0.00    +0.000 A 
ATOM     19  O   UNL     1       5.286   4.638  14.249  0.00  0.00    +0.000 OA
ATOM     20  N   UNL     1       6.717   4.634  16.044  0.00  0.00    +0.000 N 
ATOM     21  C   UNL     1       7.011   4.406  17.374  0.00  0.00    +0.000 A 
ATOM     22  O   UNL     1       8.091   4.618  17.922  0.00  0.00    +0.000 OA
ATOM     23  N   UNL     1       5.960   3.901  18.106  0.00  0.00    +0.000 N 
ATOM     24  H   UNL     1       6.137   3.735  19.088  0.00  0.00    +0.000 HD
BRANCH  20  25
ATOM     25  O   UNL     1       7.740   5.166  15.230  0.00  0.00    +0.000 OA
ATOM     26  H   UNL     1       7.257   5.367  14.402  0.00  0.00    +0.000 HD
ENDBRANCH  20  25
ENDBRANCH  15  16
ENDBRANCH   4  15
TORSDOF 5
ENDMDL
MODEL 3
REMARK VINA RESULT:      -8.1      0.153      1.384
REMARK  Name = 
REMARK  6 active torsions:
REMARK  status: ('A' for Active; 'I' for Inactive)
REMARK    1  A    between atoms: C_1  and  O_2
REMARK    2  A    between atoms: O_2  and  C_3
REMARK    3  A    between atoms: C_6  and  C_7
REMARK    4  A    between atoms: C_10  and  S_11
REMARK    5  A    between atoms: S_11  and  C_12
REMARK    6  A    between atoms: N_16  and  O_17
REMARK                            x       y       z     vdW  Elec       q    Type
REMARK                         _______ _______ _______ _____ _____    ______ ____
ROOT
ATOM      1  C   UNL     1       1.690   7.264  20.254  0.00  0.00    +0.000 A 
ATOM      2  C   UNL     1       2.456   7.104  19.085  0.00  0.00    +0.000 A 
ATOM      3  C   UNL     1       2.992   5.859  18.723  0.00  0.00    +0.000 A 
ATOM      4  C   UNL     1       2.788   4.738  19.527  0.00  0.00    +0.000 A 
ATOM      5  C   UNL     1       2.016   4.868  20.681  0.00  0.00    +0.000 A 
ATOM      6  C   UNL     1       1.474   6.110  21.032  0.00  0.00    +0.000 A 
ENDROOT
BRANCH   1  10
ATOM      7  C   UNL     1       0.071  11.081  21.502  0.00  0.00    +0.000 A 
ATOM      8  C   UNL     1       0.586  10.926  20.216  0.00  0.00    +0.000 A 
ATOM      9  C   UNL     1       1.100   9.689  19.798  0.00  0.00    +0.000 A 
ATOM     10  C   UNL     1       1.144   8.583  20.666  0.00  0.00    +0.000 A 
ATOM     11  C   UNL     1       0.650   8.783  21.968  0.00  0.00    +0.000 A 
ATOM     12  C   UNL     1       0.115  10.006  22.379  0.00  0.00    +0.000 A 
BRANCH   7  14
ATOM     13  C   UNL     1      -1.212  12.395  22.981  0.00  0.00    +0.000 C 
ATOM     14  O   UNL     1      -0.411  12.325  21.805  0.00  0.00    +0.000 OA
ENDBRANCH   7  14
ENDBRANCH   1  10
BRANCH   4  15
ATOM     15  S   UNL     1       3.437   3.150  19.050  0.00  0.00    +0.000 S 
BRANCH  15  16
ATOM     16  C   UNL     1       4.640   3.627  17.906  0.00  0.00    +0.000 A 
ATOM     17  C   UNL     1       4.399   3.765  16.599  0.00  0.00    +0.000 A 
ATOM     18  C   UNL     1       5.486   4.242  15.723  0.00  0.00    +0.000 A 
ATOM     19  O   UNL     1       5.303   4.380  14.514  0.00  0.00    +0.000 OA
ATOM     20  N   UNL     1       6.676   4.522  16.348  0.00  0.00    +0.000 N 
ATOM     21  C   UNL     1       6.929   4.394  17.700  0.00  0.00    +0.000 A 
ATOM     22  O   UNL     1       7.989   4.656  18.264  0.00  0.00    +0.000 OA
ATOM     23  N   UNL     1       5.860   3.932  18.433  0.00  0.00    +0.000 N 
ATOM     24  H   UNL     1       6.007   3.841  19.430  0.00  0.00    +0.000 HD
BRANCH  20  25
ATOM     25  O   UNL     1       7.720   5.003  15.530  0.00  0.00    +0.000 OA
ATOM     26  H   UNL     1       7.670   4.400  14.760  0.00  0.00    +0.000 HD
ENDBRANCH  20  25
ENDBRANCH  15  16
ENDBRANCH   4  15
TORSDOF 5
ENDMDL
MODEL 4
REMARK VINA RESULT:      -8.0      4.937      9.186
REMARK  Name = 
REMARK  6 active torsions:
REMARK  status: ('A' for Active; 'I' for Inactive)
REMARK    1  A    between atoms: C_1  and  O_2
REMARK    2  A    between atoms: O_2  and  C_3
REMARK    3  A    between atoms: C_6  and  C_7
REMARK    4  A    between atoms: C_10  and  S_11
REMARK    5  A    between atoms: S_11  and  C_12
REMARK    6  A    between atoms: N_16  and  O_17
REMARK                            x       y       z     vdW  Elec       q    Type
REMARK                         _______ _______ _______ _____ _____    ______ ____
ROOT
ATOM      1  C   UNL     1       1.955   7.852  19.322  0.00  0.00    +0.000 A 
ATOM      2  C   UNL     1       2.123   8.599  18.143  0.00  0.00    +0.000 A 
ATOM      3  C   UNL     1       1.601   9.895  18.013  0.00  0.00    +0.000 A 
ATOM      4  C   UNL     1       0.884  10.478  19.058  0.00  0.00    +0.000 A 
ATOM      5  C   UNL     1       0.721   9.763  20.244  0.00  0.00    +0.000 A 
ATOM      6  C   UNL     1       1.253   8.475  20.372  0.00  0.00    +0.000 A 
ENDROOT
BRANCH   1  10
ATOM      7  C   UNL     1       3.445   3.812  19.782  0.00  0.00    +0.000 A 
ATOM      8  C   UNL     1       3.946   4.633  18.772  0.00  0.00    +0.000 A 
ATOM      9  C   UNL     1       3.479   5.947  18.624  0.00  0.00    +0.000 A 
ATOM     10  C   UNL     1       2.474   6.467  19.461  0.00  0.00    +0.000 A 
ATOM     11  C   UNL     1       1.965   5.601  20.446  0.00  0.00    +0.000 A 
ATOM     12  C   UNL     1       2.445   4.299  20.612  0.00  0.00    +0.000 A 
BRANCH   7  14
ATOM     13  C   UNL     1       3.625   1.697  18.756  0.00  0.00    +0.000 C 
ATOM     14  O   UNL     1       3.973   2.552  19.842  0.00  0.00    +0.000 OA
ENDBRANCH   7  14
ENDBRANCH   1  10
BRANCH   4  15
ATOM     15  S   UNL     1       0.252  12.136  18.909  0.00  0.00    +0.000 S 
BRANCH  15  16
ATOM     16  C   UNL     1      -1.364  11.816  18.389  0.00  0.00    +0.000 A 
ATOM     17  C   UNL     1      -2.439  12.016  19.159  0.00  0.00    +0.000 A 
ATOM     18  C   UNL     1      -3.777  11.771  18.589  0.00  0.00    +0.000 A 
ATOM     19  O   UNL     1      -4.789  11.942  19.267  0.00  0.00    +0.000 OA
ATOM     20  N   UNL     1      -3.801  11.362  17.278  0.00  0.00    +0.000 N 
ATOM     21  C   UNL     1      -2.696  11.165  16.472  0.00  0.00    +0.000 A 
ATOM     22  O   UNL     1      -2.716  10.812  15.295  0.00  0.00    +0.000 OA
ATOM     23  N   UNL     1      -1.493  11.407  17.094  0.00  0.00    +0.000 N 
ATOM     24  H   UNL     1      -0.663  11.287  16.528  0.00  0.00    +0.000 HD
BRANCH  20  25
ATOM     25  O   UNL     1      -5.074  11.147  16.708  0.00  0.00    +0.000 OA
ATOM     26  H   UNL     1      -5.645  11.093  17.501  0.00  0.00    +0.000 HD
ENDBRANCH  20  25
ENDBRANCH  15  16
ENDBRANCH   4  15
TORSDOF 5
ENDMDL
MODEL 5
REMARK VINA RESULT:      -8.0      1.195      2.086
REMARK  Name = 
REMARK  6 active torsions:
REMARK  status: ('A' for Active; 'I' for Inactive)
REMARK    1  A    between atoms: C_1  and  O_2
REMARK    2  A    between atoms: O_2  and  C_3
REMARK    3  A    between atoms: C_6  and  C_7
REMARK    4  A    between atoms: C_10  and  S_11
REMARK    5  A    between atoms: S_11  and  C_12
REMARK    6  A    between atoms: N_16  and  O_17
REMARK                            x       y       z     vdW  Elec       q    Type
REMARK                         _______ _______ _______ _____ _____    ______ ____
ROOT
ATOM      1  C   UNL     1       1.945   7.241  19.859  0.00  0.00    +0.000 A 
ATOM      2  C   UNL     1       2.502   7.297  18.569  0.00  0.00    +0.000 A 
ATOM      3  C   UNL     1       3.094   6.171  17.975  0.00  0.00    +0.000 A 
ATOM      4  C   UNL     1       3.157   4.959  18.661  0.00  0.00    +0.000 A 
ATOM      5  C   UNL     1       2.594   4.874  19.934  0.00  0.00    +0.000 A 
ATOM      6  C   UNL     1       1.995   5.997  20.517  0.00  0.00    +0.000 A 
ENDROOT
BRANCH   1  10
ATOM      7  C   UNL     1       0.210  10.747  21.716  0.00  0.00    +0.000 A 
ATOM      8  C   UNL     1       0.513   9.624  22.485  0.00  0.00    +0.000 A 
ATOM      9  C   UNL     1       1.087   8.489  21.895  0.00  0.00    +0.000 A 
ATOM     10  C   UNL     1       1.345   8.432  20.512  0.00  0.00    +0.000 A 
ATOM     11  C   UNL     1       0.994   9.568  19.759  0.00  0.00    +0.000 A 
ATOM     12  C   UNL     1       0.444  10.709  20.348  0.00  0.00    +0.000 A 
BRANCH   7  14
ATOM     13  C   UNL     1      -0.386  13.028  21.667  0.00  0.00    +0.000 C 
ATOM     14  O   UNL     1      -0.342  11.801  22.391  0.00  0.00    +0.000 OA
ENDBRANCH   7  14
ENDBRANCH   1  10
BRANCH   4  15
ATOM     15  S   UNL     1       3.875   3.520  17.895  0.00  0.00    +0.000 S 
BRANCH  15  16
ATOM     16  C   UNL     1       5.073   4.257  16.892  0.00  0.00    +0.000 A 
ATOM     17  C   UNL     1       5.900   5.218  17.317  0.00  0.00    +0.000 A 
ATOM     18  C   UNL     1       6.929   5.729  16.392  0.00  0.00    +0.000 A 
ATOM     19  O   UNL     1       7.707   6.614  16.746  0.00  0.00    +0.000 OA
ATOM     20  N   UNL     1       6.956   5.147  15.148  0.00  0.00    +0.000 N 
ATOM     21  C   UNL     1       6.114   4.145  14.707  0.00  0.00    +0.000 A 
ATOM     22  O   UNL     1       6.145   3.613  13.599  0.00  0.00    +0.000 OA
ATOM     23  N   UNL     1       5.181   3.742  15.634  0.00  0.00    +0.000 N 
ATOM     24  H   UNL     1       4.557   2.998  15.348  0.00  0.00    +0.000 HD
BRANCH  20  25
ATOM     25  O   UNL     1       7.951   5.606  14.259  0.00  0.00    +0.000 OA
ATOM     26  H   UNL     1       8.613   5.984  14.873  0.00  0.00    +0.000 HD
ENDBRANCH  20  25
ENDBRANCH  15  16
ENDBRANCH   4  15
TORSDOF 5
ENDMDL
MODEL 6
REMARK VINA RESULT:      -8.0      4.929      9.084
REMARK  Name = 
REMARK  6 active torsions:
REMARK  status: ('A' for Active; 'I' for Inactive)
REMARK    1  A    between atoms: C_1  and  O_2
REMARK    2  A    between atoms: O_2  and  C_3
REMARK    3  A    between atoms: C_6  and  C_7
REMARK    4  A    between atoms: C_10  and  S_11
REMARK    5  A    between atoms: S_11  and  C_12
REMARK    6  A    between atoms: N_16  and  O_17
REMARK                            x       y       z     vdW  Elec       q    Type
REMARK                         _______ _______ _______ _____ _____    ______ ____
ROOT
ATOM      1  C   UNL     1       1.868   7.869  19.417  0.00  0.00    +0.000 A 
ATOM      2  C   UNL     1       1.207   8.516  20.477  0.00  0.00    +0.000 A 
ATOM      3  C   UNL     1       0.723   9.827  20.348  0.00  0.00    +0.000 A 
ATOM      4  C   UNL     1       0.897  10.534  19.159  0.00  0.00    +0.000 A 
ATOM      5  C   UNL     1       1.532   9.905  18.088  0.00  0.00    +0.000 A 
ATOM      6  C   UNL     1       2.003   8.594  18.218  0.00  0.00    +0.000 A 
ENDROOT
BRANCH   1  10
ATOM      7  C   UNL     1       3.485   3.865  19.750  0.00  0.00    +0.000 A 
ATOM      8  C   UNL     1       2.442   4.271  20.582  0.00  0.00    +0.000 A 
ATOM      9  C   UNL     1       1.903   5.561  20.473  0.00  0.00    +0.000 A 
ATOM     10  C   UNL     1       2.414   6.493  19.550  0.00  0.00    +0.000 A 
ATOM     11  C   UNL     1       3.489   6.064  18.752  0.00  0.00    +0.000 A 
ATOM     12  C   UNL     1       4.013   4.772  18.841  0.00  0.00    +0.000 A 
BRANCH   7  14
ATOM     13  C   UNL     1       3.668   1.690  18.860  0.00  0.00    +0.000 C 
ATOM     14  O   UNL     1       3.932   2.587  19.936  0.00  0.00    +0.000 OA
ENDBRANCH   7  14
ENDBRANCH   1  10
BRANCH   4  15
ATOM     15  S   UNL     1       0.252  12.184  18.982  0.00  0.00    +0.000 S 
BRANCH  15  16
ATOM     16  C   UNL     1      -1.354  11.844  18.445  0.00  0.00    +0.000 A 
ATOM     17  C   UNL     1      -2.439  12.028  19.204  0.00  0.00    +0.000 A 
ATOM     18  C   UNL     1      -3.768  11.766  18.620  0.00  0.00    +0.000 A 
ATOM     19  O   UNL     1      -4.789  11.923  19.287  0.00  0.00    +0.000 OA
ATOM     20  N   UNL     1      -3.772  11.358  17.308  0.00  0.00    +0.000 N 
ATOM     21  C   UNL     1      -2.657  11.178  16.514  0.00  0.00    +0.000 A 
ATOM     22  O   UNL     1      -2.659  10.826  15.336  0.00  0.00    +0.000 OA
ATOM     23  N   UNL     1      -1.464  11.435  17.149  0.00  0.00    +0.000 N 
ATOM     24  H   UNL     1      -0.626  11.327  16.591  0.00  0.00    +0.000 HD
BRANCH  20  25
ATOM     25  O   UNL     1      -5.036  11.127  16.725  0.00  0.00    +0.000 OA
ATOM     26  H   UNL     1      -5.300  10.280  17.139  0.00  0.00    +0.000 HD
ENDBRANCH  20  25
ENDBRANCH  15  16
ENDBRANCH   4  15
TORSDOF 5
ENDMDL
MODEL 7
REMARK VINA RESULT:      -8.0      0.922      1.755
REMARK  Name = 
REMARK  6 active torsions:
REMARK  status: ('A' for Active; 'I' for Inactive)
REMARK    1  A    between atoms: C_1  and  O_2
REMARK    2  A    between atoms: O_2  and  C_3
REMARK    3  A    between atoms: C_6  and  C_7
REMARK    4  A    between atoms: C_10  and  S_11
REMARK    5  A    between atoms: S_11  and  C_12
REMARK    6  A    between atoms: N_16  and  O_17
REMARK                            x       y       z     vdW  Elec       q    Type
REMARK                         _______ _______ _______ _____ _____    ______ ____
ROOT
ATOM      1  C   UNL     1       1.763   7.418  20.081  0.00  0.00    +0.000 A 
ATOM      2  C   UNL     1       1.755   6.192  20.771  0.00  0.00    +0.000 A 
ATOM      3  C   UNL     1       2.327   5.035  20.219  0.00  0.00    +0.000 A 
ATOM      4  C   UNL     1       2.914   5.068  18.955  0.00  0.00    +0.000 A 
ATOM      5  C   UNL     1       2.951   6.277  18.260  0.00  0.00    +0.000 A 
ATOM      6  C   UNL     1       2.389   7.430  18.820  0.00  0.00    +0.000 A 
ENDROOT
BRANCH   1  10
ATOM      7  C   UNL     1      -0.055  11.017  21.659  0.00  0.00    +0.000 A 
ATOM      8  C   UNL     1       0.167   9.921  22.492  0.00  0.00    +0.000 A 
ATOM      9  C   UNL     1       0.768   8.756  21.993  0.00  0.00    +0.000 A 
ATOM     10  C   UNL     1       1.133   8.642  20.639  0.00  0.00    +0.000 A 
ATOM     11  C   UNL     1       0.863   9.751  19.818  0.00  0.00    +0.000 A 
ATOM     12  C   UNL     1       0.286  10.922  20.317  0.00  0.00    +0.000 A 
BRANCH   7  14
ATOM     13  C   UNL     1      -1.805  11.821  23.019  0.00  0.00    +0.000 C 
ATOM     14  O   UNL     1      -0.641  12.104  22.248  0.00  0.00    +0.000 OA
ENDBRANCH   7  14
ENDBRANCH   1  10
BRANCH   4  15
ATOM     15  S   UNL     1       3.672   3.610  18.269  0.00  0.00    +0.000 S 
BRANCH  15  16
ATOM     16  C   UNL     1       4.914   4.321  17.301  0.00  0.00    +0.000 A 
ATOM     17  C   UNL     1       5.902   5.068  17.803  0.00  0.00    +0.000 A 
ATOM     18  C   UNL     1       6.947   5.571  16.891  0.00  0.00    +0.000 A 
ATOM     19  O   UNL     1       7.871   6.263  17.316  0.00  0.00    +0.000 OA
ATOM     20  N   UNL     1       6.815   5.204  15.574  0.00  0.00    +0.000 N 
ATOM     21  C   UNL     1       5.805   4.422  15.050  0.00  0.00    +0.000 A 
ATOM     22  O   UNL     1       5.692   4.081  13.874  0.00  0.00    +0.000 OA
ATOM     23  N   UNL     1       4.872   4.011  15.973  0.00  0.00    +0.000 N 
ATOM     24  H   UNL     1       4.125   3.423  15.626  0.00  0.00    +0.000 HD
BRANCH  20  25
ATOM     25  O   UNL     1       7.820   5.654  14.691  0.00  0.00    +0.000 OA
ATOM     26  H   UNL     1       7.573   6.593  14.565  0.00  0.00    +0.000 HD
ENDBRANCH  20  25
ENDBRANCH  15  16
ENDBRANCH   4  15
TORSDOF 5
ENDMDL
MODEL 8
REMARK VINA RESULT:      -7.9      5.164      7.036
REMARK  Name = 
REMARK  6 active torsions:
REMARK  status: ('A' for Active; 'I' for Inactive)
REMARK    1  A    between atoms: C_1  and  O_2
REMARK    2  A    between atoms: O_2  and  C_3
REMARK    3  A    between atoms: C_6  and  C_7
REMARK    4  A    between atoms: C_10  and  S_11
REMARK    5  A    between atoms: S_11  and  C_12
REMARK    6  A    between atoms: N_16  and  O_17
REMARK                            x       y       z     vdW  Elec       q    Type
REMARK                         _______ _______ _______ _____ _____    ______ ____
ROOT
ATOM      1  C   UNL     1       7.638   8.014  17.941  0.00  0.00    +0.000 A 
ATOM      2  C   UNL     1       8.072   6.793  18.488  0.00  0.00    +0.000 A 
ATOM      3  C   UNL     1       7.414   5.587  18.204  0.00  0.00    +0.000 A 
ATOM      4  C   UNL     1       6.293   5.568  17.374  0.00  0.00    +0.000 A 
ATOM      5  C   UNL     1       5.856   6.764  16.805  0.00  0.00    +0.000 A 
ATOM      6  C   UNL     1       6.523   7.963  17.083  0.00  0.00    +0.000 A 
ENDROOT
BRANCH   1  10
ATOM      7  C   UNL     1       9.593  11.751  18.923  0.00  0.00    +0.000 A 
ATOM      8  C   UNL     1       8.768  11.665  17.802  0.00  0.00    +0.000 A 
ATOM      9  C   UNL     1       8.120  10.463  17.483  0.00  0.00    +0.000 A 
ATOM     10  C   UNL     1       8.305   9.303  18.259  0.00  0.00    +0.000 A 
ATOM     11  C   UNL     1       9.171   9.414  19.361  0.00  0.00    +0.000 A 
ATOM     12  C   UNL     1       9.799  10.616  19.695  0.00  0.00    +0.000 A 
BRANCH   7  14
ATOM     13  C   UNL     1      11.418  12.933  19.835  0.00  0.00    +0.000 C 
ATOM     14  O   UNL     1      10.171  12.970  19.145  0.00  0.00    +0.000 OA
ENDBRANCH   7  14
ENDBRANCH   1  10
BRANCH   4  15
ATOM     15  S   UNL     1       5.479   4.033  16.984  0.00  0.00    +0.000 S 
BRANCH  15  16
ATOM     16  C   UNL     1       4.602   3.756  18.446  0.00  0.00    +0.000 A 
ATOM     17  C   UNL     1       3.446   4.361  18.737  0.00  0.00    +0.000 A 
ATOM     18  C   UNL     1       2.749   3.999  19.986  0.00  0.00    +0.000 A 
ATOM     19  O   UNL     1       1.684   4.535  20.288  0.00  0.00    +0.000 OA
ATOM     20  N   UNL     1       3.361   3.037  20.753  0.00  0.00    +0.000 N 
ATOM     21  C   UNL     1       4.548   2.399  20.453  0.00  0.00    +0.000 A 
ATOM     22  O   UNL     1       5.091   1.528  21.130  0.00  0.00    +0.000 OA
ATOM     23  N   UNL     1       5.130   2.810  19.275  0.00  0.00    +0.000 N 
ATOM     24  H   UNL     1       5.994   2.352  19.017  0.00  0.00    +0.000 HD
BRANCH  20  25
ATOM     25  O   UNL     1       2.696   2.660  21.939  0.00  0.00    +0.000 OA
ATOM     26  H   UNL     1       3.147   1.821  22.166  0.00  0.00    +0.000 HD
ENDBRANCH  20  25
ENDBRANCH  15  16
ENDBRANCH   4  15
TORSDOF 5
ENDMDL
MODEL 9
REMARK VINA RESULT:      -7.9      0.870      2.219
REMARK  Name = 
REMARK  6 active torsions:
REMARK  status: ('A' for Active; 'I' for Inactive)
REMARK    1  A    between atoms: C_1  and  O_2
REMARK    2  A    between atoms: O_2  and  C_3
REMARK    3  A    between atoms: C_6  and  C_7
REMARK    4  A    between atoms: C_10  and  S_11
REMARK    5  A    between atoms: S_11  and  C_12
REMARK    6  A    between atoms: N_16  and  O_17
REMARK                            x       y       z     vdW  Elec       q    Type
REMARK                         _______ _______ _______ _____ _____    ______ ____
ROOT
ATOM      1  C   UNL     1       1.709   7.350  20.151  0.00  0.00    +0.000 A 
ATOM      2  C   UNL     1       2.335   7.374  18.892  0.00  0.00    +0.000 A 
ATOM      3  C   UNL     1       2.901   6.219  18.331  0.00  0.00    +0.000 A 
ATOM      4  C   UNL     1       2.869   5.007  19.021  0.00  0.00    +0.000 A 
ATOM      5  C   UNL     1       2.237   4.955  20.263  0.00  0.00    +0.000 A 
ATOM      6  C   UNL     1       1.664   6.108  20.812  0.00  0.00    +0.000 A 
ENDROOT
BRANCH   1  10
ATOM      7  C   UNL     1       0.014  10.879  22.003  0.00  0.00    +0.000 A 
ATOM      8  C   UNL     1       0.370  10.898  20.655  0.00  0.00    +0.000 A 
ATOM      9  C   UNL     1       0.908   9.755  20.043  0.00  0.00    +0.000 A 
ATOM     10  C   UNL     1       1.134   8.572  20.770  0.00  0.00    +0.000 A 
ATOM     11  C   UNL     1       0.798   8.598  22.136  0.00  0.00    +0.000 A 
ATOM     12  C   UNL     1       0.240   9.726  22.743  0.00  0.00    +0.000 A 
BRANCH   7  14
ATOM     13  C   UNL     1      -1.856  11.960  22.949  0.00  0.00    +0.000 C 
ATOM     14  O   UNL     1      -0.506  12.043  22.498  0.00  0.00    +0.000 OA
ENDBRANCH   7  14
ENDBRANCH   1  10
BRANCH   4  15
ATOM     15  S   UNL     1       3.555   3.533  18.295  0.00  0.00    +0.000 S 
BRANCH  15  16
ATOM     16  C   UNL     1       4.839   4.206  17.357  0.00  0.00    +0.000 A 
ATOM     17  C   UNL     1       5.888   4.840  17.891  0.00  0.00    +0.000 A 
ATOM     18  C   UNL     1       6.960   5.318  16.998  0.00  0.00    +0.000 A 
ATOM     19  O   UNL     1       7.940   5.906  17.453  0.00  0.00    +0.000 OA
ATOM     20  N   UNL     1       6.787   5.050  15.662  0.00  0.00    +0.000 N 
ATOM     21  C   UNL     1       5.713   4.384  15.104  0.00  0.00    +0.000 A 
ATOM     22  O   UNL     1       5.562   4.132  13.910  0.00  0.00    +0.000 OA
ATOM     23  N   UNL     1       4.759   3.988  16.013  0.00  0.00    +0.000 N 
ATOM     24  H   UNL     1       3.965   3.484  15.639  0.00  0.00    +0.000 HD
BRANCH  20  25
ATOM     25  O   UNL     1       7.815   5.477  14.795  0.00  0.00    +0.000 OA
ATOM     26  H   UNL     1       8.555   4.890  15.052  0.00  0.00    +0.000 HD
ENDBRANCH  20  25
ENDBRANCH  15  16
ENDBRANCH   4  15
TORSDOF 5
ENDMDL
