MODEL 1
REMARK VINA RESULT:      -6.9      0.000      0.000
REMARK  Name = 
REMARK  6 active torsions:
REMARK  status: ('A' for Active; 'I' for Inactive)
REMARK    1  A    between atoms: C_1  and  C_2
REMARK    2  A    between atoms: C_2  and  C_3
REMARK    3  A    between atoms: C_3  and  C_4
REMARK    4  A    between atoms: C_4  and  C_5
REMARK    5  A    between atoms: C_5  and  C_11
REMARK    6  A    between atoms: N_6  and  N_7
REMARK                            x       y       z     vdW  Elec       q    Type
REMARK                         _______ _______ _______ _____ _____    ______ ____
ROOT
ATOM      1  C   UNL     1       5.150   4.555  16.934  0.00  0.00    +0.000 C 
ATOM      2  N   UNL     1       5.137   5.071  15.735  0.00  0.00    +0.000 NA
ENDROOT
BRANCH   2   3
ATOM      3  N   UNL     1       6.290   5.566  15.202  0.00  0.00    +0.000 N 
ATOM      4  C   UNL     1       6.972   4.927  14.198  0.00  0.00    +0.000 C 
ATOM      5  N   UNL     1       6.437   3.747  13.807  0.00  0.00    +0.000 N 
ATOM      6  O   UNL     1       7.992   5.383  13.694  0.00  0.00    +0.000 OA
ATOM      7  H   UNL     1       6.683   6.442  15.509  0.00  0.00    +0.000 HD
ATOM      8  H   UNL     1       5.487   3.576  14.109  0.00  0.00    +0.000 HD
ATOM      9  H   UNL     1       6.805   3.303  12.985  0.00  0.00    +0.000 HD
ENDBRANCH   2   3
BRANCH   1  10
ATOM     10  C   UNL     1       3.845   4.030  17.473  0.00  0.00    +0.000 A 
ATOM     11  C   UNL     1       3.719   2.652  17.701  0.00  0.00    +0.000 A 
ATOM     12  C   UNL     1       2.518   2.116  18.176  0.00  0.00    +0.000 A 
ATOM     13  C   UNL     1       1.435   2.952  18.428  0.00  0.00    +0.000 A 
ATOM     14  C   UNL     1       1.555   4.327  18.224  0.00  0.00    +0.000 A 
ATOM     15  C   UNL     1       2.756   4.865  17.756  0.00  0.00    +0.000 A 
ENDBRANCH   1  10
BRANCH   1  16
ATOM     16  C   UNL     1       6.388   4.469  17.832  0.00  0.00    +0.000 C 
BRANCH  16  17
ATOM     17  C   UNL     1       6.522   5.629  18.820  0.00  0.00    +0.000 C 
BRANCH  17  19
ATOM     18  C   UNL     1       7.714   7.569  17.753  0.00  0.00    +0.000 C 
ATOM     19  C   UNL     1       7.841   6.401  18.721  0.00  0.00    +0.000 C 
ENDBRANCH  17  19
ENDBRANCH  16  17
ENDBRANCH   1  16
TORSDOF 5
ENDMDL
MODEL 2
REMARK VINA RESULT:      -6.8      2.734      5.315
REMARK  Name = 
REMARK  6 active torsions:
REMARK  status: ('A' for Active; 'I' for Inactive)
REMARK    1  A    between atoms: C_1  and  C_2
REMARK    2  A    between atoms: C_2  and  C_3
REMARK    3  A    between atoms: C_3  and  C_4
REMARK    4  A    between atoms: C_4  and  C_5
REMARK    5  A    between atoms: C_5  and  C_11
REMARK    6  A    between atoms: N_6  and  N_7
REMARK                            x       y       z     vdW  Elec       q    Type
REMARK                         _______ _______ _______ _____ _____    ______ ____
ROOT
ATOM      1  C   UNL     1       6.636   4.375  16.081  0.00  0.00    +0.000 C 
ATOM      2  N   UNL     1       7.716   4.452  16.811  0.00  0.00    +0.000 NA
ENDROOT
BRANCH   2   3
ATOM      3  N   UNL     1       7.615   4.414  18.170  0.00  0.00    +0.000 N 
ATOM      4  C   UNL     1       7.659   5.545  18.945  0.00  0.00    +0.000 C 
ATOM      5  N   UNL     1       7.854   6.696  18.260  0.00  0.00    +0.000 N 
ATOM      6  O   UNL     1       7.538   5.519  20.165  0.00  0.00    +0.000 OA
ATOM      7  H   UNL     1       7.480   3.548  18.668  0.00  0.00    +0.000 HD
ATOM      8  H   UNL     1       7.707   6.642  17.261  0.00  0.00    +0.000 HD
ATOM      9  H   UNL     1       7.753   7.567  18.751  0.00  0.00    +0.000 HD
ENDBRANCH   2   3
BRANCH   1  10
ATOM     10  C   UNL     1       6.809   4.430  14.586  0.00  0.00    +0.000 A 
ATOM     11  C   UNL     1       6.049   3.558  13.791  0.00  0.00    +0.000 A 
ATOM     12  C   UNL     1       6.196   3.555  12.400  0.00  0.00    +0.000 A 
ATOM     13  C   UNL     1       7.100   4.421  11.794  0.00  0.00    +0.000 A 
ATOM     14  C   UNL     1       7.847   5.305  12.573  0.00  0.00    +0.000 A 
ATOM     15  C   UNL     1       7.697   5.315  13.962  0.00  0.00    +0.000 A 
ENDBRANCH   1  10
BRANCH   1  16
ATOM     16  C   UNL     1       5.214   4.258  16.638  0.00  0.00    +0.000 C 
BRANCH  16  17
ATOM     17  C   UNL     1       4.507   5.601  16.827  0.00  0.00    +0.000 C 
BRANCH  17  19
ATOM     18  C   UNL     1       2.513   6.214  18.232  0.00  0.00    +0.000 C 
ATOM     19  C   UNL     1       3.994   5.858  18.247  0.00  0.00    +0.000 C 
ENDBRANCH  17  19
ENDBRANCH  16  17
ENDBRANCH   1  16
TORSDOF 5
ENDMDL
MODEL 3
REMARK VINA RESULT:      -6.8      0.117      1.210
REMARK  Name = 
REMARK  6 active torsions:
REMARK  status: ('A' for Active; 'I' for Inactive)
REMARK    1  A    between atoms: C_1  and  C_2
REMARK    2  A    between atoms: C_2  and  C_3
REMARK    3  A    between atoms: C_3  and  C_4
REMARK    4  A    between atoms: C_4  and  C_5
REMARK    5  A    between atoms: C_5  and  C_11
REMARK    6  A    between atoms: N_6  and  N_7
REMARK                            x       y       z     vdW  Elec       q    Type
REMARK                         _______ _______ _______ _____ _____    ______ ____
ROOT
ATOM      1  C   UNL     1       5.212   4.521  16.848  0.00  0.00    +0.000 C 
ATOM      2  N   UNL     1       5.186   5.054  15.657  0.00  0.00    +0.000 NA
ENDROOT
BRANCH   2   3
ATOM      3  N   UNL     1       6.331   5.566  15.122  0.00  0.00    +0.000 N 
ATOM      4  C   UNL     1       7.025   4.932  14.123  0.00  0.00    +0.000 C 
ATOM      5  N   UNL     1       6.511   3.740  13.739  0.00  0.00    +0.000 N 
ATOM      6  O   UNL     1       8.039   5.402  13.618  0.00  0.00    +0.000 OA
ATOM      7  H   UNL     1       6.710   6.449  15.425  0.00  0.00    +0.000 HD
ATOM      8  H   UNL     1       5.563   3.555  14.041  0.00  0.00    +0.000 HD
ATOM      9  H   UNL     1       6.888   3.298  12.920  0.00  0.00    +0.000 HD
ENDBRANCH   2   3
BRANCH   1  10
ATOM     10  C   UNL     1       3.915   3.979  17.390  0.00  0.00    +0.000 A 
ATOM     11  C   UNL     1       2.901   4.885  17.735  0.00  0.00    +0.000 A 
ATOM     12  C   UNL     1       1.691   4.429  18.266  0.00  0.00    +0.000 A 
ATOM     13  C   UNL     1       1.484   3.066  18.456  0.00  0.00    +0.000 A 
ATOM     14  C   UNL     1       2.477   2.155  18.098  0.00  0.00    +0.000 A 
ATOM     15  C   UNL     1       3.685   2.608  17.561  0.00  0.00    +0.000 A 
ENDBRANCH   1  10
BRANCH   1  16
ATOM     16  C   UNL     1       6.458   4.430  17.736  0.00  0.00    +0.000 C 
BRANCH  16  17
ATOM     17  C   UNL     1       6.532   5.510  18.817  0.00  0.00    +0.000 C 
BRANCH  17  19
ATOM     18  C   UNL     1       7.690   7.460  17.731  0.00  0.00    +0.000 C 
ATOM     19  C   UNL     1       7.803   6.362  18.781  0.00  0.00    +0.000 C 
ENDBRANCH  17  19
ENDBRANCH  16  17
ENDBRANCH   1  16
TORSDOF 5
ENDMDL
MODEL 4
REMARK VINA RESULT:      -6.8      2.487      5.443
REMARK  Name = 
REMARK  6 active torsions:
REMARK  status: ('A' for Active; 'I' for Inactive)
REMARK    1  A    between atoms: C_1  and  C_2
REMARK    2  A    between atoms: C_2  and  C_3
REMARK    3  A    between atoms: C_3  and  C_4
REMARK    4  A    between atoms: C_4  and  C_5
REMARK    5  A    between atoms: C_5  and  C_11
REMARK    6  A    between atoms: N_6  and  N_7
REMARK                            x       y       z     vdW  Elec       q    Type
REMARK                         _______ _______ _______ _____ _____    ______ ____
ROOT
ATOM      1  C   UNL     1       6.625   4.287  16.083  0.00  0.00    +0.000 C 
ATOM      2  N   UNL     1       7.701   4.429  16.808  0.00  0.00    +0.000 NA
ENDROOT
BRANCH   2   3
ATOM      3  N   UNL     1       7.607   4.401  18.168  0.00  0.00    +0.000 N 
ATOM      4  C   UNL     1       7.631   5.541  18.931  0.00  0.00    +0.000 C 
ATOM      5  N   UNL     1       7.797   6.689  18.236  0.00  0.00    +0.000 N 
ATOM      6  O   UNL     1       7.516   5.523  20.152  0.00  0.00    +0.000 OA
ATOM      7  H   UNL     1       7.494   3.537  18.675  0.00  0.00    +0.000 HD
ATOM      8  H   UNL     1       7.647   6.623  17.238  0.00  0.00    +0.000 HD
ATOM      9  H   UNL     1       7.680   7.562  18.719  0.00  0.00    +0.000 HD
ENDBRANCH   2   3
BRANCH   1  10
ATOM     10  C   UNL     1       6.790   4.333  14.587  0.00  0.00    +0.000 A 
ATOM     11  C   UNL     1       7.717   5.234  14.041  0.00  0.00    +0.000 A 
ATOM     12  C   UNL     1       7.885   5.330  12.656  0.00  0.00    +0.000 A 
ATOM     13  C   UNL     1       7.130   4.527  11.807  0.00  0.00    +0.000 A 
ATOM     14  C   UNL     1       6.220   3.614  12.339  0.00  0.00    +0.000 A 
ATOM     15  C   UNL     1       6.055   3.512  13.723  0.00  0.00    +0.000 A 
ENDBRANCH   1  10
BRANCH   1  16
ATOM     16  C   UNL     1       5.213   4.101  16.648  0.00  0.00    +0.000 C 
BRANCH  16  17
ATOM     17  C   UNL     1       4.445   5.409  16.846  0.00  0.00    +0.000 C 
BRANCH  17  19
ATOM     18  C   UNL     1       2.240   4.784  17.880  0.00  0.00    +0.000 C 
ATOM     19  C   UNL     1       3.586   5.459  18.112  0.00  0.00    +0.000 C 
ENDBRANCH  17  19
ENDBRANCH  16  17
ENDBRANCH   1  16
TORSDOF 5
ENDMDL
MODEL 5
REMARK VINA RESULT:      -6.7      2.362      3.335
REMARK  Name = 
REMARK  6 active torsions:
REMARK  status: ('A' for Active; 'I' for Inactive)
REMARK    1  A    between atoms: C_1  and  C_2
REMARK    2  A    between atoms: C_2  and  C_3
REMARK    3  A    between atoms: C_3  and  C_4
REMARK    4  A    between atoms: C_4  and  C_5
REMARK    5  A    between atoms: C_5  and  C_11
REMARK    6  A    between atoms: N_6  and  N_7
REMARK                            x       y       z     vdW  Elec       q    Type
REMARK                         _______ _______ _______ _____ _____    ______ ____
ROOT
ATOM      1  C   UNL     1       3.852   4.222  18.089  0.00  0.00    +0.000 C 
ATOM      2  N   UNL     1       4.939   3.532  17.877  0.00  0.00    +0.000 NA
ENDROOT
BRANCH   2   3
ATOM      3  N   UNL     1       5.792   3.906  16.882  0.00  0.00    +0.000 N 
ATOM      4  C   UNL     1       7.065   4.355  17.131  0.00  0.00    +0.000 C 
ATOM      5  N   UNL     1       7.393   4.439  18.441  0.00  0.00    +0.000 N 
ATOM      6  O   UNL     1       7.846   4.664  16.238  0.00  0.00    +0.000 OA
ATOM      7  H   UNL     1       5.532   3.848  15.910  0.00  0.00    +0.000 HD
ATOM      8  H   UNL     1       6.779   3.948  19.078  0.00  0.00    +0.000 HD
ATOM      9  H   UNL     1       8.350   4.622  18.684  0.00  0.00    +0.000 HD
ENDBRANCH   2   3
BRANCH   1  10
ATOM     10  C   UNL     1       2.944   3.757  19.197  0.00  0.00    +0.000 A 
ATOM     11  C   UNL     1       3.520   3.160  20.329  0.00  0.00    +0.000 A 
ATOM     12  C   UNL     1       2.715   2.689  21.371  0.00  0.00    +0.000 A 
ATOM     13  C   UNL     1       1.331   2.813  21.292  0.00  0.00    +0.000 A 
ATOM     14  C   UNL     1       0.750   3.423  20.181  0.00  0.00    +0.000 A 
ATOM     15  C   UNL     1       1.552   3.899  19.141  0.00  0.00    +0.000 A 
ENDBRANCH   1  10
BRANCH   1  16
ATOM     16  C   UNL     1       3.427   5.450  17.277  0.00  0.00    +0.000 C 
BRANCH  16  17
ATOM     17  C   UNL     1       3.791   6.784  17.932  0.00  0.00    +0.000 C 
BRANCH  17  19
ATOM     18  C   UNL     1       2.173   7.394  19.758  0.00  0.00    +0.000 C 
ATOM     19  C   UNL     1       2.591   7.654  18.316  0.00  0.00    +0.000 C 
ENDBRANCH  17  19
ENDBRANCH  16  17
ENDBRANCH   1  16
TORSDOF 5
ENDMDL
MODEL 6
REMARK VINA RESULT:      -6.7      2.247      3.290
REMARK  Name = 
REMARK  6 active torsions:
REMARK  status: ('A' for Active; 'I' for Inactive)
REMARK    1  A    between atoms: C_1  and  C_2
REMARK    2  A    between atoms: C_2  and  C_3
REMARK    3  A    between atoms: C_3  and  C_4
REMARK    4  A    between atoms: C_4  and  C_5
REMARK    5  A    between atoms: C_5  and  C_11
REMARK    6  A    between atoms: N_6  and  N_7
REMARK                            x       y       z     vdW  Elec       q    Type
REMARK                         _______ _______ _______ _____ _____    ______ ____
ROOT
ATOM      1  C   UNL     1       3.737   5.336  17.703  0.00  0.00    +0.000 C 
ATOM      2  N   UNL     1       4.364   4.716  16.741  0.00  0.00    +0.000 NA
ENDROOT
BRANCH   2   3
ATOM      3  N   UNL     1       5.317   5.375  16.023  0.00  0.00    +0.000 N 
ATOM      4  C   UNL     1       6.656   5.111  16.158  0.00  0.00    +0.000 C 
ATOM      5  N   UNL     1       6.961   4.177  17.089  0.00  0.00    +0.000 N 
ATOM      6  O   UNL     1       7.515   5.679  15.493  0.00  0.00    +0.000 OA
ATOM      7  H   UNL     1       5.077   6.077  15.340  0.00  0.00    +0.000 HD
ATOM      8  H   UNL     1       6.188   3.608  17.408  0.00  0.00    +0.000 HD
ATOM      9  H   UNL     1       7.906   3.837  17.134  0.00  0.00    +0.000 HD
ENDBRANCH   2   3
BRANCH   1  10
ATOM     10  C   UNL     1       2.689   4.559  18.457  0.00  0.00    +0.000 A 
ATOM     11  C   UNL     1       2.397   4.933  19.777  0.00  0.00    +0.000 A 
ATOM     12  C   UNL     1       1.452   4.224  20.524  0.00  0.00    +0.000 A 
ATOM     13  C   UNL     1       0.790   3.138  19.959  0.00  0.00    +0.000 A 
ATOM     14  C   UNL     1       1.058   2.770  18.641  0.00  0.00    +0.000 A 
ATOM     15  C   UNL     1       1.998   3.481  17.890  0.00  0.00    +0.000 A 
ENDBRANCH   1  10
BRANCH   1  16
ATOM     16  C   UNL     1       3.975   6.796  18.100  0.00  0.00    +0.000 C 
BRANCH  16  17
ATOM     17  C   UNL     1       2.942   7.772  17.534  0.00  0.00    +0.000 C 
BRANCH  17  19
ATOM     18  C   UNL     1       1.208   9.537  17.986  0.00  0.00    +0.000 C 
ATOM     19  C   UNL     1       1.995   8.373  18.576  0.00  0.00    +0.000 C 
ENDBRANCH  17  19
ENDBRANCH  16  17
ENDBRANCH   1  16
TORSDOF 5
ENDMDL
MODEL 7
REMARK VINA RESULT:      -6.7      2.316      3.260
REMARK  Name = 
REMARK  6 active torsions:
REMARK  status: ('A' for Active; 'I' for Inactive)
REMARK    1  A    between atoms: C_1  and  C_2
REMARK    2  A    between atoms: C_2  and  C_3
REMARK    3  A    between atoms: C_3  and  C_4
REMARK    4  A    between atoms: C_4  and  C_5
REMARK    5  A    between atoms: C_5  and  C_11
REMARK    6  A    between atoms: N_6  and  N_7
REMARK                            x       y       z     vdW  Elec       q    Type
REMARK                         _______ _______ _______ _____ _____    ______ ____
ROOT
ATOM      1  C   UNL     1       3.778   5.455  17.641  0.00  0.00    +0.000 C 
ATOM      2  N   UNL     1       4.504   4.725  16.840  0.00  0.00    +0.000 NA
ENDROOT
BRANCH   2   3
ATOM      3  N   UNL     1       5.406   5.326  16.012  0.00  0.00    +0.000 N 
ATOM      4  C   UNL     1       6.756   5.099  16.102  0.00  0.00    +0.000 C 
ATOM      5  N   UNL     1       7.128   4.267  17.103  0.00  0.00    +0.000 N 
ATOM      6  O   UNL     1       7.568   5.613  15.341  0.00  0.00    +0.000 OA
ATOM      7  H   UNL     1       5.116   5.952  15.277  0.00  0.00    +0.000 HD
ATOM      8  H   UNL     1       6.384   3.719  17.516  0.00  0.00    +0.000 HD
ATOM      9  H   UNL     1       8.080   3.949  17.132  0.00  0.00    +0.000 HD
ENDBRANCH   2   3
BRANCH   1  10
ATOM     10  C   UNL     1       2.795   4.736  18.528  0.00  0.00    +0.000 A 
ATOM     11  C   UNL     1       1.936   3.790  17.948  0.00  0.00    +0.000 A 
ATOM     12  C   UNL     1       0.989   3.118  18.727  0.00  0.00    +0.000 A 
ATOM     13  C   UNL     1       0.894   3.383  20.089  0.00  0.00    +0.000 A 
ATOM     14  C   UNL     1       1.756   4.307  20.680  0.00  0.00    +0.000 A 
ATOM     15  C   UNL     1       2.708   4.975  19.905  0.00  0.00    +0.000 A 
ENDBRANCH   1  10
BRANCH   1  16
ATOM     16  C   UNL     1       3.841   6.983  17.726  0.00  0.00    +0.000 C 
BRANCH  16  17
ATOM     17  C   UNL     1       2.501   7.676  17.474  0.00  0.00    +0.000 C 
BRANCH  17  19
ATOM     18  C   UNL     1       1.247   9.748  18.152  0.00  0.00    +0.000 C 
ATOM     19  C   UNL     1       1.983   8.510  18.649  0.00  0.00    +0.000 C 
ENDBRANCH  17  19
ENDBRANCH  16  17
ENDBRANCH   1  16
TORSDOF 5
ENDMDL
MODEL 8
REMARK VINA RESULT:      -6.6      2.312      3.282
REMARK  Name = 
REMARK  6 active torsions:
REMARK  status: ('A' for Active; 'I' for Inactive)
REMARK    1  A    between atoms: C_1  and  C_2
REMARK    2  A    between atoms: C_2  and  C_3
REMARK    3  A    between atoms: C_3  and  C_4
REMARK    4  A    between atoms: C_4  and  C_5
REMARK    5  A    between atoms: C_5  and  C_11
REMARK    6  A    between atoms: N_6  and  N_7
REMARK                            x       y       z     vdW  Elec       q    Type
REMARK                         _______ _______ _______ _____ _____    ______ ____
ROOT
ATOM      1  C   UNL     1       3.857   4.292  17.905  0.00  0.00    +0.000 C 
ATOM      2  N   UNL     1       4.878   3.537  17.603  0.00  0.00    +0.000 NA
ENDROOT
BRANCH   2   3
ATOM      3  N   UNL     1       5.744   3.933  16.627  0.00  0.00    +0.000 N 
ATOM      4  C   UNL     1       7.023   4.347  16.900  0.00  0.00    +0.000 C 
ATOM      5  N   UNL     1       7.345   4.372  18.215  0.00  0.00    +0.000 N 
ATOM      6  O   UNL     1       7.816   4.675  16.024  0.00  0.00    +0.000 OA
ATOM      7  H   UNL     1       5.488   3.919  15.652  0.00  0.00    +0.000 HD
ATOM      8  H   UNL     1       6.719   3.868  18.829  0.00  0.00    +0.000 HD
ATOM      9  H   UNL     1       8.305   4.526  18.469  0.00  0.00    +0.000 HD
ENDBRANCH   2   3
BRANCH   1  10
ATOM     10  C   UNL     1       2.931   3.800  18.986  0.00  0.00    +0.000 A 
ATOM     11  C   UNL     1       1.614   3.462  18.639  0.00  0.00    +0.000 A 
ATOM     12  C   UNL     1       0.711   3.026  19.613  0.00  0.00    +0.000 A 
ATOM     13  C   UNL     1       1.117   2.922  20.940  0.00  0.00    +0.000 A 
ATOM     14  C   UNL     1       2.429   3.236  21.294  0.00  0.00    +0.000 A 
ATOM     15  C   UNL     1       3.335   3.665  20.320  0.00  0.00    +0.000 A 
ENDBRANCH   1  10
BRANCH   1  16
ATOM     16  C   UNL     1       3.527   5.625  17.225  0.00  0.00    +0.000 C 
BRANCH  16  17
ATOM     17  C   UNL     1       3.715   6.846  18.126  0.00  0.00    +0.000 C 
BRANCH  17  19
ATOM     18  C   UNL     1       2.125   8.764  17.777  0.00  0.00    +0.000 C 
ATOM     19  C   UNL     1       2.412   7.506  18.586  0.00  0.00    +0.000 C 
ENDBRANCH  17  19
ENDBRANCH  16  17
ENDBRANCH   1  16
TORSDOF 5
ENDMDL
MODEL 9
REMARK VINA RESULT:      -6.6      1.095      1.609
REMARK  Name = 
REMARK  6 active torsions:
REMARK  status: ('A' for Active; 'I' for Inactive)
REMARK    1  A    between atoms: C_1  and  C_2
REMARK    2  A    between atoms: C_2  and  C_3
REMARK    3  A    between atoms: C_3  and  C_4
REMARK    4  A    between atoms: C_4  and  C_5
REMARK    5  A    between atoms: C_5  and  C_11
REMARK    6  A    between atoms: N_6  and  N_7
REMARK                            x       y       z     vdW  Elec       q    Type
REMARK                         _______ _______ _______ _____ _____    ______ ____
ROOT
ATOM      1  C   UNL     1       4.230   4.941  17.544  0.00  0.00    +0.000 C 
ATOM      2  N   UNL     1       4.450   4.715  16.277  0.00  0.00    +0.000 NA
ENDROOT
BRANCH   2   3
ATOM      3  N   UNL     1       5.474   5.356  15.646  0.00  0.00    +0.000 N 
ATOM      4  C   UNL     1       6.563   4.690  15.144  0.00  0.00    +0.000 C 
ATOM      5  N   UNL     1       6.563   3.354  15.361  0.00  0.00    +0.000 N 
ATOM      6  O   UNL     1       7.473   5.258  14.550  0.00  0.00    +0.000 OA
ATOM      7  H   UNL     1       5.467   6.354  15.501  0.00  0.00    +0.000 HD
ATOM      8  H   UNL     1       5.677   2.956  15.644  0.00  0.00    +0.000 HD
ATOM      9  H   UNL     1       7.256   2.794  14.896  0.00  0.00    +0.000 HD
ENDBRANCH   2   3
BRANCH   1  10
ATOM     10  C   UNL     1       3.080   4.209  18.185  0.00  0.00    +0.000 A 
ATOM     11  C   UNL     1       2.408   4.821  19.255  0.00  0.00    +0.000 A 
ATOM     12  C   UNL     1       1.352   4.168  19.898  0.00  0.00    +0.000 A 
ATOM     13  C   UNL     1       0.958   2.902  19.477  0.00  0.00    +0.000 A 
ATOM     14  C   UNL     1       1.605   2.292  18.403  0.00  0.00    +0.000 A 
ATOM     15  C   UNL     1       2.656   2.946  17.754  0.00  0.00    +0.000 A 
ENDBRANCH   1  10
BRANCH   1  16
ATOM     16  C   UNL     1       5.042   5.908  18.411  0.00  0.00    +0.000 C 
BRANCH  16  17
ATOM     17  C   UNL     1       6.185   5.244  19.180  0.00  0.00    +0.000 C 
BRANCH  17  19
ATOM     18  C   UNL     1       7.619   6.946  18.007  0.00  0.00    +0.000 C 
ATOM     19  C   UNL     1       7.584   5.562  18.642  0.00  0.00    +0.000 C 
ENDBRANCH  17  19
ENDBRANCH  16  17
ENDBRANCH   1  16
TORSDOF 5
ENDMDL
