MODEL 1
REMARK VINA RESULT:      -7.6      0.000      0.000
REMARK  Name = 
REMARK  2 active torsions:
REMARK  status: ('A' for Active; 'I' for Inactive)
REMARK    1  A    between atoms: C_5  and  C_6
REMARK    2  A    between atoms: C_11  and  O_12
REMARK                            x       y       z     vdW  Elec       q    Type
REMARK                         _______ _______ _______ _____ _____    ______ ____
ROOT
ATOM      1  O   UNL     1       7.688   5.827  17.221  0.00  0.00    +0.000 OA
ATOM      2  C   UNL     1       6.736   5.194  16.775  0.00  0.00    +0.000 A 
ATOM      3  C   UNL     1       5.577   4.781  17.599  0.00  0.00    +0.000 A 
ATOM      4 CL   UNL     1       5.587   5.280  19.254  0.00  0.00    +0.000 Cl
ATOM      5  C   UNL     1       4.587   4.074  17.025  0.00  0.00    +0.000 A 
ATOM      6  O   UNL     1       4.569   3.679  15.694  0.00  0.00    +0.000 OA
ATOM      7  C   UNL     1       5.608   4.078  14.887  0.00  0.00    +0.000 A 
ATOM      8  C   UNL     1       5.552   3.725  13.537  0.00  0.00    +0.000 A 
ATOM      9  C   UNL     1       6.555   4.154  12.657  0.00  0.00    +0.000 A 
ATOM     10  C   UNL     1       7.624   4.917  13.131  0.00  0.00    +0.000 A 
ATOM     11  C   UNL     1       7.698   5.245  14.482  0.00  0.00    +0.000 A 
ATOM     12  C   UNL     1       6.685   4.826  15.355  0.00  0.00    +0.000 A 
ENDROOT
BRANCH   5  13
ATOM     13  C   UNL     1       3.398   3.656  17.792  0.00  0.00    +0.000 A 
ATOM     14  C   UNL     1       2.444   4.614  18.170  0.00  0.00    +0.000 A 
ATOM     15  C   UNL     1       1.419   4.282  19.058  0.00  0.00    +0.000 A 
ATOM     16  C   UNL     1       1.319   2.983  19.557  0.00  0.00    +0.000 A 
ATOM     17  C   UNL     1       2.227   2.008  19.147  0.00  0.00    +0.000 A 
ATOM     18  C   UNL     1       3.263   2.345  18.275  0.00  0.00    +0.000 A 
BRANCH  18  19
ATOM     19  O   UNL     1       4.179   1.400  17.904  0.00  0.00    +0.000 OA
ATOM     20  H   UNL     1       3.706   0.610  17.596  0.00  0.00    +0.000 HD
ENDBRANCH  18  19
ENDBRANCH   5  13
TORSDOF 2
ENDMDL
MODEL 2
REMARK VINA RESULT:      -7.3      1.938      2.315
REMARK  Name = 
REMARK  2 active torsions:
REMARK  status: ('A' for Active; 'I' for Inactive)
REMARK    1  A    between atoms: C_5  and  C_6
REMARK    2  A    between atoms: C_11  and  O_12
REMARK                            x       y       z     vdW  Elec       q    Type
REMARK                         _______ _______ _______ _____ _____    ______ ____
ROOT
ATOM      1  O   UNL     1       4.342   7.596  17.144  0.00  0.00    +0.000 OA
ATOM      2  C   UNL     1       4.304   6.375  17.269  0.00  0.00    +0.000 A 
ATOM      3  C   UNL     1       3.552   5.692  18.346  0.00  0.00    +0.000 A 
ATOM      4 CL   UNL     1       2.659   6.702  19.428  0.00  0.00    +0.000 Cl
ATOM      5  C   UNL     1       3.582   4.349  18.412  0.00  0.00    +0.000 A 
ATOM      6  O   UNL     1       4.290   3.532  17.540  0.00  0.00    +0.000 OA
ATOM      7  C   UNL     1       4.968   4.127  16.504  0.00  0.00    +0.000 A 
ATOM      8  C   UNL     1       5.629   3.293  15.599  0.00  0.00    +0.000 A 
ATOM      9  C   UNL     1       6.288   3.843  14.491  0.00  0.00    +0.000 A 
ATOM     10  C   UNL     1       6.305   5.226  14.299  0.00  0.00    +0.000 A 
ATOM     11  C   UNL     1       5.672   6.061  15.216  0.00  0.00    +0.000 A 
ATOM     12  C   UNL     1       5.002   5.506  16.315  0.00  0.00    +0.000 A 
ENDROOT
BRANCH   5  13
ATOM     13  C   UNL     1       2.833   3.615  19.450  0.00  0.00    +0.000 A 
ATOM     14  C   UNL     1       1.448   3.808  19.573  0.00  0.00    +0.000 A 
ATOM     15  C   UNL     1       0.753   3.282  20.664  0.00  0.00    +0.000 A 
ATOM     16  C   UNL     1       1.428   2.532  21.629  0.00  0.00    +0.000 A 
ATOM     17  C   UNL     1       2.793   2.286  21.489  0.00  0.00    +0.000 A 
ATOM     18  C   UNL     1       3.491   2.829  20.409  0.00  0.00    +0.000 A 
BRANCH  18  19
ATOM     19  O   UNL     1       4.838   2.623  20.293  0.00  0.00    +0.000 OA
ATOM     20  H   UNL     1       5.248   3.430  19.939  0.00  0.00    +0.000 HD
ENDBRANCH  18  19
ENDBRANCH   5  13
TORSDOF 2
ENDMDL
MODEL 3
REMARK VINA RESULT:      -7.3      2.751      6.217
REMARK  Name = 
REMARK  2 active torsions:
REMARK  status: ('A' for Active; 'I' for Inactive)
REMARK    1  A    between atoms: C_5  and  C_6
REMARK    2  A    between atoms: C_11  and  O_12
REMARK                            x       y       z     vdW  Elec       q    Type
REMARK                         _______ _______ _______ _____ _____    ______ ____
ROOT
ATOM      1  O   UNL     1       2.728   2.891  16.365  0.00  0.00    +0.000 OA
ATOM      2  C   UNL     1       3.136   3.581  17.295  0.00  0.00    +0.000 A 
ATOM      3  C   UNL     1       4.300   4.489  17.184  0.00  0.00    +0.000 A 
ATOM      4 CL   UNL     1       5.061   4.586  15.635  0.00  0.00    +0.000 Cl
ATOM      5  C   UNL     1       4.683   5.194  18.264  0.00  0.00    +0.000 A 
ATOM      6  O   UNL     1       4.069   5.127  19.507  0.00  0.00    +0.000 OA
ATOM      7  C   UNL     1       2.960   4.326  19.639  0.00  0.00    +0.000 A 
ATOM      8  C   UNL     1       2.316   4.310  20.878  0.00  0.00    +0.000 A 
ATOM      9  C   UNL     1       1.148   3.555  21.052  0.00  0.00    +0.000 A 
ATOM     10  C   UNL     1       0.637   2.800  19.995  0.00  0.00    +0.000 A 
ATOM     11  C   UNL     1       1.294   2.790  18.767  0.00  0.00    +0.000 A 
ATOM     12  C   UNL     1       2.454   3.558  18.595  0.00  0.00    +0.000 A 
ENDROOT
BRANCH   5  13
ATOM     13  C   UNL     1       5.821   6.131  18.204  0.00  0.00    +0.000 A 
ATOM     14  C   UNL     1       5.816   7.168  17.258  0.00  0.00    +0.000 A 
ATOM     15  C   UNL     1       6.960   7.942  17.049  0.00  0.00    +0.000 A 
ATOM     16  C   UNL     1       8.112   7.707  17.803  0.00  0.00    +0.000 A 
ATOM     17  C   UNL     1       8.111   6.716  18.783  0.00  0.00    +0.000 A 
ATOM     18  C   UNL     1       6.975   5.931  18.977  0.00  0.00    +0.000 A 
BRANCH  18  19
ATOM     19  O   UNL     1       6.987   4.931  19.911  0.00  0.00    +0.000 OA
ATOM     20  H   UNL     1       7.908   4.735  20.148  0.00  0.00    +0.000 HD
ENDBRANCH  18  19
ENDBRANCH   5  13
TORSDOF 2
ENDMDL
MODEL 4
REMARK VINA RESULT:      -7.2      2.215      6.072
REMARK  Name = 
REMARK  2 active torsions:
REMARK  status: ('A' for Active; 'I' for Inactive)
REMARK    1  A    between atoms: C_5  and  C_6
REMARK    2  A    between atoms: C_11  and  O_12
REMARK                            x       y       z     vdW  Elec       q    Type
REMARK                         _______ _______ _______ _____ _____    ______ ____
ROOT
ATOM      1  O   UNL     1       2.012   6.882  19.756  0.00  0.00    +0.000 OA
ATOM      2  C   UNL     1       2.707   5.942  19.382  0.00  0.00    +0.000 A 
ATOM      3  C   UNL     1       3.664   6.035  18.256  0.00  0.00    +0.000 A 
ATOM      4 CL   UNL     1       3.813   7.579  17.493  0.00  0.00    +0.000 Cl
ATOM      5  C   UNL     1       4.371   4.945  17.909  0.00  0.00    +0.000 A 
ATOM      6  O   UNL     1       4.262   3.705  18.525  0.00  0.00    +0.000 OA
ATOM      7  C   UNL     1       3.414   3.589  19.599  0.00  0.00    +0.000 A 
ATOM      8  C   UNL     1       3.355   2.354  20.248  0.00  0.00    +0.000 A 
ATOM      9  C   UNL     1       2.550   2.195  21.384  0.00  0.00    +0.000 A 
ATOM     10  C   UNL     1       1.788   3.264  21.858  0.00  0.00    +0.000 A 
ATOM     11  C   UNL     1       1.821   4.489  21.196  0.00  0.00    +0.000 A 
ATOM     12  C   UNL     1       2.639   4.646  20.068  0.00  0.00    +0.000 A 
ENDROOT
BRANCH   5  13
ATOM     13  C   UNL     1       5.355   4.987  16.810  0.00  0.00    +0.000 A 
ATOM     14  C   UNL     1       4.927   5.273  15.505  0.00  0.00    +0.000 A 
ATOM     15  C   UNL     1       5.799   5.126  14.424  0.00  0.00    +0.000 A 
ATOM     16  C   UNL     1       7.117   4.720  14.638  0.00  0.00    +0.000 A 
ATOM     17  C   UNL     1       7.571   4.486  15.935  0.00  0.00    +0.000 A 
ATOM     18  C   UNL     1       6.693   4.613  17.012  0.00  0.00    +0.000 A 
BRANCH  18  19
ATOM     19  O   UNL     1       7.126   4.344  18.282  0.00  0.00    +0.000 OA
ATOM     20  H   UNL     1       7.845   3.692  18.235  0.00  0.00    +0.000 HD
ENDBRANCH  18  19
ENDBRANCH   5  13
TORSDOF 2
ENDMDL
MODEL 5
REMARK VINA RESULT:      -7.2      2.663      6.294
REMARK  Name = 
REMARK  2 active torsions:
REMARK  status: ('A' for Active; 'I' for Inactive)
REMARK    1  A    between atoms: C_5  and  C_6
REMARK    2  A    between atoms: C_11  and  O_12
REMARK                            x       y       z     vdW  Elec       q    Type
REMARK                         _______ _______ _______ _____ _____    ______ ____
ROOT
ATOM      1  O   UNL     1       3.166   2.174  16.764  0.00  0.00    +0.000 OA
ATOM      2  C   UNL     1       3.476   3.072  17.542  0.00  0.00    +0.000 A 
ATOM      3  C   UNL     1       4.672   3.926  17.364  0.00  0.00    +0.000 A 
ATOM      4 CL   UNL     1       5.623   3.639  15.949  0.00  0.00    +0.000 Cl
ATOM      5  C   UNL     1       4.939   4.875  18.279  0.00  0.00    +0.000 A 
ATOM      6  O   UNL     1       4.173   5.115  19.412  0.00  0.00    +0.000 OA
ATOM      7  C   UNL     1       3.032   4.370  19.592  0.00  0.00    +0.000 A 
ATOM      8  C   UNL     1       2.238   4.659  20.704  0.00  0.00    +0.000 A 
ATOM      9  C   UNL     1       1.034   3.969  20.904  0.00  0.00    +0.000 A 
ATOM     10  C   UNL     1       0.636   2.977  20.007  0.00  0.00    +0.000 A 
ATOM     11  C   UNL     1       1.441   2.666  18.913  0.00  0.00    +0.000 A 
ATOM     12  C   UNL     1       2.636   3.369  18.709  0.00  0.00    +0.000 A 
ENDROOT
BRANCH   5  13
ATOM     13  C   UNL     1       6.104   5.769  18.139  0.00  0.00    +0.000 A 
ATOM     14  C   UNL     1       7.204   5.613  18.996  0.00  0.00    +0.000 A 
ATOM     15  C   UNL     1       8.228   6.564  19.016  0.00  0.00    +0.000 A 
ATOM     16  C   UNL     1       8.177   7.665  18.160  0.00  0.00    +0.000 A 
ATOM     17  C   UNL     1       7.117   7.802  17.265  0.00  0.00    +0.000 A 
ATOM     18  C   UNL     1       6.085   6.863  17.260  0.00  0.00    +0.000 A 
BRANCH  18  19
ATOM     19  O   UNL     1       5.024   7.018  16.411  0.00  0.00    +0.000 OA
ATOM     20  H   UNL     1       5.085   7.892  15.991  0.00  0.00    +0.000 HD
ENDBRANCH  18  19
ENDBRANCH   5  13
TORSDOF 2
ENDMDL
MODEL 6
REMARK VINA RESULT:      -7.1      0.852      1.558
REMARK  Name = 
REMARK  2 active torsions:
REMARK  status: ('A' for Active; 'I' for Inactive)
REMARK    1  A    between atoms: C_5  and  C_6
REMARK    2  A    between atoms: C_11  and  O_12
REMARK                            x       y       z     vdW  Elec       q    Type
REMARK                         _______ _______ _______ _____ _____    ______ ____
ROOT
ATOM      1  O   UNL     1       7.805   5.900  17.188  0.00  0.00    +0.000 OA
ATOM      2  C   UNL     1       6.855   5.243  16.771  0.00  0.00    +0.000 A 
ATOM      3  C   UNL     1       5.732   4.804  17.630  0.00  0.00    +0.000 A 
ATOM      4 CL   UNL     1       5.778   5.307  19.283  0.00  0.00    +0.000 Cl
ATOM      5  C   UNL     1       4.742   4.072  17.086  0.00  0.00    +0.000 A 
ATOM      6  O   UNL     1       4.696   3.674  15.756  0.00  0.00    +0.000 OA
ATOM      7  C   UNL     1       5.700   4.095  14.919  0.00  0.00    +0.000 A 
ATOM      8  C   UNL     1       5.614   3.738  13.572  0.00  0.00    +0.000 A 
ATOM      9  C   UNL     1       6.580   4.189  12.663  0.00  0.00    +0.000 A 
ATOM     10  C   UNL     1       7.644   4.978  13.103  0.00  0.00    +0.000 A 
ATOM     11  C   UNL     1       7.749   5.312  14.451  0.00  0.00    +0.000 A 
ATOM     12  C   UNL     1       6.772   4.870  15.354  0.00  0.00    +0.000 A 
ENDROOT
BRANCH   5  13
ATOM     13  C   UNL     1       3.587   3.628  17.888  0.00  0.00    +0.000 A 
ATOM     14  C   UNL     1       3.483   2.281  18.268  0.00  0.00    +0.000 A 
ATOM     15  C   UNL     1       2.311   1.797  18.854  0.00  0.00    +0.000 A 
ATOM     16  C   UNL     1       1.241   2.661  19.094  0.00  0.00    +0.000 A 
ATOM     17  C   UNL     1       1.352   4.013  18.772  0.00  0.00    +0.000 A 
ATOM     18  C   UNL     1       2.515   4.490  18.168  0.00  0.00    +0.000 A 
BRANCH  18  19
ATOM     19  O   UNL     1       2.610   5.808  17.814  0.00  0.00    +0.000 OA
ATOM     20  H   UNL     1       3.523   6.107  17.964  0.00  0.00    +0.000 HD
ENDBRANCH  18  19
ENDBRANCH   5  13
TORSDOF 2
ENDMDL
MODEL 7
REMARK VINA RESULT:      -7.0      2.085      2.585
REMARK  Name = 
REMARK  2 active torsions:
REMARK  status: ('A' for Active; 'I' for Inactive)
REMARK    1  A    between atoms: C_5  and  C_6
REMARK    2  A    between atoms: C_11  and  O_12
REMARK                            x       y       z     vdW  Elec       q    Type
REMARK                         _______ _______ _______ _____ _____    ______ ____
ROOT
ATOM      1  O   UNL     1       4.318   7.861  17.005  0.00  0.00    +0.000 OA
ATOM      2  C   UNL     1       4.230   6.656  17.222  0.00  0.00    +0.000 A 
ATOM      3  C   UNL     1       3.384   6.083  18.294  0.00  0.00    +0.000 A 
ATOM      4 CL   UNL     1       2.456   7.202  19.229  0.00  0.00    +0.000 Cl
ATOM      5  C   UNL     1       3.364   4.749  18.465  0.00  0.00    +0.000 A 
ATOM      6  O   UNL     1       4.100   3.846  17.711  0.00  0.00    +0.000 OA
ATOM      7  C   UNL     1       4.866   4.336  16.680  0.00  0.00    +0.000 A 
ATOM      8  C   UNL     1       5.556   3.414  15.891  0.00  0.00    +0.000 A 
ATOM      9  C   UNL     1       6.306   3.855  14.792  0.00  0.00    +0.000 A 
ATOM     10  C   UNL     1       6.384   5.216  14.495  0.00  0.00    +0.000 A 
ATOM     11  C   UNL     1       5.720   6.140  15.299  0.00  0.00    +0.000 A 
ATOM     12  C   UNL     1       4.960   5.693  16.388  0.00  0.00    +0.000 A 
ENDROOT
BRANCH   5  13
ATOM     13  C   UNL     1       2.522   4.122  19.502  0.00  0.00    +0.000 A 
ATOM     14  C   UNL     1       2.899   4.214  20.851  0.00  0.00    +0.000 A 
ATOM     15  C   UNL     1       2.233   3.468  21.826  0.00  0.00    +0.000 A 
ATOM     16  C   UNL     1       1.164   2.645  21.469  0.00  0.00    +0.000 A 
ATOM     17  C   UNL     1       0.744   2.587  20.141  0.00  0.00    +0.000 A 
ATOM     18  C   UNL     1       1.423   3.317  19.165  0.00  0.00    +0.000 A 
BRANCH  18  19
ATOM     19  O   UNL     1       1.039   3.230  17.855  0.00  0.00    +0.000 OA
ATOM     20  H   UNL     1       0.384   2.517  17.768  0.00  0.00    +0.000 HD
ENDBRANCH  18  19
ENDBRANCH   5  13
TORSDOF 2
ENDMDL
MODEL 8
REMARK VINA RESULT:      -7.0      3.453      4.914
REMARK  Name = 
REMARK  2 active torsions:
REMARK  status: ('A' for Active; 'I' for Inactive)
REMARK    1  A    between atoms: C_5  and  C_6
REMARK    2  A    between atoms: C_11  and  O_12
REMARK                            x       y       z     vdW  Elec       q    Type
REMARK                         _______ _______ _______ _____ _____    ______ ____
ROOT
ATOM      1  O   UNL     1       2.794   3.045  18.353  0.00  0.00    +0.000 OA
ATOM      2  C   UNL     1       3.053   4.233  18.186  0.00  0.00    +0.000 A 
ATOM      3  C   UNL     1       2.374   5.324  18.923  0.00  0.00    +0.000 A 
ATOM      4 CL   UNL     1       1.202   4.849  20.101  0.00  0.00    +0.000 Cl
ATOM      5  C   UNL     1       2.714   6.599  18.660  0.00  0.00    +0.000 A 
ATOM      6  O   UNL     1       3.662   6.985  17.721  0.00  0.00    +0.000 OA
ATOM      7  C   UNL     1       4.342   6.000  17.046  0.00  0.00    +0.000 A 
ATOM      8  C   UNL     1       5.334   6.398  16.147  0.00  0.00    +0.000 A 
ATOM      9  C   UNL     1       6.097   5.434  15.474  0.00  0.00    +0.000 A 
ATOM     10  C   UNL     1       5.856   4.076  15.683  0.00  0.00    +0.000 A 
ATOM     11  C   UNL     1       4.847   3.676  16.557  0.00  0.00    +0.000 A 
ATOM     12  C   UNL     1       4.096   4.643  17.238  0.00  0.00    +0.000 A 
ENDROOT
BRANCH   5  13
ATOM     13  C   UNL     1       2.087   7.723  19.380  0.00  0.00    +0.000 A 
ATOM     14  C   UNL     1       1.808   7.600  20.750  0.00  0.00    +0.000 A 
ATOM     15  C   UNL     1       1.042   8.566  21.407  0.00  0.00    +0.000 A 
ATOM     16  C   UNL     1       0.570   9.679  20.710  0.00  0.00    +0.000 A 
ATOM     17  C   UNL     1       0.888   9.841  19.362  0.00  0.00    +0.000 A 
ATOM     18  C   UNL     1       1.636   8.866  18.702  0.00  0.00    +0.000 A 
BRANCH  18  19
ATOM     19  O   UNL     1       1.913   9.003  17.369  0.00  0.00    +0.000 OA
ATOM     20  H   UNL     1       1.600   8.210  16.902  0.00  0.00    +0.000 HD
ENDBRANCH  18  19
ENDBRANCH   5  13
TORSDOF 2
ENDMDL
MODEL 9
REMARK VINA RESULT:      -6.8      3.163      6.272
REMARK  Name = 
REMARK  2 active torsions:
REMARK  status: ('A' for Active; 'I' for Inactive)
REMARK    1  A    between atoms: C_5  and  C_6
REMARK    2  A    between atoms: C_11  and  O_12
REMARK                            x       y       z     vdW  Elec       q    Type
REMARK                         _______ _______ _______ _____ _____    ______ ____
ROOT
ATOM      1  O   UNL     1       2.349   5.613  20.905  0.00  0.00    +0.000 OA
ATOM      2  C   UNL     1       2.707   6.137  19.853  0.00  0.00    +0.000 A 
ATOM      3  C   UNL     1       3.640   5.493  18.901  0.00  0.00    +0.000 A 
ATOM      4 CL   UNL     1       4.188   3.905  19.309  0.00  0.00    +0.000 Cl
ATOM      5  C   UNL     1       3.987   6.152  17.781  0.00  0.00    +0.000 A 
ATOM      6  O   UNL     1       3.542   7.423  17.444  0.00  0.00    +0.000 OA
ATOM      7  C   UNL     1       2.643   8.037  18.283  0.00  0.00    +0.000 A 
ATOM      8  C   UNL     1       2.157   9.291  17.906  0.00  0.00    +0.000 A 
ATOM      9  C   UNL     1       1.196   9.937  18.695  0.00  0.00    +0.000 A 
ATOM     10  C   UNL     1       0.737   9.341  19.871  0.00  0.00    +0.000 A 
ATOM     11  C   UNL     1       1.242   8.104  20.265  0.00  0.00    +0.000 A 
ATOM     12  C   UNL     1       2.192   7.455  19.465  0.00  0.00    +0.000 A 
ENDROOT
BRANCH   5  13
ATOM     13  C   UNL     1       4.894   5.548  16.786  0.00  0.00    +0.000 A 
ATOM     14  C   UNL     1       4.565   4.314  16.206  0.00  0.00    +0.000 A 
ATOM     15  C   UNL     1       5.494   3.631  15.417  0.00  0.00    +0.000 A 
ATOM     16  C   UNL     1       6.750   4.188  15.175  0.00  0.00    +0.000 A 
ATOM     17  C   UNL     1       7.070   5.440  15.700  0.00  0.00    +0.000 A 
ATOM     18  C   UNL     1       6.149   6.111  16.505  0.00  0.00    +0.000 A 
BRANCH  18  19
ATOM     19  O   UNL     1       6.476   7.320  17.054  0.00  0.00    +0.000 OA
ATOM     20  H   UNL     1       7.146   7.179  17.744  0.00  0.00    +0.000 HD
ENDBRANCH  18  19
ENDBRANCH   5  13
TORSDOF 2
ENDMDL
