MODEL 1
REMARK VINA RESULT:      -7.3      0.000      0.000
REMARK  Name = 
REMARK  8 active torsions:
REMARK  status: ('A' for Active; 'I' for Inactive)
REMARK    1  A    between atoms: C_1  and  O_2
REMARK    2  A    between atoms: O_2  and  C_3
REMARK    3  A    between atoms: N_10  and  C_11
REMARK    4  A    between atoms: C_11  and  C_12
REMARK    5  A    between atoms: N_14  and  C_15
REMARK    6  A    between atoms: C_15  and  C_16
REMARK    7  A    between atoms: C_15  and  C_17
REMARK    8  A    between atoms: C_20  and  C_21
REMARK                            x       y       z     vdW  Elec       q    Type
REMARK                         _______ _______ _______ _____ _____    ______ ____
ROOT
ATOM      1  C   UNL     1       3.010   4.120  18.914  0.00  0.00    +0.000 C 
ENDROOT
BRANCH   1   9
ATOM      2  C   UNL     1       1.529   9.443  19.190  0.00  0.00    +0.000 A 
ATOM      3  C   UNL     1       1.075  10.029  20.381  0.00  0.00    +0.000 A 
ATOM      4  C   UNL     1       0.893   9.252  21.526  0.00  0.00    +0.000 A 
ATOM      5  C   UNL     1       1.151   7.886  21.486  0.00  0.00    +0.000 A 
ATOM      6  C   UNL     1       1.610   7.309  20.297  0.00  0.00    +0.000 A 
ATOM      7  C   UNL     1       1.911   5.881  20.210  0.00  0.00    +0.000 A 
ATOM      8  O   UNL     1       1.664   5.128  21.151  0.00  0.00    +0.000 OA
ATOM      9  N   UNL     1       2.498   5.474  19.034  0.00  0.00    +0.000 N 
ATOM     10  N   UNL     1       2.685   6.288  17.957  0.00  0.00    +0.000 NA
ATOM     11  N   UNL     1       2.337   7.489  17.975  0.00  0.00    +0.000 NA
ATOM     12  C   UNL     1       1.828   8.063  19.151  0.00  0.00    +0.000 A 
BRANCH   2  14
ATOM     13  C   UNL     1       2.184  11.478  18.115  0.00  0.00    +0.000 C 
ATOM     14  O   UNL     1       1.719  10.136  18.018  0.00  0.00    +0.000 OA
ENDBRANCH   2  14
ENDBRANCH   1   9
BRANCH   1  15
ATOM     15  C   UNL     1       4.523   4.066  18.726  0.00  0.00    +0.000 C 
ATOM     16  O   UNL     1       5.265   3.572  19.574  0.00  0.00    +0.000 OA
ATOM     17  N   UNL     1       4.980   4.575  17.525  0.00  0.00    +0.000 N 
ATOM     18  H   UNL     1       4.379   5.235  17.038  0.00  0.00    +0.000 HD
BRANCH  17  19
ATOM     19  C   UNL     1       6.400   4.547  17.194  0.00  0.00    +0.000 C 
ATOM     20  C   UNL     1       6.626   4.217  15.717  0.00  0.00    +0.000 C 
BRANCH  19  21
ATOM     21  C   UNL     1       7.091   5.838  17.587  0.00  0.00    +0.000 A 
ATOM     22  C   UNL     1       7.851   5.880  18.766  0.00  0.00    +0.000 A 
ATOM     23  C   UNL     1       8.463   7.064  19.184  0.00  0.00    +0.000 A 
ATOM     24  C   UNL     1       8.323   8.233  18.433  0.00  0.00    +0.000 A 
ATOM     25  C   UNL     1       8.913   9.525  18.908  0.00  0.00    +0.000 C 
ATOM     26  C   UNL     1       7.597   8.190  17.237  0.00  0.00    +0.000 A 
ATOM     27  C   UNL     1       6.985   7.005  16.818  0.00  0.00    +0.000 A 
ENDBRANCH  19  21
ENDBRANCH  17  19
ENDBRANCH   1  15
TORSDOF 5
ENDMDL
MODEL 2
REMARK VINA RESULT:      -7.0      2.972      7.713
REMARK  Name = 
REMARK  8 active torsions:
REMARK  status: ('A' for Active; 'I' for Inactive)
REMARK    1  A    between atoms: C_1  and  O_2
REMARK    2  A    between atoms: O_2  and  C_3
REMARK    3  A    between atoms: N_10  and  C_11
REMARK    4  A    between atoms: C_11  and  C_12
REMARK    5  A    between atoms: N_14  and  C_15
REMARK    6  A    between atoms: C_15  and  C_16
REMARK    7  A    between atoms: C_15  and  C_17
REMARK    8  A    between atoms: C_20  and  C_21
REMARK                            x       y       z     vdW  Elec       q    Type
REMARK                         _______ _______ _______ _____ _____    ______ ____
ROOT
ATOM      1  C   UNL     1       1.161   7.199  21.166  0.00  0.00    +0.000 C 
ENDROOT
BRANCH   1   9
ATOM      2  C   UNL     1       4.225   5.050  17.092  0.00  0.00    +0.000 A 
ATOM      3  C   UNL     1       4.342   3.665  16.900  0.00  0.00    +0.000 A 
ATOM      4  C   UNL     1       3.756   2.774  17.800  0.00  0.00    +0.000 A 
ATOM      5  C   UNL     1       3.060   3.259  18.902  0.00  0.00    +0.000 A 
ATOM      6  C   UNL     1       2.941   4.641  19.084  0.00  0.00    +0.000 A 
ATOM      7  C   UNL     1       2.205   5.199  20.218  0.00  0.00    +0.000 A 
ATOM      8  O   UNL     1       1.764   4.467  21.103  0.00  0.00    +0.000 OA
ATOM      9  N   UNL     1       2.035   6.564  20.195  0.00  0.00    +0.000 N 
ATOM     10  N   UNL     1       2.603   7.385  19.266  0.00  0.00    +0.000 NA
ATOM     11  N   UNL     1       3.323   6.936  18.348  0.00  0.00    +0.000 NA
ATOM     12  C   UNL     1       3.489   5.550  18.189  0.00  0.00    +0.000 A 
BRANCH   2  14
ATOM     13  C   UNL     1       5.615   5.522  15.203  0.00  0.00    +0.000 C 
ATOM     14  O   UNL     1       4.785   5.990  16.259  0.00  0.00    +0.000 OA
ENDBRANCH   2  14
ENDBRANCH   1   9
BRANCH   1  15
ATOM     15  C   UNL     1       1.035   8.706  20.965  0.00  0.00    +0.000 C 
ATOM     16  O   UNL     1       1.483   9.509  21.782  0.00  0.00    +0.000 OA
ATOM     17  N   UNL     1       0.420   9.087  19.788  0.00  0.00    +0.000 N 
ATOM     18  H   UNL     1      -0.192   8.410  19.338  0.00  0.00    +0.000 HD
BRANCH  17  19
ATOM     19  C   UNL     1       0.271  10.498  19.445  0.00  0.00    +0.000 C 
ATOM     20  C   UNL     1       1.441  10.995  18.594  0.00  0.00    +0.000 C 
BRANCH  19  21
ATOM     21  C   UNL     1      -1.061  10.772  18.775  0.00  0.00    +0.000 A 
ATOM     22  C   UNL     1      -1.945  11.695  19.353  0.00  0.00    +0.000 A 
ATOM     23  C   UNL     1      -3.199  11.939  18.788  0.00  0.00    +0.000 A 
ATOM     24  C   UNL     1      -3.598  11.259  17.635  0.00  0.00    +0.000 A 
ATOM     25  C   UNL     1      -4.967  11.458  17.063  0.00  0.00    +0.000 C 
ATOM     26  C   UNL     1      -2.707  10.363  17.032  0.00  0.00    +0.000 A 
ATOM     27  C   UNL     1      -1.451  10.120  17.596  0.00  0.00    +0.000 A 
ENDBRANCH  19  21
ENDBRANCH  17  19
ENDBRANCH   1  15
TORSDOF 5
ENDMDL
MODEL 3
REMARK VINA RESULT:      -6.9      1.424      2.267
REMARK  Name = 
REMARK  8 active torsions:
REMARK  status: ('A' for Active; 'I' for Inactive)
REMARK    1  A    between atoms: C_1  and  O_2
REMARK    2  A    between atoms: O_2  and  C_3
REMARK    3  A    between atoms: N_10  and  C_11
REMARK    4  A    between atoms: C_11  and  C_12
REMARK    5  A    between atoms: N_14  and  C_15
REMARK    6  A    between atoms: C_15  and  C_16
REMARK    7  A    between atoms: C_15  and  C_17
REMARK    8  A    between atoms: C_20  and  C_21
REMARK                            x       y       z     vdW  Elec       q    Type
REMARK                         _______ _______ _______ _____ _____    ______ ____
ROOT
ATOM      1  C   UNL     1       2.827   4.940  18.312  0.00  0.00    +0.000 C 
ENDROOT
BRANCH   1   9
ATOM      2  C   UNL     1       0.754   9.333  20.958  0.00  0.00    +0.000 A 
ATOM      3  C   UNL     1       0.566  10.567  20.318  0.00  0.00    +0.000 A 
ATOM      4  C   UNL     1       0.988  10.753  19.001  0.00  0.00    +0.000 A 
ATOM      5  C   UNL     1       1.611   9.712  18.319  0.00  0.00    +0.000 A 
ATOM      6  C   UNL     1       1.789   8.482  18.961  0.00  0.00    +0.000 A 
ATOM      7  C   UNL     1       2.423   7.353  18.281  0.00  0.00    +0.000 A 
ATOM      8  O   UNL     1       2.916   7.490  17.161  0.00  0.00    +0.000 OA
ATOM      9  N   UNL     1       2.398   6.162  18.969  0.00  0.00    +0.000 N 
ATOM     10  N   UNL     1       1.938   6.032  20.246  0.00  0.00    +0.000 NA
ATOM     11  N   UNL     1       1.488   7.009  20.883  0.00  0.00    +0.000 NA
ATOM     12  C   UNL     1       1.353   8.261  20.260  0.00  0.00    +0.000 A 
BRANCH   2  14
ATOM     13  C   UNL     1      -0.385  10.072  22.928  0.00  0.00    +0.000 C 
ATOM     14  O   UNL     1       0.380   9.078  22.256  0.00  0.00    +0.000 OA
ENDBRANCH   2  14
ENDBRANCH   1   9
BRANCH   1  15
ATOM     15  C   UNL     1       4.339   4.738  18.346  0.00  0.00    +0.000 C 
ATOM     16  O   UNL     1       4.894   4.144  19.269  0.00  0.00    +0.000 OA
ATOM     17  N   UNL     1       5.018   5.237  17.250  0.00  0.00    +0.000 N 
ATOM     18  H   UNL     1       4.563   5.971  16.712  0.00  0.00    +0.000 HD
BRANCH  17  19
ATOM     19  C   UNL     1       6.463   5.076  17.130  0.00  0.00    +0.000 C 
ATOM     20  C   UNL     1       6.868   4.688  15.706  0.00  0.00    +0.000 C 
BRANCH  19  21
ATOM     21  C   UNL     1       7.203   6.312  17.602  0.00  0.00    +0.000 A 
ATOM     22  C   UNL     1       7.949   6.256  18.789  0.00  0.00    +0.000 A 
ATOM     23  C   UNL     1       8.606   7.387  19.278  0.00  0.00    +0.000 A 
ATOM     24  C   UNL     1       8.527   8.601  18.592  0.00  0.00    +0.000 A 
ATOM     25  C   UNL     1       9.167   9.838  19.144  0.00  0.00    +0.000 C 
ATOM     26  C   UNL     1       7.815   8.656  17.388  0.00  0.00    +0.000 A 
ATOM     27  C   UNL     1       7.158   7.523  16.897  0.00  0.00    +0.000 A 
ENDBRANCH  19  21
ENDBRANCH  17  19
ENDBRANCH   1  15
TORSDOF 5
ENDMDL
MODEL 4
REMARK VINA RESULT:      -6.9      2.693      7.449
REMARK  Name = 
REMARK  8 active torsions:
REMARK  status: ('A' for Active; 'I' for Inactive)
REMARK    1  A    between atoms: C_1  and  O_2
REMARK    2  A    between atoms: O_2  and  C_3
REMARK    3  A    between atoms: N_10  and  C_11
REMARK    4  A    between atoms: C_11  and  C_12
REMARK    5  A    between atoms: N_14  and  C_15
REMARK    6  A    between atoms: C_15  and  C_16
REMARK    7  A    between atoms: C_15  and  C_17
REMARK    8  A    between atoms: C_20  and  C_21
REMARK                            x       y       z     vdW  Elec       q    Type
REMARK                         _______ _______ _______ _____ _____    ______ ____
ROOT
ATOM      1  C   UNL     1       6.033   4.597  18.090  0.00  0.00    +0.000 C 
ENDROOT
BRANCH   1   9
ATOM      2  C   UNL     1       6.329   3.708  12.638  0.00  0.00    +0.000 A 
ATOM      3  C   UNL     1       7.256   4.376  11.824  0.00  0.00    +0.000 A 
ATOM      4  C   UNL     1       8.079   5.368  12.357  0.00  0.00    +0.000 A 
ATOM      5  C   UNL     1       7.976   5.707  13.703  0.00  0.00    +0.000 A 
ATOM      6  C   UNL     1       7.055   5.031  14.511  0.00  0.00    +0.000 A 
ATOM      7  C   UNL     1       6.920   5.339  15.933  0.00  0.00    +0.000 A 
ATOM      8  O   UNL     1       7.538   6.279  16.435  0.00  0.00    +0.000 OA
ATOM      9  N   UNL     1       6.091   4.501  16.642  0.00  0.00    +0.000 N 
ATOM     10  N   UNL     1       5.335   3.520  16.071  0.00  0.00    +0.000 NA
ATOM     11  N   UNL     1       5.357   3.310  14.838  0.00  0.00    +0.000 NA
ATOM     12  C   UNL     1       6.244   4.020  14.013  0.00  0.00    +0.000 A 
BRANCH   2  14
ATOM     13  C   UNL     1       4.349   3.145  11.419  0.00  0.00    +0.000 C 
ATOM     14  O   UNL     1       5.474   2.731  12.184  0.00  0.00    +0.000 OA
ENDBRANCH   2  14
ENDBRANCH   1   9
BRANCH   1  15
ATOM     15  C   UNL     1       4.609   4.569  18.637  0.00  0.00    +0.000 C 
ATOM     16  O   UNL     1       4.061   3.519  18.967  0.00  0.00    +0.000 OA
ATOM     17  N   UNL     1       4.010   5.808  18.765  0.00  0.00    +0.000 N 
ATOM     18  H   UNL     1       4.375   6.566  18.193  0.00  0.00    +0.000 HD
BRANCH  17  19
ATOM     19  C   UNL     1       2.665   5.934  19.316  0.00  0.00    +0.000 C 
ATOM     20  C   UNL     1       2.598   5.419  20.755  0.00  0.00    +0.000 C 
BRANCH  19  21
ATOM     21  C   UNL     1       2.148   7.355  19.208  0.00  0.00    +0.000 A 
ATOM     22  C   UNL     1       1.570   7.964  20.333  0.00  0.00    +0.000 A 
ATOM     23  C   UNL     1       1.042   9.255  20.258  0.00  0.00    +0.000 A 
ATOM     24  C   UNL     1       1.076   9.963  19.055  0.00  0.00    +0.000 A 
ATOM     25  C   UNL     1       0.449  11.318  18.944  0.00  0.00    +0.000 C 
ATOM     26  C   UNL     1       1.684   9.376  17.938  0.00  0.00    +0.000 A 
ATOM     27  C   UNL     1       2.214   8.084  18.013  0.00  0.00    +0.000 A 
ENDBRANCH  19  21
ENDBRANCH  17  19
ENDBRANCH   1  15
TORSDOF 5
ENDMDL
MODEL 5
REMARK VINA RESULT:      -6.9      3.504      8.348
REMARK  Name = 
REMARK  8 active torsions:
REMARK  status: ('A' for Active; 'I' for Inactive)
REMARK    1  A    between atoms: C_1  and  O_2
REMARK    2  A    between atoms: O_2  and  C_3
REMARK    3  A    between atoms: N_10  and  C_11
REMARK    4  A    between atoms: C_11  and  C_12
REMARK    5  A    between atoms: N_14  and  C_15
REMARK    6  A    between atoms: C_15  and  C_16
REMARK    7  A    between atoms: C_15  and  C_17
REMARK    8  A    between atoms: C_20  and  C_21
REMARK                            x       y       z     vdW  Elec       q    Type
REMARK                         _______ _______ _______ _____ _____    ______ ____
ROOT
ATOM      1  C   UNL     1       1.554   9.196  20.619  0.00  0.00    +0.000 C 
ENDROOT
BRANCH   1   9
ATOM      2  C   UNL     1       2.855   4.040  19.092  0.00  0.00    +0.000 A 
ATOM      3  C   UNL     1       3.626   3.774  17.951  0.00  0.00    +0.000 A 
ATOM      4  C   UNL     1       4.015   4.811  17.102  0.00  0.00    +0.000 A 
ATOM      5  C   UNL     1       3.628   6.118  17.381  0.00  0.00    +0.000 A 
ATOM      6  C   UNL     1       2.865   6.378  18.525  0.00  0.00    +0.000 A 
ATOM      7  C   UNL     1       2.448   7.736  18.870  0.00  0.00    +0.000 A 
ATOM      8  O   UNL     1       2.664   8.674  18.104  0.00  0.00    +0.000 OA
ATOM      9  N   UNL     1       1.836   7.870  20.095  0.00  0.00    +0.000 N 
ATOM     10  N   UNL     1       1.512   6.820  20.902  0.00  0.00    +0.000 NA
ATOM     11  N   UNL     1       1.767   5.640  20.576  0.00  0.00    +0.000 NA
ATOM     12  C   UNL     1       2.489   5.369  19.402  0.00  0.00    +0.000 A 
BRANCH   2  14
ATOM     13  C   UNL     1       1.507   2.100  19.472  0.00  0.00    +0.000 C 
ATOM     14  O   UNL     1       2.421   3.072  19.967  0.00  0.00    +0.000 OA
ENDBRANCH   2  14
ENDBRANCH   1   9
BRANCH   1  15
ATOM     15  C   UNL     1       0.068   9.540  20.612  0.00  0.00    +0.000 C 
ATOM     16  O   UNL     1      -0.733   8.976  21.355  0.00  0.00    +0.000 OA
ATOM     17  N   UNL     1      -0.291  10.551  19.740  0.00  0.00    +0.000 N 
ATOM     18  H   UNL     1       0.330  10.736  18.957  0.00  0.00    +0.000 HD
BRANCH  17  19
ATOM     19  C   UNL     1      -1.673  11.013  19.661  0.00  0.00    +0.000 C 
ATOM     20  C   UNL     1      -1.797  12.482  20.069  0.00  0.00    +0.000 C 
BRANCH  19  21
ATOM     21  C   UNL     1      -2.266  10.765  18.288  0.00  0.00    +0.000 A 
ATOM     22  C   UNL     1      -1.614   9.892  17.404  0.00  0.00    +0.000 A 
ATOM     23  C   UNL     1      -2.107   9.675  16.116  0.00  0.00    +0.000 A 
ATOM     24  C   UNL     1      -3.261  10.330  15.682  0.00  0.00    +0.000 A 
ATOM     25  C   UNL     1      -3.758  10.162  14.279  0.00  0.00    +0.000 C 
ATOM     26  C   UNL     1      -3.938  11.174  16.571  0.00  0.00    +0.000 A 
ATOM     27  C   UNL     1      -3.446  11.391  17.861  0.00  0.00    +0.000 A 
ENDBRANCH  19  21
ENDBRANCH  17  19
ENDBRANCH   1  15
TORSDOF 5
ENDMDL
MODEL 6
REMARK VINA RESULT:      -6.8      3.638      8.456
REMARK  Name = 
REMARK  8 active torsions:
REMARK  status: ('A' for Active; 'I' for Inactive)
REMARK    1  A    between atoms: C_1  and  O_2
REMARK    2  A    between atoms: O_2  and  C_3
REMARK    3  A    between atoms: N_10  and  C_11
REMARK    4  A    between atoms: C_11  and  C_12
REMARK    5  A    between atoms: N_14  and  C_15
REMARK    6  A    between atoms: C_15  and  C_16
REMARK    7  A    between atoms: C_15  and  C_17
REMARK    8  A    between atoms: C_20  and  C_21
REMARK                            x       y       z     vdW  Elec       q    Type
REMARK                         _______ _______ _______ _____ _____    ______ ____
ROOT
ATOM      1  C   UNL     1       1.461   9.406  20.340  0.00  0.00    +0.000 C 
ENDROOT
BRANCH   1   9
ATOM      2  C   UNL     1       3.013   4.213  19.232  0.00  0.00    +0.000 A 
ATOM      3  C   UNL     1       3.793   3.892  18.111  0.00  0.00    +0.000 A 
ATOM      4  C   UNL     1       4.127   4.874  17.178  0.00  0.00    +0.000 A 
ATOM      5  C   UNL     1       3.676   6.179  17.351  0.00  0.00    +0.000 A 
ATOM      6  C   UNL     1       2.905   6.494  18.475  0.00  0.00    +0.000 A 
ATOM      7  C   UNL     1       2.421   7.853  18.711  0.00  0.00    +0.000 A 
ATOM      8  O   UNL     1       2.588   8.735  17.868  0.00  0.00    +0.000 OA
ATOM      9  N   UNL     1       1.807   8.058  19.925  0.00  0.00    +0.000 N 
ATOM     10  N   UNL     1       1.539   7.063  20.817  0.00  0.00    +0.000 NA
ATOM     11  N   UNL     1       1.851   5.875  20.587  0.00  0.00    +0.000 NA
ATOM     12  C   UNL     1       2.582   5.543  19.435  0.00  0.00    +0.000 A 
BRANCH   2  14
ATOM     13  C   UNL     1       1.574   2.407  19.857  0.00  0.00    +0.000 C 
ATOM     14  O   UNL     1       2.631   3.301  20.187  0.00  0.00    +0.000 OA
ENDBRANCH   2  14
ENDBRANCH   1   9
BRANCH   1  15
ATOM     15  C   UNL     1      -0.038   9.682  20.294  0.00  0.00    +0.000 C 
ATOM     16  O   UNL     1      -0.832   9.078  21.014  0.00  0.00    +0.000 OA
ATOM     17  N   UNL     1      -0.421  10.680  19.417  0.00  0.00    +0.000 N 
ATOM     18  H   UNL     1       0.211  10.897  18.651  0.00  0.00    +0.000 HD
BRANCH  17  19
ATOM     19  C   UNL     1      -1.820  11.077  19.303  0.00  0.00    +0.000 C 
ATOM     20  C   UNL     1      -2.026  12.533  19.726  0.00  0.00    +0.000 C 
BRANCH  19  21
ATOM     21  C   UNL     1      -2.361  10.821  17.910  0.00  0.00    +0.000 A 
ATOM     22  C   UNL     1      -3.525  11.484  17.491  0.00  0.00    +0.000 A 
ATOM     23  C   UNL     1      -4.078  11.237  16.233  0.00  0.00    +0.000 A 
ATOM     24  C   UNL     1      -3.481  10.318  15.368  0.00  0.00    +0.000 A 
ATOM     25  C   UNL     1      -4.105   9.991  14.046  0.00  0.00    +0.000 C 
ATOM     26  C   UNL     1      -2.299   9.680  15.764  0.00  0.00    +0.000 A 
ATOM     27  C   UNL     1      -1.745   9.927  17.024  0.00  0.00    +0.000 A 
ENDBRANCH  19  21
ENDBRANCH  17  19
ENDBRANCH   1  15
TORSDOF 5
ENDMDL
MODEL 7
REMARK VINA RESULT:      -6.8      2.784      7.506
REMARK  Name = 
REMARK  8 active torsions:
REMARK  status: ('A' for Active; 'I' for Inactive)
REMARK    1  A    between atoms: C_1  and  O_2
REMARK    2  A    between atoms: O_2  and  C_3
REMARK    3  A    between atoms: N_10  and  C_11
REMARK    4  A    between atoms: C_11  and  C_12
REMARK    5  A    between atoms: N_14  and  C_15
REMARK    6  A    between atoms: C_15  and  C_16
REMARK    7  A    between atoms: C_15  and  C_17
REMARK    8  A    between atoms: C_20  and  C_21
REMARK                            x       y       z     vdW  Elec       q    Type
REMARK                         _______ _______ _______ _____ _____    ______ ____
ROOT
ATOM      1  C   UNL     1       1.242   7.126  21.295  0.00  0.00    +0.000 C 
ENDROOT
BRANCH   1   9
ATOM      2  C   UNL     1       3.953   4.700  17.126  0.00  0.00    +0.000 A 
ATOM      3  C   UNL     1       3.713   3.368  16.758  0.00  0.00    +0.000 A 
ATOM      4  C   UNL     1       2.838   2.575  17.502  0.00  0.00    +0.000 A 
ATOM      5  C   UNL     1       2.207   3.102  18.624  0.00  0.00    +0.000 A 
ATOM      6  C   UNL     1       2.445   4.434  18.981  0.00  0.00    +0.000 A 
ATOM      7  C   UNL     1       1.793   5.039  20.142  0.00  0.00    +0.000 A 
ATOM      8  O   UNL     1       1.100   4.359  20.899  0.00  0.00    +0.000 OA
ATOM      9  N   UNL     1       1.994   6.391  20.291  0.00  0.00    +0.000 N 
ATOM     10  N   UNL     1       2.835   7.125  19.509  0.00  0.00    +0.000 NA
ATOM     11  N   UNL     1       3.483   6.604  18.576  0.00  0.00    +0.000 NA
ATOM     12  C   UNL     1       3.287   5.254  18.242  0.00  0.00    +0.000 A 
BRANCH   2  14
ATOM     13  C   UNL     1       6.188   5.186  16.425  0.00  0.00    +0.000 C 
ATOM     14  O   UNL     1       4.810   5.539  16.454  0.00  0.00    +0.000 OA
ENDBRANCH   2  14
ENDBRANCH   1   9
BRANCH   1  15
ATOM     15  C   UNL     1       1.076   8.604  20.956  0.00  0.00    +0.000 C 
ATOM     16  O   UNL     1       1.103   9.475  21.824  0.00  0.00    +0.000 OA
ATOM     17  N   UNL     1       0.933   8.881  19.610  0.00  0.00    +0.000 N 
ATOM     18  H   UNL     1       0.602   8.129  19.010  0.00  0.00    +0.000 HD
BRANCH  17  19
ATOM     19  C   UNL     1       0.808  10.256  19.139  0.00  0.00    +0.000 C 
ATOM     20  C   UNL     1       1.842  10.575  18.058  0.00  0.00    +0.000 C 
BRANCH  19  21
ATOM     21  C   UNL     1      -0.601  10.560  18.669  0.00  0.00    +0.000 A 
ATOM     22  C   UNL     1      -1.109   9.893  17.544  0.00  0.00    +0.000 A 
ATOM     23  C   UNL     1      -2.386  10.180  17.055  0.00  0.00    +0.000 A 
ATOM     24  C   UNL     1      -3.179  11.145  17.678  0.00  0.00    +0.000 A 
ATOM     25  C   UNL     1      -4.519  11.514  17.120  0.00  0.00    +0.000 C 
ATOM     26  C   UNL     1      -2.693  11.789  18.823  0.00  0.00    +0.000 A 
ATOM     27  C   UNL     1      -1.416  11.500  19.314  0.00  0.00    +0.000 A 
ENDBRANCH  19  21
ENDBRANCH  17  19
ENDBRANCH   1  15
TORSDOF 5
ENDMDL
MODEL 8
REMARK VINA RESULT:      -6.7      5.692      8.284
REMARK  Name = 
REMARK  8 active torsions:
REMARK  status: ('A' for Active; 'I' for Inactive)
REMARK    1  A    between atoms: C_1  and  O_2
REMARK    2  A    between atoms: O_2  and  C_3
REMARK    3  A    between atoms: N_10  and  C_11
REMARK    4  A    between atoms: C_11  and  C_12
REMARK    5  A    between atoms: N_14  and  C_15
REMARK    6  A    between atoms: C_15  and  C_16
REMARK    7  A    between atoms: C_15  and  C_17
REMARK    8  A    between atoms: C_20  and  C_21
REMARK                            x       y       z     vdW  Elec       q    Type
REMARK                         _______ _______ _______ _____ _____    ______ ____
ROOT
ATOM      1  C   UNL     1      -1.971  11.680  17.824  0.00  0.00    +0.000 C 
ENDROOT
BRANCH   1   9
ATOM      2  C   UNL     1      -6.009  12.554  21.504  0.00  0.00    +0.000 A 
ATOM      3  C   UNL     1      -7.320  12.101  21.292  0.00  0.00    +0.000 A 
ATOM      4  C   UNL     1      -7.671  11.490  20.088  0.00  0.00    +0.000 A 
ATOM      5  C   UNL     1      -6.720  11.337  19.084  0.00  0.00    +0.000 A 
ATOM      6  C   UNL     1      -5.413  11.784  19.305  0.00  0.00    +0.000 A 
ATOM      7  C   UNL     1      -4.374  11.630  18.287  0.00  0.00    +0.000 A 
ATOM      8  O   UNL     1      -4.650  11.202  17.167  0.00  0.00    +0.000 OA
ATOM      9  N   UNL     1      -3.103  11.971  18.688  0.00  0.00    +0.000 N 
ATOM     10  N   UNL     1      -2.812  12.533  19.895  0.00  0.00    +0.000 NA
ATOM     11  N   UNL     1      -3.703  12.770  20.740  0.00  0.00    +0.000 NA
ATOM     12  C   UNL     1      -5.029  12.369  20.504  0.00  0.00    +0.000 A 
BRANCH   2  14
ATOM     13  C   UNL     1      -6.271  12.858  23.862  0.00  0.00    +0.000 C 
ATOM     14  O   UNL     1      -5.589  13.178  22.655  0.00  0.00    +0.000 OA
ENDBRANCH   2  14
ENDBRANCH   1   9
BRANCH   1  15
ATOM     15  C   UNL     1      -0.675  11.442  18.593  0.00  0.00    +0.000 C 
ATOM     16  O   UNL     1       0.243  12.260  18.584  0.00  0.00    +0.000 OA
ATOM     17  N   UNL     1      -0.637  10.268  19.321  0.00  0.00    +0.000 N 
ATOM     18  H   UNL     1      -1.262   9.519  19.034  0.00  0.00    +0.000 HD
BRANCH  17  19
ATOM     19  C   UNL     1       0.525   9.933  20.138  0.00  0.00    +0.000 C 
ATOM     20  C   UNL     1       0.117   9.547  21.561  0.00  0.00    +0.000 C 
BRANCH  19  21
ATOM     21  C   UNL     1       1.372   8.856  19.490  0.00  0.00    +0.000 A 
ATOM     22  C   UNL     1       1.700   7.705  20.222  0.00  0.00    +0.000 A 
ATOM     23  C   UNL     1       2.516   6.713  19.673  0.00  0.00    +0.000 A 
ATOM     24  C   UNL     1       3.027   6.855  18.381  0.00  0.00    +0.000 A 
ATOM     25  C   UNL     1       3.961   5.834  17.809  0.00  0.00    +0.000 C 
ATOM     26  C   UNL     1       2.674   7.983  17.631  0.00  0.00    +0.000 A 
ATOM     27  C   UNL     1       1.856   8.976  18.179  0.00  0.00    +0.000 A 
ENDBRANCH  19  21
ENDBRANCH  17  19
ENDBRANCH   1  15
TORSDOF 5
ENDMDL
MODEL 9
REMARK VINA RESULT:      -6.7      2.915      7.924
REMARK  Name = 
REMARK  8 active torsions:
REMARK  status: ('A' for Active; 'I' for Inactive)
REMARK    1  A    between atoms: C_1  and  O_2
REMARK    2  A    between atoms: O_2  and  C_3
REMARK    3  A    between atoms: N_10  and  C_11
REMARK    4  A    between atoms: C_11  and  C_12
REMARK    5  A    between atoms: N_14  and  C_15
REMARK    6  A    between atoms: C_15  and  C_16
REMARK    7  A    between atoms: C_15  and  C_17
REMARK    8  A    between atoms: C_20  and  C_21
REMARK                            x       y       z     vdW  Elec       q    Type
REMARK                         _______ _______ _______ _____ _____    ______ ____
ROOT
ATOM      1  C   UNL     1       0.957   7.218  21.287  0.00  0.00    +0.000 C 
ENDROOT
BRANCH   1   9
ATOM      2  C   UNL     1       4.201   5.343  17.218  0.00  0.00    +0.000 A 
ATOM      3  C   UNL     1       4.460   3.975  17.042  0.00  0.00    +0.000 A 
ATOM      4  C   UNL     1       3.974   3.041  17.957  0.00  0.00    +0.000 A 
ATOM      5  C   UNL     1       3.238   3.465  19.059  0.00  0.00    +0.000 A 
ATOM      6  C   UNL     1       2.978   4.830  19.224  0.00  0.00    +0.000 A 
ATOM      7  C   UNL     1       2.196   5.324  20.356  0.00  0.00    +0.000 A 
ATOM      8  O   UNL     1       1.838   4.562  21.254  0.00  0.00    +0.000 OA
ATOM      9  N   UNL     1       1.885   6.664  20.318  0.00  0.00    +0.000 N 
ATOM     10  N   UNL     1       2.360   7.526  19.375  0.00  0.00    +0.000 NA
ATOM     11  N   UNL     1       3.117   7.142  18.457  0.00  0.00    +0.000 NA
ATOM     12  C   UNL     1       3.424   5.779  18.314  0.00  0.00    +0.000 A 
BRANCH   2  14
ATOM     13  C   UNL     1       5.476   5.923  15.278  0.00  0.00    +0.000 C 
ATOM     14  O   UNL     1       4.656   6.325  16.370  0.00  0.00    +0.000 OA
ENDBRANCH   2  14
ENDBRANCH   1   9
BRANCH   1  15
ATOM     15  C   UNL     1       1.099   8.727  21.461  0.00  0.00    +0.000 C 
ATOM     16  O   UNL     1       1.764   9.215  22.374  0.00  0.00    +0.000 OA
ATOM     17  N   UNL     1       0.462   9.487  20.499  0.00  0.00    +0.000 N 
ATOM     18  H   UNL     1      -0.305   9.052  19.991  0.00  0.00    +0.000 HD
BRANCH  17  19
ATOM     19  C   UNL     1       0.551  10.943  20.517  0.00  0.00    +0.000 C 
ATOM     20  C   UNL     1       0.885  11.502  19.133  0.00  0.00    +0.000 C 
BRANCH  19  21
ATOM     21  C   UNL     1      -0.706  11.573  21.084  0.00  0.00    +0.000 A 
ATOM     22  C   UNL     1      -0.906  11.579  22.473  0.00  0.00    +0.000 A 
ATOM     23  C   UNL     1      -2.074  12.109  23.026  0.00  0.00    +0.000 A 
ATOM     24  C   UNL     1      -3.069  12.639  22.202  0.00  0.00    +0.000 A 
ATOM     25  C   UNL     1      -4.355  13.143  22.780  0.00  0.00    +0.000 C 
ATOM     26  C   UNL     1      -2.860  12.669  20.818  0.00  0.00    +0.000 A 
ATOM     27  C   UNL     1      -1.691  12.140  20.263  0.00  0.00    +0.000 A 
ENDBRANCH  19  21
ENDBRANCH  17  19
ENDBRANCH   1  15
TORSDOF 5
ENDMDL
