MODEL 1
REMARK VINA RESULT:      -8.4      0.000      0.000
REMARK  Name = 
REMARK  12 active torsions:
REMARK  status: ('A' for Active; 'I' for Inactive)
REMARK    1  A    between atoms: C_1  and  C_2
REMARK    2  A    between atoms: C_2  and  C_3
REMARK    3  A    between atoms: C_2  and  C_4
REMARK    4  A    between atoms: C_4  and  C_5
REMARK    5  A    between atoms: C_6  and  C_7
REMARK    6  A    between atoms: C_8  and  C_9
REMARK    7  A    between atoms: N_11  and  C_12
REMARK    8  A    between atoms: C_14  and  O_15
REMARK    9  A    between atoms: C_14  and  C_16
REMARK   10  A    between atoms: C_16  and  C_17
REMARK   11  A    between atoms: C_17  and  C_18
REMARK   12  A    between atoms: C_21  and  O_22
REMARK                            x       y       z     vdW  Elec       q    Type
REMARK                         _______ _______ _______ _____ _____    ______ ____
ROOT
ATOM      1  C   UNL     1       5.215   4.380  18.679  0.00  0.00    +0.000 C 
ATOM      2  C   UNL     1       5.046   3.548  19.707  0.00  0.00    +0.000 C 
ATOM      3  C   UNL     1       4.179   2.325  19.772  0.00  0.00    +0.000 C 
ATOM      4  C   UNL     1       3.556   1.927  18.402  0.00  0.00    +0.000 C 
ATOM      5  C   UNL     1       3.444   3.026  17.346  0.00  0.00    +0.000 C 
ATOM      6  C   UNL     1       4.443   4.151  17.419  0.00  0.00    +0.000 C 
ATOM      7  O   UNL     1       4.601   4.925  16.473  0.00  0.00    +0.000 OA
ENDROOT
BRANCH   1  10
ATOM      8  C   UNL     1       7.410   5.452  18.455  0.00  0.00    +0.000 C 
ATOM      9  O   UNL     1       8.055   4.450  18.156  0.00  0.00    +0.000 OA
ATOM     10  N   UNL     1       6.052   5.485  18.679  0.00  0.00    +0.000 N 
ATOM     11  H   UNL     1       5.576   6.383  18.680  0.00  0.00    +0.000 HD
BRANCH   8  13
ATOM     12  C   UNL     1       7.560   7.770  17.792  0.00  0.00    +0.000 C 
ATOM     13  C   UNL     1       8.074   6.780  18.538  0.00  0.00    +0.000 C 
BRANCH  12  15
ATOM     14  C   UNL     1       8.880   9.605  18.687  0.00  0.00    +0.000 C 
ATOM     15  C   UNL     1       8.095   9.108  17.719  0.00  0.00    +0.000 C 
BRANCH  14  16
ATOM     16  C   UNL     1       9.467  10.989  18.665  0.00  0.00    +0.000 C 
BRANCH  16  18
ATOM     17  C   UNL     1      11.851  11.734  19.164  0.00  0.00    +0.000 C 
ATOM     18  C   UNL     1      10.542  11.200  19.748  0.00  0.00    +0.000 C 
ATOM     19  C   UNL     1      10.023  12.165  20.817  0.00  0.00    +0.000 C 
ENDBRANCH  16  18
ENDBRANCH  14  16
ENDBRANCH  12  15
ENDBRANCH   8  13
ENDBRANCH   1  10
BRANCH   3  20
ATOM     20  O   UNL     1       5.061   1.278  20.211  0.00  0.00    +0.000 OA
ATOM     21  H   UNL     1       4.518   0.699  20.783  0.00  0.00    +0.000 HD
ENDBRANCH   3  20
BRANCH   4  22
ATOM     22  O   UNL     1       4.270   0.775  17.899  0.00  0.00    +0.000 OA
ATOM     23  H   UNL     1       4.608   0.240  18.634  0.00  0.00    +0.000 HD
ENDBRANCH   4  22
BRANCH   3  24
ATOM     24  C   UNL     1       3.139   2.504  20.898  0.00  0.00    +0.000 C 
BRANCH  24  25
ATOM     25  C   UNL     1       1.759   2.997  20.436  0.00  0.00    +0.000 C 
BRANCH  25  26
ATOM     26  C   UNL     1       1.776   4.494  20.221  0.00  0.00    +0.000 C 
ATOM     27  N   UNL     1       2.306   5.217  21.247  0.00  0.00    +0.000 N 
ATOM     28  O   UNL     1       1.289   5.054  19.246  0.00  0.00    +0.000 OA
ATOM     29  H   UNL     1       2.856   4.797  21.983  0.00  0.00    +0.000 HD
ATOM     30  H   UNL     1       2.372   6.218  21.110  0.00  0.00    +0.000 HD
ENDBRANCH  25  26
ENDBRANCH  24  25
ENDBRANCH   3  24
TORSDOF 10
ENDMDL
MODEL 2
REMARK VINA RESULT:      -8.0      0.943      1.013
REMARK  Name = 
REMARK  12 active torsions:
REMARK  status: ('A' for Active; 'I' for Inactive)
REMARK    1  A    between atoms: C_1  and  C_2
REMARK    2  A    between atoms: C_2  and  C_3
REMARK    3  A    between atoms: C_2  and  C_4
REMARK    4  A    between atoms: C_4  and  C_5
REMARK    5  A    between atoms: C_6  and  C_7
REMARK    6  A    between atoms: C_8  and  C_9
REMARK    7  A    between atoms: N_11  and  C_12
REMARK    8  A    between atoms: C_14  and  O_15
REMARK    9  A    between atoms: C_14  and  C_16
REMARK   10  A    between atoms: C_16  and  C_17
REMARK   11  A    between atoms: C_17  and  C_18
REMARK   12  A    between atoms: C_21  and  O_22
REMARK                            x       y       z     vdW  Elec       q    Type
REMARK                         _______ _______ _______ _____ _____    ______ ____
ROOT
ATOM      1  C   UNL     1       4.958   4.334  18.379  0.00  0.00    +0.000 C 
ATOM      2  C   UNL     1       4.945   3.633  19.513  0.00  0.00    +0.000 C 
ATOM      3  C   UNL     1       4.171   2.383  19.817  0.00  0.00    +0.000 C 
ATOM      4  C   UNL     1       3.448   1.779  18.579  0.00  0.00    +0.000 C 
ATOM      5  C   UNL     1       3.162   2.725  17.413  0.00  0.00    +0.000 C 
ATOM      6  C   UNL     1       4.086   3.902  17.243  0.00  0.00    +0.000 C 
ATOM      7  O   UNL     1       4.101   4.555  16.198  0.00  0.00    +0.000 OA
ENDROOT
BRANCH   1  10
ATOM      8  C   UNL     1       6.968   5.494  17.583  0.00  0.00    +0.000 C 
ATOM      9  O   UNL     1       7.556   4.516  17.127  0.00  0.00    +0.000 OA
ATOM     10  N   UNL     1       5.716   5.472  18.156  0.00  0.00    +0.000 N 
ATOM     11  H   UNL     1       5.217   6.349  18.279  0.00  0.00    +0.000 HD
BRANCH   8  13
ATOM     12  C   UNL     1       8.175   7.331  18.584  0.00  0.00    +0.000 C 
ATOM     13  C   UNL     1       7.571   6.850  17.486  0.00  0.00    +0.000 C 
BRANCH  12  15
ATOM     14  C   UNL     1       8.282   9.694  18.024  0.00  0.00    +0.000 C 
ATOM     15  C   UNL     1       8.779   8.637  18.683  0.00  0.00    +0.000 C 
BRANCH  14  16
ATOM     16  C   UNL     1       8.868  11.078  18.090  0.00  0.00    +0.000 C 
BRANCH  16  18
ATOM     17  C   UNL     1      11.285  11.871  17.970  0.00  0.00    +0.000 C 
ATOM     18  C   UNL     1      10.240  11.114  18.791  0.00  0.00    +0.000 C 
ATOM     19  C   UNL     1      10.103  11.758  20.172  0.00  0.00    +0.000 C 
ENDBRANCH  16  18
ENDBRANCH  14  16
ENDBRANCH  12  15
ENDBRANCH   8  13
ENDBRANCH   1  10
BRANCH   3  20
ATOM     20  O   UNL     1       5.159   1.450  20.288  0.00  0.00    +0.000 OA
ATOM     21  H   UNL     1       5.138   0.703  19.657  0.00  0.00    +0.000 HD
ENDBRANCH   3  20
BRANCH   4  22
ATOM     22  O   UNL     1       4.185   0.612  18.150  0.00  0.00    +0.000 OA
ATOM     23  H   UNL     1       4.904   0.867  17.552  0.00  0.00    +0.000 HD
ENDBRANCH   4  22
BRANCH   3  24
ATOM     24  C   UNL     1       3.234   2.650  21.014  0.00  0.00    +0.000 C 
BRANCH  24  25
ATOM     25  C   UNL     1       2.756   4.104  21.154  0.00  0.00    +0.000 C 
BRANCH  25  26
ATOM     26  C   UNL     1       1.330   4.241  20.671  0.00  0.00    +0.000 C 
ATOM     27  N   UNL     1       0.661   3.064  20.508  0.00  0.00    +0.000 N 
ATOM     28  O   UNL     1       0.806   5.305  20.367  0.00  0.00    +0.000 OA
ATOM     29  H   UNL     1       0.992   2.191  20.895  0.00  0.00    +0.000 HD
ATOM     30  H   UNL     1      -0.310   3.129  20.231  0.00  0.00    +0.000 HD
ENDBRANCH  25  26
ENDBRANCH  24  25
ENDBRANCH   3  24
TORSDOF 10
ENDMDL
MODEL 3
REMARK VINA RESULT:      -8.0      2.126      2.748
REMARK  Name = 
REMARK  12 active torsions:
REMARK  status: ('A' for Active; 'I' for Inactive)
REMARK    1  A    between atoms: C_1  and  C_2
REMARK    2  A    between atoms: C_2  and  C_3
REMARK    3  A    between atoms: C_2  and  C_4
REMARK    4  A    between atoms: C_4  and  C_5
REMARK    5  A    between atoms: C_6  and  C_7
REMARK    6  A    between atoms: C_8  and  C_9
REMARK    7  A    between atoms: N_11  and  C_12
REMARK    8  A    between atoms: C_14  and  O_15
REMARK    9  A    between atoms: C_14  and  C_16
REMARK   10  A    between atoms: C_16  and  C_17
REMARK   11  A    between atoms: C_17  and  C_18
REMARK   12  A    between atoms: C_21  and  O_22
REMARK                            x       y       z     vdW  Elec       q    Type
REMARK                         _______ _______ _______ _____ _____    ______ ____
ROOT
ATOM      1  C   UNL     1       5.670   6.338  17.200  0.00  0.00    +0.000 C 
ATOM      2  C   UNL     1       4.682   6.169  18.080  0.00  0.00    +0.000 C 
ATOM      3  C   UNL     1       3.786   4.976  18.242  0.00  0.00    +0.000 C 
ATOM      4  C   UNL     1       4.207   3.755  17.376  0.00  0.00    +0.000 C 
ATOM      5  C   UNL     1       5.070   4.040  16.147  0.00  0.00    +0.000 C 
ATOM      6  C   UNL     1       5.945   5.265  16.195  0.00  0.00    +0.000 C 
ATOM      7  O   UNL     1       6.858   5.428  15.383  0.00  0.00    +0.000 OA
ENDROOT
BRANCH   1  10
ATOM      8  C   UNL     1       7.632   7.664  17.840  0.00  0.00    +0.000 C 
ATOM      9  O   UNL     1       8.141   6.850  18.606  0.00  0.00    +0.000 OA
ATOM     10  N   UNL     1       6.478   7.461  17.117  0.00  0.00    +0.000 N 
ATOM     11  H   UNL     1       6.270   8.081  16.339  0.00  0.00    +0.000 HD
BRANCH   8  13
ATOM     12  C   UNL     1       8.795   9.626  18.637  0.00  0.00    +0.000 C 
ATOM     13  C   UNL     1       8.294   8.970  17.579  0.00  0.00    +0.000 C 
BRANCH  12  15
ATOM     14  C   UNL     1       8.886  11.943  17.909  0.00  0.00    +0.000 C 
ATOM     15  C   UNL     1       9.435  10.917  18.576  0.00  0.00    +0.000 C 
BRANCH  14  16
ATOM     16  C   UNL     1       9.505  13.310  17.813  0.00  0.00    +0.000 C 
BRANCH  16  18
ATOM     17  C   UNL     1      11.853  13.355  16.825  0.00  0.00    +0.000 C 
ATOM     18  C   UNL     1      11.017  13.304  18.106  0.00  0.00    +0.000 C 
ATOM     19  C   UNL     1      11.379  14.489  19.004  0.00  0.00    +0.000 C 
ENDBRANCH  16  18
ENDBRANCH  14  16
ENDBRANCH  12  15
ENDBRANCH   8  13
ENDBRANCH   1  10
BRANCH   3  20
ATOM     20  O   UNL     1       3.895   4.628  19.633  0.00  0.00    +0.000 OA
ATOM     21  H   UNL     1       4.589   5.213  19.998  0.00  0.00    +0.000 HD
ENDBRANCH   3  20
BRANCH   4  22
ATOM     22  O   UNL     1       4.821   2.775  18.243  0.00  0.00    +0.000 OA
ATOM     23  H   UNL     1       4.144   2.207  18.643  0.00  0.00    +0.000 HD
ENDBRANCH   4  22
BRANCH   3  24
ATOM     24  C   UNL     1       2.321   5.415  18.029  0.00  0.00    +0.000 C 
BRANCH  24  25
ATOM     25  C   UNL     1       1.348   4.280  17.675  0.00  0.00    +0.000 C 
BRANCH  25  26
ATOM     26  C   UNL     1       1.212   3.318  18.835  0.00  0.00    +0.000 C 
ATOM     27  N   UNL     1       1.495   2.018  18.541  0.00  0.00    +0.000 N 
ATOM     28  O   UNL     1       0.808   3.636  19.946  0.00  0.00    +0.000 OA
ATOM     29  H   UNL     1       1.980   1.742  17.699  0.00  0.00    +0.000 HD
ATOM     30  H   UNL     1       1.457   1.361  19.311  0.00  0.00    +0.000 HD
ENDBRANCH  25  26
ENDBRANCH  24  25
ENDBRANCH   3  24
TORSDOF 10
ENDMDL
MODEL 4
REMARK VINA RESULT:      -7.8      2.086      2.711
REMARK  Name = 
REMARK  12 active torsions:
REMARK  status: ('A' for Active; 'I' for Inactive)
REMARK    1  A    between atoms: C_1  and  C_2
REMARK    2  A    between atoms: C_2  and  C_3
REMARK    3  A    between atoms: C_2  and  C_4
REMARK    4  A    between atoms: C_4  and  C_5
REMARK    5  A    between atoms: C_6  and  C_7
REMARK    6  A    between atoms: C_8  and  C_9
REMARK    7  A    between atoms: N_11  and  C_12
REMARK    8  A    between atoms: C_14  and  O_15
REMARK    9  A    between atoms: C_14  and  C_16
REMARK   10  A    between atoms: C_16  and  C_17
REMARK   11  A    between atoms: C_17  and  C_18
REMARK   12  A    between atoms: C_21  and  O_22
REMARK                            x       y       z     vdW  Elec       q    Type
REMARK                         _______ _______ _______ _____ _____    ______ ____
ROOT
ATOM      1  C   UNL     1       5.720   6.378  17.069  0.00  0.00    +0.000 C 
ATOM      2  C   UNL     1       4.767   6.123  17.967  0.00  0.00    +0.000 C 
ATOM      3  C   UNL     1       3.859   4.931  18.035  0.00  0.00    +0.000 C 
ATOM      4  C   UNL     1       4.223   3.808  17.021  0.00  0.00    +0.000 C 
ATOM      5  C   UNL     1       5.040   4.219  15.796  0.00  0.00    +0.000 C 
ATOM      6  C   UNL     1       5.935   5.420  15.941  0.00  0.00    +0.000 C 
ATOM      7  O   UNL     1       6.816   5.662  15.113  0.00  0.00    +0.000 OA
ENDROOT
BRANCH   1  10
ATOM      8  C   UNL     1       7.612   7.687  17.921  0.00  0.00    +0.000 C 
ATOM      9  O   UNL     1       8.027   6.868  18.737  0.00  0.00    +0.000 OA
ATOM     10  N   UNL     1       6.542   7.494  17.077  0.00  0.00    +0.000 N 
ATOM     11  H   UNL     1       6.425   8.116  16.281  0.00  0.00    +0.000 HD
BRANCH   8  13
ATOM     12  C   UNL     1       8.882   9.536  18.818  0.00  0.00    +0.000 C 
ATOM     13  C   UNL     1       8.309   8.988  17.735  0.00  0.00    +0.000 C 
BRANCH  12  15
ATOM     14  C   UNL     1      10.374  11.180  17.828  0.00  0.00    +0.000 C 
ATOM     15  C   UNL     1       9.566  10.805  18.831  0.00  0.00    +0.000 C 
BRANCH  14  16
ATOM     16  C   UNL     1      11.111  12.491  17.786  0.00  0.00    +0.000 C 
BRANCH  16  18
ATOM     17  C   UNL     1      11.679  14.129  19.652  0.00  0.00    +0.000 C 
ATOM     18  C   UNL     1      10.566  13.515  18.799  0.00  0.00    +0.000 C 
ATOM     19  C   UNL     1       9.810  14.624  18.064  0.00  0.00    +0.000 C 
ENDBRANCH  16  18
ENDBRANCH  14  16
ENDBRANCH  12  15
ENDBRANCH   8  13
ENDBRANCH   1  10
BRANCH   3  20
ATOM     20  O   UNL     1       4.020   4.429  19.373  0.00  0.00    +0.000 OA
ATOM     21  H   UNL     1       4.708   3.735  19.313  0.00  0.00    +0.000 HD
ENDBRANCH   3  20
BRANCH   4  22
ATOM     22  O   UNL     1       4.858   2.732  17.748  0.00  0.00    +0.000 OA
ATOM     23  H   UNL     1       4.206   2.051  17.980  0.00  0.00    +0.000 HD
ENDBRANCH   4  22
BRANCH   3  24
ATOM     24  C   UNL     1       2.394   5.407  17.935  0.00  0.00    +0.000 C 
BRANCH  24  25
ATOM     25  C   UNL     1       1.371   4.302  17.627  0.00  0.00    +0.000 C 
BRANCH  25  26
ATOM     26  C   UNL     1       1.047   3.518  18.879  0.00  0.00    +0.000 C 
ATOM     27  N   UNL     1       1.127   4.227  20.040  0.00  0.00    +0.000 N 
ATOM     28  O   UNL     1       0.802   2.318  18.894  0.00  0.00    +0.000 OA
ATOM     29  H   UNL     1       1.163   5.236  20.061  0.00  0.00    +0.000 HD
ATOM     30  H   UNL     1       0.869   3.738  20.888  0.00  0.00    +0.000 HD
ENDBRANCH  25  26
ENDBRANCH  24  25
ENDBRANCH   3  24
TORSDOF 10
ENDMDL
MODEL 5
REMARK VINA RESULT:      -7.8      2.314      2.929
REMARK  Name = 
REMARK  12 active torsions:
REMARK  status: ('A' for Active; 'I' for Inactive)
REMARK    1  A    between atoms: C_1  and  C_2
REMARK    2  A    between atoms: C_2  and  C_3
REMARK    3  A    between atoms: C_2  and  C_4
REMARK    4  A    between atoms: C_4  and  C_5
REMARK    5  A    between atoms: C_6  and  C_7
REMARK    6  A    between atoms: C_8  and  C_9
REMARK    7  A    between atoms: N_11  and  C_12
REMARK    8  A    between atoms: C_14  and  O_15
REMARK    9  A    between atoms: C_14  and  C_16
REMARK   10  A    between atoms: C_16  and  C_17
REMARK   11  A    between atoms: C_17  and  C_18
REMARK   12  A    between atoms: C_21  and  O_22
REMARK                            x       y       z     vdW  Elec       q    Type
REMARK                         _______ _______ _______ _____ _____    ______ ____
ROOT
ATOM      1  C   UNL     1       5.797   6.372  17.264  0.00  0.00    +0.000 C 
ATOM      2  C   UNL     1       4.776   6.155  18.094  0.00  0.00    +0.000 C 
ATOM      3  C   UNL     1       3.905   4.937  18.187  0.00  0.00    +0.000 C 
ATOM      4  C   UNL     1       4.394   3.750  17.308  0.00  0.00    +0.000 C 
ATOM      5  C   UNL     1       5.303   4.090  16.127  0.00  0.00    +0.000 C 
ATOM      6  C   UNL     1       6.143   5.334  16.245  0.00  0.00    +0.000 C 
ATOM      7  O   UNL     1       7.086   5.541  15.478  0.00  0.00    +0.000 OA
ENDROOT
BRANCH   1  10
ATOM      8  C   UNL     1       7.707   7.720  18.007  0.00  0.00    +0.000 C 
ATOM      9  O   UNL     1       8.217   6.889  18.755  0.00  0.00    +0.000 OA
ATOM     10  N   UNL     1       6.578   7.517  17.246  0.00  0.00    +0.000 N 
ATOM     11  H   UNL     1       6.375   8.162  16.487  0.00  0.00    +0.000 HD
BRANCH   8  13
ATOM     12  C   UNL     1       8.953   9.598  18.876  0.00  0.00    +0.000 C 
ATOM     13  C   UNL     1       8.343   9.051  17.813  0.00  0.00    +0.000 C 
BRANCH  12  15
ATOM     14  C   UNL     1       9.612  11.670  17.788  0.00  0.00    +0.000 C 
ATOM     15  C   UNL     1       9.587  10.894  18.882  0.00  0.00    +0.000 C 
BRANCH  14  16
ATOM     16  C   UNL     1      10.255  13.028  17.736  0.00  0.00    +0.000 C 
BRANCH  16  18
ATOM     17  C   UNL     1       9.816  15.532  17.900  0.00  0.00    +0.000 C 
ATOM     18  C   UNL     1       9.366  14.135  18.333  0.00  0.00    +0.000 C 
ATOM     19  C   UNL     1       7.909  13.913  17.921  0.00  0.00    +0.000 C 
ENDBRANCH  16  18
ENDBRANCH  14  16
ENDBRANCH  12  15
ENDBRANCH   8  13
ENDBRANCH   1  10
BRANCH   3  20
ATOM     20  O   UNL     1       3.962   4.554  19.572  0.00  0.00    +0.000 OA
ATOM     21  H   UNL     1       3.669   5.341  20.075  0.00  0.00    +0.000 HD
ENDBRANCH   3  20
BRANCH   4  22
ATOM     22  O   UNL     1       4.996   2.763  18.177  0.00  0.00    +0.000 OA
ATOM     23  H   UNL     1       4.658   2.859  19.082  0.00  0.00    +0.000 HD
ENDBRANCH   4  22
BRANCH   3  24
ATOM     24  C   UNL     1       2.440   5.345  17.920  0.00  0.00    +0.000 C 
BRANCH  24  25
ATOM     25  C   UNL     1       1.497   4.185  17.565  0.00  0.00    +0.000 C 
BRANCH  25  26
ATOM     26  C   UNL     1       1.194   3.355  18.792  0.00  0.00    +0.000 C 
ATOM     27  N   UNL     1       1.231   2.006  18.599  0.00  0.00    +0.000 N 
ATOM     28  O   UNL     1       0.861   3.823  19.873  0.00  0.00    +0.000 OA
ATOM     29  H   UNL     1       1.652   1.583  17.784  0.00  0.00    +0.000 HD
ATOM     30  H   UNL     1       1.077   1.427  19.415  0.00  0.00    +0.000 HD
ENDBRANCH  25  26
ENDBRANCH  24  25
ENDBRANCH   3  24
TORSDOF 10
ENDMDL
MODEL 6
REMARK VINA RESULT:      -7.7      2.317      3.034
REMARK  Name = 
REMARK  12 active torsions:
REMARK  status: ('A' for Active; 'I' for Inactive)
REMARK    1  A    between atoms: C_1  and  C_2
REMARK    2  A    between atoms: C_2  and  C_3
REMARK    3  A    between atoms: C_2  and  C_4
REMARK    4  A    between atoms: C_4  and  C_5
REMARK    5  A    between atoms: C_6  and  C_7
REMARK    6  A    between atoms: C_8  and  C_9
REMARK    7  A    between atoms: N_11  and  C_12
REMARK    8  A    between atoms: C_14  and  O_15
REMARK    9  A    between atoms: C_14  and  C_16
REMARK   10  A    between atoms: C_16  and  C_17
REMARK   11  A    between atoms: C_17  and  C_18
REMARK   12  A    between atoms: C_21  and  O_22
REMARK                            x       y       z     vdW  Elec       q    Type
REMARK                         _______ _______ _______ _____ _____    ______ ____
ROOT
ATOM      1  C   UNL     1       5.820   6.388  17.343  0.00  0.00    +0.000 C 
ATOM      2  C   UNL     1       4.785   6.216  18.165  0.00  0.00    +0.000 C 
ATOM      3  C   UNL     1       3.975   4.971  18.380  0.00  0.00    +0.000 C 
ATOM      4  C   UNL     1       4.555   3.716  17.666  0.00  0.00    +0.000 C 
ATOM      5  C   UNL     1       5.484   3.962  16.478  0.00  0.00    +0.000 C 
ATOM      6  C   UNL     1       6.254   5.256  16.467  0.00  0.00    +0.000 C 
ATOM      7  O   UNL     1       7.210   5.422  15.706  0.00  0.00    +0.000 OA
ENDROOT
BRANCH   1  10
ATOM      8  C   UNL     1       7.685   7.879  17.906  0.00  0.00    +0.000 C 
ATOM      9  O   UNL     1       8.262   7.134  18.694  0.00  0.00    +0.000 OA
ATOM     10  N   UNL     1       6.542   7.564  17.207  0.00  0.00    +0.000 N 
ATOM     11  H   UNL     1       6.279   8.137  16.410  0.00  0.00    +0.000 HD
BRANCH   8  13
ATOM     12  C   UNL     1       8.940   9.839  18.554  0.00  0.00    +0.000 C 
ATOM     13  C   UNL     1       8.245   9.220  17.587  0.00  0.00    +0.000 C 
BRANCH  12  15
ATOM     14  C   UNL     1       8.840  12.178  17.897  0.00  0.00    +0.000 C 
ATOM     15  C   UNL     1       9.520  11.154  18.435  0.00  0.00    +0.000 C 
BRANCH  14  16
ATOM     16  C   UNL     1       9.392  13.568  17.749  0.00  0.00    +0.000 C 
BRANCH  16  18
ATOM     17  C   UNL     1       6.968  14.348  17.689  0.00  0.00    +0.000 C 
ATOM     18  C   UNL     1       8.388  14.659  18.168  0.00  0.00    +0.000 C 
ATOM     19  C   UNL     1       8.395  14.816  19.690  0.00  0.00    +0.000 C 
ENDBRANCH  16  18
ENDBRANCH  14  16
ENDBRANCH  12  15
ENDBRANCH   8  13
ENDBRANCH   1  10
BRANCH   3  20
ATOM     20  O   UNL     1       4.005   4.760  19.803  0.00  0.00    +0.000 OA
ATOM     21  H   UNL     1       4.083   5.651  20.199  0.00  0.00    +0.000 HD
ENDBRANCH   3  20
BRANCH   4  22
ATOM     22  O   UNL     1       5.177   2.875  18.664  0.00  0.00    +0.000 OA
ATOM     23  H   UNL     1       4.547   2.211  18.986  0.00  0.00    +0.000 HD
ENDBRANCH   4  22
BRANCH   3  24
ATOM     24  C   UNL     1       2.501   5.262  18.026  0.00  0.00    +0.000 C 
BRANCH  24  25
ATOM     25  C   UNL     1       1.706   4.052  17.511  0.00  0.00    +0.000 C 
BRANCH  25  26
ATOM     26  C   UNL     1       0.951   3.393  18.643  0.00  0.00    +0.000 C 
ATOM     27  N   UNL     1       1.047   4.028  19.846  0.00  0.00    +0.000 N 
ATOM     28  O   UNL     1       0.353   2.329  18.543  0.00  0.00    +0.000 OA
ATOM     29  H   UNL     1       1.386   4.975  19.936  0.00  0.00    +0.000 HD
ATOM     30  H   UNL     1       0.513   3.633  20.610  0.00  0.00    +0.000 HD
ENDBRANCH  25  26
ENDBRANCH  24  25
ENDBRANCH   3  24
TORSDOF 10
ENDMDL
MODEL 7
REMARK VINA RESULT:      -7.7      1.586      2.011
REMARK  Name = 
REMARK  12 active torsions:
REMARK  status: ('A' for Active; 'I' for Inactive)
REMARK    1  A    between atoms: C_1  and  C_2
REMARK    2  A    between atoms: C_2  and  C_3
REMARK    3  A    between atoms: C_2  and  C_4
REMARK    4  A    between atoms: C_4  and  C_5
REMARK    5  A    between atoms: C_6  and  C_7
REMARK    6  A    between atoms: C_8  and  C_9
REMARK    7  A    between atoms: N_11  and  C_12
REMARK    8  A    between atoms: C_14  and  O_15
REMARK    9  A    between atoms: C_14  and  C_16
REMARK   10  A    between atoms: C_16  and  C_17
REMARK   11  A    between atoms: C_17  and  C_18
REMARK   12  A    between atoms: C_21  and  O_22
REMARK                            x       y       z     vdW  Elec       q    Type
REMARK                         _______ _______ _______ _____ _____    ______ ____
ROOT
ATOM      1  C   UNL     1       4.886   5.411  18.254  0.00  0.00    +0.000 C 
ATOM      2  C   UNL     1       4.899   4.093  18.458  0.00  0.00    +0.000 C 
ATOM      3  C   UNL     1       3.755   3.130  18.336  0.00  0.00    +0.000 C 
ATOM      4  C   UNL     1       2.466   3.761  17.735  0.00  0.00    +0.000 C 
ATOM      5  C   UNL     1       2.326   5.280  17.837  0.00  0.00    +0.000 C 
ATOM      6  C   UNL     1       3.598   6.083  17.899  0.00  0.00    +0.000 C 
ATOM      7  O   UNL     1       3.591   7.302  17.714  0.00  0.00    +0.000 OA
ENDROOT
BRANCH   1  10
ATOM      8  C   UNL     1       6.870   6.532  17.345  0.00  0.00    +0.000 C 
ATOM      9  O   UNL     1       6.761   6.147  16.184  0.00  0.00    +0.000 OA
ATOM     10  N   UNL     1       5.989   6.244  18.363  0.00  0.00    +0.000 N 
ATOM     11  H   UNL     1       6.025   6.796  19.215  0.00  0.00    +0.000 HD
BRANCH   8  13
ATOM     12  C   UNL     1       7.730   8.754  17.745  0.00  0.00    +0.000 C 
ATOM     13  C   UNL     1       7.984   7.435  17.740  0.00  0.00    +0.000 C 
BRANCH  12  15
ATOM     14  C   UNL     1       9.055  10.035  19.330  0.00  0.00    +0.000 C 
ATOM     15  C   UNL     1       8.698   9.774  18.063  0.00  0.00    +0.000 C 
BRANCH  14  16
ATOM     16  C   UNL     1      10.059  11.085  19.721  0.00  0.00    +0.000 C 
BRANCH  16  18
ATOM     17  C   UNL     1       9.899  13.181  18.284  0.00  0.00    +0.000 C 
ATOM     18  C   UNL     1      10.623  11.853  18.512  0.00  0.00    +0.000 C 
ATOM     19  C   UNL     1      12.119  12.109  18.709  0.00  0.00    +0.000 C 
ENDBRANCH  16  18
ENDBRANCH  14  16
ENDBRANCH  12  15
ENDBRANCH   8  13
ENDBRANCH   1  10
BRANCH   3  20
ATOM     20  O   UNL     1       4.236   2.106  17.449  0.00  0.00    +0.000 OA
ATOM     21  H   UNL     1       3.447   1.590  17.189  0.00  0.00    +0.000 HD
ENDBRANCH   3  20
BRANCH   4  22
ATOM     22  O   UNL     1       2.334   3.304  16.370  0.00  0.00    +0.000 OA
ATOM     23  H   UNL     1       1.845   3.955  15.842  0.00  0.00    +0.000 HD
ENDBRANCH   4  22
BRANCH   3  24
ATOM     24  C   UNL     1       3.531   2.440  19.699  0.00  0.00    +0.000 C 
BRANCH  24  25
ATOM     25  C   UNL     1       2.063   2.149  20.046  0.00  0.00    +0.000 C 
BRANCH  25  26
ATOM     26  C   UNL     1       1.535   3.178  21.020  0.00  0.00    +0.000 C 
ATOM     27  N   UNL     1       1.889   2.976  22.321  0.00  0.00    +0.000 N 
ATOM     28  O   UNL     1       0.781   4.093  20.712  0.00  0.00    +0.000 OA
ATOM     29  H   UNL     1       2.628   2.343  22.592  0.00  0.00    +0.000 HD
ATOM     30  H   UNL     1       1.588   3.677  22.986  0.00  0.00    +0.000 HD
ENDBRANCH  25  26
ENDBRANCH  24  25
ENDBRANCH   3  24
TORSDOF 10
ENDMDL
MODEL 8
REMARK VINA RESULT:      -7.5      2.085      2.717
REMARK  Name = 
REMARK  12 active torsions:
REMARK  status: ('A' for Active; 'I' for Inactive)
REMARK    1  A    between atoms: C_1  and  C_2
REMARK    2  A    between atoms: C_2  and  C_3
REMARK    3  A    between atoms: C_2  and  C_4
REMARK    4  A    between atoms: C_4  and  C_5
REMARK    5  A    between atoms: C_6  and  C_7
REMARK    6  A    between atoms: C_8  and  C_9
REMARK    7  A    between atoms: N_11  and  C_12
REMARK    8  A    between atoms: C_14  and  O_15
REMARK    9  A    between atoms: C_14  and  C_16
REMARK   10  A    between atoms: C_16  and  C_17
REMARK   11  A    between atoms: C_17  and  C_18
REMARK   12  A    between atoms: C_21  and  O_22
REMARK                            x       y       z     vdW  Elec       q    Type
REMARK                         _______ _______ _______ _____ _____    ______ ____
ROOT
ATOM      1  C   UNL     1       5.526   6.307  17.033  0.00  0.00    +0.000 C 
ATOM      2  C   UNL     1       4.732   5.871  18.012  0.00  0.00    +0.000 C 
ATOM      3  C   UNL     1       3.904   4.620  18.040  0.00  0.00    +0.000 C 
ATOM      4  C   UNL     1       4.166   3.669  16.837  0.00  0.00    +0.000 C 
ATOM      5  C   UNL     1       4.768   4.293  15.578  0.00  0.00    +0.000 C 
ATOM      6  C   UNL     1       5.615   5.524  15.762  0.00  0.00    +0.000 C 
ATOM      7  O   UNL     1       6.348   5.933  14.859  0.00  0.00    +0.000 OA
ENDROOT
BRANCH   1  10
ATOM      8  C   UNL     1       7.461   7.618  17.777  0.00  0.00    +0.000 C 
ATOM      9  O   UNL     1       8.037   6.727  18.397  0.00  0.00    +0.000 OA
ATOM     10  N   UNL     1       6.284   7.467  17.080  0.00  0.00    +0.000 N 
ATOM     11  H   UNL     1       6.015   8.181  16.408  0.00  0.00    +0.000 HD
BRANCH   8  13
ATOM     12  C   UNL     1       8.750   9.419  18.741  0.00  0.00    +0.000 C 
ATOM     13  C   UNL     1       8.057   8.977  17.680  0.00  0.00    +0.000 C 
BRANCH  12  15
ATOM     14  C   UNL     1      10.011  11.114  19.944  0.00  0.00    +0.000 C 
ATOM     15  C   UNL     1       9.363  10.721  18.837  0.00  0.00    +0.000 C 
BRANCH  14  16
ATOM     16  C   UNL     1      10.670  12.457  20.101  0.00  0.00    +0.000 C 
BRANCH  16  18
ATOM     17  C   UNL     1       8.847  14.222  20.315  0.00  0.00    +0.000 C 
ATOM     18  C   UNL     1       9.902  13.393  21.052  0.00  0.00    +0.000 C 
ATOM     19  C   UNL     1       9.233  12.577  22.160  0.00  0.00    +0.000 C 
ENDBRANCH  16  18
ENDBRANCH  14  16
ENDBRANCH  12  15
ENDBRANCH   8  13
ENDBRANCH   1  10
BRANCH   3  20
ATOM     20  O   UNL     1       4.289   3.958  19.257  0.00  0.00    +0.000 OA
ATOM     21  H   UNL     1       3.630   3.247  19.391  0.00  0.00    +0.000 HD
ENDBRANCH   3  20
BRANCH   4  22
ATOM     22  O   UNL     1       4.955   2.552  17.307  0.00  0.00    +0.000 OA
ATOM     23  H   UNL     1       5.487   2.186  16.583  0.00  0.00    +0.000 HD
ENDBRANCH   4  22
BRANCH   3  24
ATOM     24  C   UNL     1       2.419   5.003  18.217  0.00  0.00    +0.000 C 
BRANCH  24  25
ATOM     25  C   UNL     1       1.416   4.014  17.604  0.00  0.00    +0.000 C 
BRANCH  25  26
ATOM     26  C   UNL     1       1.111   2.897  18.577  0.00  0.00    +0.000 C 
ATOM     27  N   UNL     1       1.974   1.844  18.534  0.00  0.00    +0.000 N 
ATOM     28  O   UNL     1       0.128   2.871  19.308  0.00  0.00    +0.000 OA
ATOM     29  H   UNL     1       2.873   1.894  18.074  0.00  0.00    +0.000 HD
ATOM     30  H   UNL     1       1.820   1.104  19.208  0.00  0.00    +0.000 HD
ENDBRANCH  25  26
ENDBRANCH  24  25
ENDBRANCH   3  24
TORSDOF 10
ENDMDL
MODEL 9
REMARK VINA RESULT:      -7.5      1.899      2.556
REMARK  Name = 
REMARK  12 active torsions:
REMARK  status: ('A' for Active; 'I' for Inactive)
REMARK    1  A    between atoms: C_1  and  C_2
REMARK    2  A    between atoms: C_2  and  C_3
REMARK    3  A    between atoms: C_2  and  C_4
REMARK    4  A    between atoms: C_4  and  C_5
REMARK    5  A    between atoms: C_6  and  C_7
REMARK    6  A    between atoms: C_8  and  C_9
REMARK    7  A    between atoms: N_11  and  C_12
REMARK    8  A    between atoms: C_14  and  O_15
REMARK    9  A    between atoms: C_14  and  C_16
REMARK   10  A    between atoms: C_16  and  C_17
REMARK   11  A    between atoms: C_17  and  C_18
REMARK   12  A    between atoms: C_21  and  O_22
REMARK                            x       y       z     vdW  Elec       q    Type
REMARK                         _______ _______ _______ _____ _____    ______ ____
ROOT
ATOM      1  C   UNL     1       6.172   5.490  18.103  0.00  0.00    +0.000 C 
ATOM      2  C   UNL     1       5.017   5.349  18.754  0.00  0.00    +0.000 C 
ATOM      3  C   UNL     1       3.910   4.375  18.470  0.00  0.00    +0.000 C 
ATOM      4  C   UNL     1       4.272   3.316  17.390  0.00  0.00    +0.000 C 
ATOM      5  C   UNL     1       5.396   3.672  16.418  0.00  0.00    +0.000 C 
ATOM      6  C   UNL     1       6.446   4.634  16.907  0.00  0.00    +0.000 C 
ATOM      7  O   UNL     1       7.514   4.770  16.308  0.00  0.00    +0.000 OA
ENDROOT
BRANCH   1  10
ATOM      8  C   UNL     1       7.387   7.598  17.794  0.00  0.00    +0.000 C 
ATOM      9  O   UNL     1       6.693   8.059  16.891  0.00  0.00    +0.000 OA
ATOM     10  N   UNL     1       7.165   6.399  18.432  0.00  0.00    +0.000 N 
ATOM     11  H   UNL     1       7.635   6.218  19.315  0.00  0.00    +0.000 HD
BRANCH   8  13
ATOM     12  C   UNL     1       8.488   9.708  18.207  0.00  0.00    +0.000 C 
ATOM     13  C   UNL     1       8.537   8.372  18.332  0.00  0.00    +0.000 C 
BRANCH  12  15
ATOM     14  C   UNL     1       9.783  10.825  19.936  0.00  0.00    +0.000 C 
ATOM     15  C   UNL     1       9.528  10.611  18.636  0.00  0.00    +0.000 C 
BRANCH  14  16
ATOM     16  C   UNL     1      10.854  11.752  20.441  0.00  0.00    +0.000 C 
BRANCH  16  18
ATOM     17  C   UNL     1      10.259  14.199  20.824  0.00  0.00    +0.000 C 
ATOM     18  C   UNL     1      10.767  13.160  19.822  0.00  0.00    +0.000 C 
ATOM     19  C   UNL     1      12.139  13.582  19.292  0.00  0.00    +0.000 C 
ENDBRANCH  16  18
ENDBRANCH  14  16
ENDBRANCH  12  15
ENDBRANCH   8  13
ENDBRANCH   1  10
BRANCH   3  20
ATOM     20  O   UNL     1       3.682   3.711  19.725  0.00  0.00    +0.000 OA
ATOM     21  H   UNL     1       4.310   2.961  19.744  0.00  0.00    +0.000 HD
ENDBRANCH   3  20
BRANCH   4  22
ATOM     22  O   UNL     1       4.522   2.058  18.057  0.00  0.00    +0.000 OA
ATOM     23  H   UNL     1       3.815   1.424  17.859  0.00  0.00    +0.000 HD
ENDBRANCH   4  22
BRANCH   3  24
ATOM     24  C   UNL     1       2.617   5.159  18.164  0.00  0.00    +0.000 C 
BRANCH  24  25
ATOM     25  C   UNL     1       1.411   4.293  17.767  0.00  0.00    +0.000 C 
BRANCH  25  26
ATOM     26  C   UNL     1       1.085   3.305  18.864  0.00  0.00    +0.000 C 
ATOM     27  N   UNL     1       1.241   1.994  18.525  0.00  0.00    +0.000 N 
ATOM     28  O   UNL     1       0.638   3.618  19.961  0.00  0.00    +0.000 OA
ATOM     29  H   UNL     1       1.753   1.701  17.704  0.00  0.00    +0.000 HD
ATOM     30  H   UNL     1       1.074   1.314  19.255  0.00  0.00    +0.000 HD
ENDBRANCH  25  26
ENDBRANCH  24  25
ENDBRANCH   3  24
TORSDOF 10
ENDMDL
