MODEL 1
REMARK VINA RESULT:      -8.0      0.000      0.000
REMARK  Name = 
REMARK  5 active torsions:
REMARK  status: ('A' for Active; 'I' for Inactive)
REMARK    1  A    between atoms: C_1  and  C_2
REMARK    2  A    between atoms: C_5  and  C_6
REMARK    3  A    between atoms: C_9  and  C_11
REMARK    4  A    between atoms: N_17  and  C_18
REMARK    5  A    between atoms: C_18  and  C_19
REMARK                            x       y       z     vdW  Elec       q    Type
REMARK                         _______ _______ _______ _____ _____    ______ ____
ROOT
ATOM      1  C   UNL     1       3.686   1.697  18.498  0.00  0.00    +0.000 C 
ATOM      2  C   UNL     1       2.987   2.993  18.674  0.00  0.00    +0.000 A 
ATOM      3  C   UNL     1       1.638   3.267  18.700  0.00  0.00    +0.000 A 
ATOM      4  N   UNL     1       1.410   4.596  18.909  0.00  0.00    +0.000 NA
ATOM      5  C   UNL     1       2.595   5.147  19.061  0.00  0.00    +0.000 A 
ATOM      6  N   UNL     1       3.596   4.222  18.838  0.00  0.00    +0.000 N 
ENDROOT
BRANCH   5   7
ATOM      7  C   UNL     1       2.769   6.602  19.480  0.00  0.00    +0.000 C 
ATOM      8  C   UNL     1       2.008   7.616  18.592  0.00  0.00    +0.000 C 
ATOM      9  N   UNL     1       1.664   8.278  19.833  0.00  0.00    +0.000 N 
ATOM     10  C   UNL     1       1.243   9.552  20.069  0.00  0.00    +0.000 C 
ATOM     11  O   UNL     1       1.101  10.358  19.147  0.00  0.00    +0.000 OA
ATOM     12  C   UNL     1       1.855   7.090  20.636  0.00  0.00    +0.000 C 
BRANCH  10  13
ATOM     13  C   UNL     1       0.911   9.904  21.535  0.00  0.00    +0.000 C 
ATOM     14  C   UNL     1      -0.356   9.207  22.022  0.00  0.00    +0.000 C 
ATOM     15  C   UNL     1      -0.920  10.176  23.028  0.00  0.00    +0.000 C 
ATOM     16  C   UNL     1      -0.523  11.511  22.444  0.00  0.00    +0.000 C 
ATOM     17  O   UNL     1       0.711  11.311  21.744  0.00  0.00    +0.000 OA
ENDBRANCH  10  13
ENDBRANCH   5   7
BRANCH   6  18
ATOM     18  C   UNL     1       5.030   4.493  18.815  0.00  0.00    +0.000 C 
BRANCH  18  19
ATOM     19  C   UNL     1       5.638   4.615  17.439  0.00  0.00    +0.000 A 
ATOM     20  C   UNL     1       4.923   4.779  16.248  0.00  0.00    +0.000 A 
ATOM     21  C   UNL     1       5.602   4.833  15.028  0.00  0.00    +0.000 A 
ATOM     22  C   UNL     1       6.980   4.728  15.034  0.00  0.00    +0.000 A 
ATOM     23  N   UNL     1       7.709   4.588  16.155  0.00  0.00    +0.000 NA
ATOM     24  C   UNL     1       7.027   4.538  17.323  0.00  0.00    +0.000 A 
ENDBRANCH  18  19
ENDBRANCH   6  18
TORSDOF 4
ENDMDL
MODEL 2
REMARK VINA RESULT:      -7.8      2.033      4.116
REMARK  Name = 
REMARK  5 active torsions:
REMARK  status: ('A' for Active; 'I' for Inactive)
REMARK    1  A    between atoms: C_1  and  C_2
REMARK    2  A    between atoms: C_5  and  C_6
REMARK    3  A    between atoms: C_9  and  C_11
REMARK    4  A    between atoms: N_17  and  C_18
REMARK    5  A    between atoms: C_18  and  C_19
REMARK                            x       y       z     vdW  Elec       q    Type
REMARK                         _______ _______ _______ _____ _____    ______ ____
ROOT
ATOM      1  C   UNL     1       5.662   3.712  16.187  0.00  0.00    +0.000 C 
ATOM      2  C   UNL     1       5.072   4.938  16.776  0.00  0.00    +0.000 A 
ATOM      3  C   UNL     1       5.627   6.187  16.945  0.00  0.00    +0.000 A 
ATOM      4  N   UNL     1       4.734   7.049  17.511  0.00  0.00    +0.000 NA
ATOM      5  C   UNL     1       3.616   6.372  17.654  0.00  0.00    +0.000 A 
ATOM      6  N   UNL     1       3.798   5.049  17.299  0.00  0.00    +0.000 N 
ENDROOT
BRANCH   5   7
ATOM      7  C   UNL     1       2.317   7.029  18.102  0.00  0.00    +0.000 C 
ATOM      8  C   UNL     1       2.294   7.447  19.592  0.00  0.00    +0.000 C 
ATOM      9  N   UNL     1       1.654   8.660  19.130  0.00  0.00    +0.000 N 
ATOM     10  C   UNL     1       0.904   9.577  19.803  0.00  0.00    +0.000 C 
ATOM     11  O   UNL     1       0.667   9.447  21.006  0.00  0.00    +0.000 OA
ATOM     12  C   UNL     1       2.176   8.543  17.786  0.00  0.00    +0.000 C 
BRANCH  10  13
ATOM     13  C   UNL     1       0.417  10.795  18.990  0.00  0.00    +0.000 C 
ATOM     14  C   UNL     1      -0.020  11.949  19.888  0.00  0.00    +0.000 C 
ATOM     15  C   UNL     1      -1.099  12.625  19.084  0.00  0.00    +0.000 C 
ATOM     16  C   UNL     1      -1.732  11.463  18.356  0.00  0.00    +0.000 C 
ATOM     17  O   UNL     1      -0.699  10.494  18.138  0.00  0.00    +0.000 OA
ENDBRANCH  10  13
ENDBRANCH   5   7
BRANCH   6  18
ATOM     18  C   UNL     1       2.813   3.979  17.426  0.00  0.00    +0.000 C 
BRANCH  18  19
ATOM     19  C   UNL     1       2.507   3.553  18.841  0.00  0.00    +0.000 A 
ATOM     20  C   UNL     1       1.286   3.735  19.498  0.00  0.00    +0.000 A 
ATOM     21  C   UNL     1       1.143   3.337  20.829  0.00  0.00    +0.000 A 
ATOM     22  C   UNL     1       2.226   2.761  21.466  0.00  0.00    +0.000 A 
ATOM     23  N   UNL     1       3.412   2.550  20.869  0.00  0.00    +0.000 NA
ATOM     24  C   UNL     1       3.524   2.945  19.580  0.00  0.00    +0.000 A 
ENDBRANCH  18  19
ENDBRANCH   6  18
TORSDOF 4
ENDMDL
MODEL 3
REMARK VINA RESULT:      -7.7      1.798      4.133
REMARK  Name = 
REMARK  5 active torsions:
REMARK  status: ('A' for Active; 'I' for Inactive)
REMARK    1  A    between atoms: C_1  and  C_2
REMARK    2  A    between atoms: C_5  and  C_6
REMARK    3  A    between atoms: C_9  and  C_11
REMARK    4  A    between atoms: N_17  and  C_18
REMARK    5  A    between atoms: C_18  and  C_19
REMARK                            x       y       z     vdW  Elec       q    Type
REMARK                         _______ _______ _______ _____ _____    ______ ____
ROOT
ATOM      1  C   UNL     1       5.951   3.657  15.788  0.00  0.00    +0.000 C 
ATOM      2  C   UNL     1       5.342   4.808  16.497  0.00  0.00    +0.000 A 
ATOM      3  C   UNL     1       5.861   6.058  16.751  0.00  0.00    +0.000 A 
ATOM      4  N   UNL     1       4.962   6.837  17.418  0.00  0.00    +0.000 NA
ATOM      5  C   UNL     1       3.873   6.109  17.542  0.00  0.00    +0.000 A 
ATOM      6  N   UNL     1       4.086   4.828  17.072  0.00  0.00    +0.000 N 
ENDROOT
BRANCH   5   7
ATOM      7  C   UNL     1       2.570   6.680  18.088  0.00  0.00    +0.000 C 
ATOM      8  C   UNL     1       2.538   6.835  19.628  0.00  0.00    +0.000 C 
ATOM      9  N   UNL     1       1.898   8.109  19.377  0.00  0.00    +0.000 N 
ATOM     10  C   UNL     1       1.143   8.897  20.193  0.00  0.00    +0.000 C 
ATOM     11  O   UNL     1       0.899   8.562  21.355  0.00  0.00    +0.000 OA
ATOM     12  C   UNL     1       2.429   8.225  18.036  0.00  0.00    +0.000 C 
BRANCH  10  13
ATOM     13  C   UNL     1       0.660  10.236  19.599  0.00  0.00    +0.000 C 
ATOM     14  C   UNL     1       0.112  11.176  20.669  0.00  0.00    +0.000 C 
ATOM     15  C   UNL     1      -0.939  11.965  19.933  0.00  0.00    +0.000 C 
ATOM     16  C   UNL     1      -1.469  10.951  18.947  0.00  0.00    +0.000 C 
ATOM     17  O   UNL     1      -0.382  10.076  18.623  0.00  0.00    +0.000 OA
ENDBRANCH  10  13
ENDBRANCH   5   7
BRANCH   6  18
ATOM     18  C   UNL     1       3.143   3.716  17.143  0.00  0.00    +0.000 C 
BRANCH  18  19
ATOM     19  C   UNL     1       2.649   3.381  18.529  0.00  0.00    +0.000 A 
ATOM     20  C   UNL     1       3.460   3.118  19.638  0.00  0.00    +0.000 A 
ATOM     21  C   UNL     1       2.880   2.772  20.861  0.00  0.00    +0.000 A 
ATOM     22  C   UNL     1       1.502   2.707  20.943  0.00  0.00    +0.000 A 
ATOM     23  N   UNL     1       0.683   2.969  19.909  0.00  0.00    +0.000 NA
ATOM     24  C   UNL     1       1.270   3.301  18.736  0.00  0.00    +0.000 A 
ENDBRANCH  18  19
ENDBRANCH   6  18
TORSDOF 4
ENDMDL
MODEL 4
REMARK VINA RESULT:      -7.6      1.090      1.164
REMARK  Name = 
REMARK  5 active torsions:
REMARK  status: ('A' for Active; 'I' for Inactive)
REMARK    1  A    between atoms: C_1  and  C_2
REMARK    2  A    between atoms: C_5  and  C_6
REMARK    3  A    between atoms: C_9  and  C_11
REMARK    4  A    between atoms: N_17  and  C_18
REMARK    5  A    between atoms: C_18  and  C_19
REMARK                            x       y       z     vdW  Elec       q    Type
REMARK                         _______ _______ _______ _____ _____    ______ ____
ROOT
ATOM      1  C   UNL     1       4.342   2.083  19.621  0.00  0.00    +0.000 C 
ATOM      2  C   UNL     1       3.484   3.292  19.614  0.00  0.00    +0.000 A 
ATOM      3  C   UNL     1       2.115   3.398  19.722  0.00  0.00    +0.000 A 
ATOM      4  N   UNL     1       1.720   4.704  19.692  0.00  0.00    +0.000 NA
ATOM      5  C   UNL     1       2.824   5.416  19.616  0.00  0.00    +0.000 A 
ATOM      6  N   UNL     1       3.925   4.594  19.477  0.00  0.00    +0.000 N 
ENDROOT
BRANCH   5   7
ATOM      7  C   UNL     1       2.822   6.935  19.729  0.00  0.00    +0.000 C 
ATOM      8  C   UNL     1       2.311   7.667  18.464  0.00  0.00    +0.000 C 
ATOM      9  N   UNL     1       1.607   8.535  19.385  0.00  0.00    +0.000 N 
ATOM     10  C   UNL     1       1.093   9.785  19.206  0.00  0.00    +0.000 C 
ATOM     11  O   UNL     1       1.193  10.365  18.123  0.00  0.00    +0.000 OA
ATOM     12  C   UNL     1       1.602   7.562  20.455  0.00  0.00    +0.000 C 
BRANCH  10  13
ATOM     13  C   UNL     1       0.348  10.398  20.410  0.00  0.00    +0.000 C 
ATOM     14  C   UNL     1      -0.929  11.120  19.989  0.00  0.00    +0.000 C 
ATOM     15  C   UNL     1      -1.060  12.218  21.011  0.00  0.00    +0.000 C 
ATOM     16  C   UNL     1       0.382  12.560  21.301  0.00  0.00    +0.000 C 
ATOM     17  O   UNL     1       1.139  11.355  21.133  0.00  0.00    +0.000 OA
ENDBRANCH  10  13
ENDBRANCH   5   7
BRANCH   6  18
ATOM     18  C   UNL     1       5.302   5.028  19.259  0.00  0.00    +0.000 C 
BRANCH  18  19
ATOM     19  C   UNL     1       5.800   4.893  17.841  0.00  0.00    +0.000 A 
ATOM     20  C   UNL     1       4.996   4.878  16.696  0.00  0.00    +0.000 A 
ATOM     21  C   UNL     1       5.576   4.700  15.438  0.00  0.00    +0.000 A 
ATOM     22  C   UNL     1       6.948   4.549  15.359  0.00  0.00    +0.000 A 
ATOM     23  N   UNL     1       7.761   4.575  16.430  0.00  0.00    +0.000 NA
ATOM     24  C   UNL     1       7.174   4.749  17.636  0.00  0.00    +0.000 A 
ENDBRANCH  18  19
ENDBRANCH   6  18
TORSDOF 4
ENDMDL
MODEL 5
REMARK VINA RESULT:      -7.3      0.649      1.011
REMARK  Name = 
REMARK  5 active torsions:
REMARK  status: ('A' for Active; 'I' for Inactive)
REMARK    1  A    between atoms: C_1  and  C_2
REMARK    2  A    between atoms: C_5  and  C_6
REMARK    3  A    between atoms: C_9  and  C_11
REMARK    4  A    between atoms: N_17  and  C_18
REMARK    5  A    between atoms: C_18  and  C_19
REMARK                            x       y       z     vdW  Elec       q    Type
REMARK                         _______ _______ _______ _____ _____    ______ ____
ROOT
ATOM      1  C   UNL     1       3.714   1.401  18.499  0.00  0.00    +0.000 C 
ATOM      2  C   UNL     1       3.022   2.703  18.646  0.00  0.00    +0.000 A 
ATOM      3  C   UNL     1       1.674   2.988  18.640  0.00  0.00    +0.000 A 
ATOM      4  N   UNL     1       1.453   4.321  18.829  0.00  0.00    +0.000 NA
ATOM      5  C   UNL     1       2.638   4.865  19.001  0.00  0.00    +0.000 A 
ATOM      6  N   UNL     1       3.637   3.930  18.810  0.00  0.00    +0.000 N 
ENDROOT
BRANCH   5   7
ATOM      7  C   UNL     1       2.814   6.322  19.409  0.00  0.00    +0.000 C 
ATOM      8  C   UNL     1       2.034   7.329  18.528  0.00  0.00    +0.000 C 
ATOM      9  N   UNL     1       1.709   7.997  19.771  0.00  0.00    +0.000 N 
ATOM     10  C   UNL     1       1.288   9.271  20.008  0.00  0.00    +0.000 C 
ATOM     11  O   UNL     1       1.128  10.071  19.083  0.00  0.00    +0.000 OA
ATOM     12  C   UNL     1       1.919   6.814  20.578  0.00  0.00    +0.000 C 
BRANCH  10  13
ATOM     13  C   UNL     1       0.981   9.631  21.476  0.00  0.00    +0.000 C 
ATOM     14  C   UNL     1      -0.321   9.002  21.963  0.00  0.00    +0.000 C 
ATOM     15  C   UNL     1      -0.827   9.992  22.978  0.00  0.00    +0.000 C 
ATOM     16  C   UNL     1      -0.359  11.308  22.402  0.00  0.00    +0.000 C 
ATOM     17  O   UNL     1       0.859  11.045  21.697  0.00  0.00    +0.000 OA
ENDBRANCH  10  13
ENDBRANCH   5   7
BRANCH   6  18
ATOM     18  C   UNL     1       5.073   4.189  18.816  0.00  0.00    +0.000 C 
BRANCH  18  19
ATOM     19  C   UNL     1       5.693   4.391  17.455  0.00  0.00    +0.000 A 
ATOM     20  C   UNL     1       7.059   4.562  17.203  0.00  0.00    +0.000 A 
ATOM     21  C   UNL     1       7.505   4.788  15.898  0.00  0.00    +0.000 A 
ATOM     22  C   UNL     1       6.571   4.830  14.879  0.00  0.00    +0.000 A 
ATOM     23  N   UNL     1       5.252   4.653  15.073  0.00  0.00    +0.000 NA
ATOM     24  C   UNL     1       4.847   4.436  16.345  0.00  0.00    +0.000 A 
ENDBRANCH  18  19
ENDBRANCH   6  18
TORSDOF 4
ENDMDL
MODEL 6
REMARK VINA RESULT:      -7.3      0.979      1.444
REMARK  Name = 
REMARK  5 active torsions:
REMARK  status: ('A' for Active; 'I' for Inactive)
REMARK    1  A    between atoms: C_1  and  C_2
REMARK    2  A    between atoms: C_5  and  C_6
REMARK    3  A    between atoms: C_9  and  C_11
REMARK    4  A    between atoms: N_17  and  C_18
REMARK    5  A    between atoms: C_18  and  C_19
REMARK                            x       y       z     vdW  Elec       q    Type
REMARK                         _______ _______ _______ _____ _____    ______ ____
ROOT
ATOM      1  C   UNL     1       3.703   1.303  18.623  0.00  0.00    +0.000 C 
ATOM      2  C   UNL     1       3.117   2.661  18.524  0.00  0.00    +0.000 A 
ATOM      3  C   UNL     1       1.898   3.057  18.021  0.00  0.00    +0.000 A 
ATOM      4  N   UNL     1       1.733   4.406  18.137  0.00  0.00    +0.000 NA
ATOM      5  C   UNL     1       2.809   4.852  18.749  0.00  0.00    +0.000 A 
ATOM      6  N   UNL     1       3.725   3.834  18.928  0.00  0.00    +0.000 N 
ENDROOT
BRANCH   5   7
ATOM      7  C   UNL     1       2.940   6.295  19.218  0.00  0.00    +0.000 C 
ATOM      8  C   UNL     1       2.129   7.314  18.381  0.00  0.00    +0.000 C 
ATOM      9  N   UNL     1       1.785   7.918  19.652  0.00  0.00    +0.000 N 
ATOM     10  C   UNL     1       1.325   9.167  19.942  0.00  0.00    +0.000 C 
ATOM     11  O   UNL     1       1.139  10.000  19.052  0.00  0.00    +0.000 OA
ATOM     12  C   UNL     1       2.032   6.709  20.407  0.00  0.00    +0.000 C 
BRANCH  10  13
ATOM     13  C   UNL     1       1.009   9.454  21.425  0.00  0.00    +0.000 C 
ATOM     14  C   UNL     1      -0.335   8.871  21.851  0.00  0.00    +0.000 C 
ATOM     15  C   UNL     1      -0.806   9.825  22.916  0.00  0.00    +0.000 C 
ATOM     16  C   UNL     1      -0.256  11.145  22.430  0.00  0.00    +0.000 C 
ATOM     17  O   UNL     1       0.961  10.857  21.729  0.00  0.00    +0.000 OA
ENDBRANCH  10  13
ENDBRANCH   5   7
BRANCH   6  18
ATOM     18  C   UNL     1       5.072   3.972  19.474  0.00  0.00    +0.000 C 
BRANCH  18  19
ATOM     19  C   UNL     1       5.997   4.863  18.681  0.00  0.00    +0.000 A 
ATOM     20  C   UNL     1       6.959   5.723  19.223  0.00  0.00    +0.000 A 
ATOM     21  C   UNL     1       7.723   6.534  18.382  0.00  0.00    +0.000 A 
ATOM     22  C   UNL     1       7.510   6.458  17.018  0.00  0.00    +0.000 A 
ATOM     23  N   UNL     1       6.610   5.634  16.452  0.00  0.00    +0.000 NA
ATOM     24  C   UNL     1       5.882   4.859  17.289  0.00  0.00    +0.000 A 
ENDBRANCH  18  19
ENDBRANCH   6  18
TORSDOF 4
ENDMDL
MODEL 7
REMARK VINA RESULT:      -7.2      2.040      4.088
REMARK  Name = 
REMARK  5 active torsions:
REMARK  status: ('A' for Active; 'I' for Inactive)
REMARK    1  A    between atoms: C_1  and  C_2
REMARK    2  A    between atoms: C_5  and  C_6
REMARK    3  A    between atoms: C_9  and  C_11
REMARK    4  A    between atoms: N_17  and  C_18
REMARK    5  A    between atoms: C_18  and  C_19
REMARK                            x       y       z     vdW  Elec       q    Type
REMARK                         _______ _______ _______ _____ _____    ______ ____
ROOT
ATOM      1  C   UNL     1       6.534   4.461  17.555  0.00  0.00    +0.000 C 
ATOM      2  C   UNL     1       5.536   5.551  17.433  0.00  0.00    +0.000 A 
ATOM      3  C   UNL     1       5.469   6.583  16.524  0.00  0.00    +0.000 A 
ATOM      4  N   UNL     1       4.372   7.362  16.746  0.00  0.00    +0.000 NA
ATOM      5  C   UNL     1       3.727   6.805  17.748  0.00  0.00    +0.000 A 
ATOM      6  N   UNL     1       4.447   5.743  18.261  0.00  0.00    +0.000 N 
ENDROOT
BRANCH   5   7
ATOM      7  C   UNL     1       2.352   7.281  18.197  0.00  0.00    +0.000 C 
ATOM      8  C   UNL     1       2.296   7.776  19.663  0.00  0.00    +0.000 C 
ATOM      9  N   UNL     1       1.467   8.849  19.154  0.00  0.00    +0.000 N 
ATOM     10  C   UNL     1       0.598   9.678  19.799  0.00  0.00    +0.000 C 
ATOM     11  O   UNL     1       0.409   9.583  21.014  0.00  0.00    +0.000 OA
ATOM     12  C   UNL     1       1.974   8.735  17.804  0.00  0.00    +0.000 C 
BRANCH  10  13
ATOM     13  C   UNL     1      -0.086  10.759  18.936  0.00  0.00    +0.000 C 
ATOM     14  C   UNL     1      -0.127  12.114  19.636  0.00  0.00    +0.000 C 
ATOM     15  C   UNL     1      -1.387  12.742  19.103  0.00  0.00    +0.000 C 
ATOM     16  C   UNL     1      -2.288  11.545  18.916  0.00  0.00    +0.000 C 
ATOM     17  O   UNL     1      -1.443  10.433  18.597  0.00  0.00    +0.000 OA
ENDBRANCH  10  13
ENDBRANCH   5   7
BRANCH   6  18
ATOM     18  C   UNL     1       4.097   4.954  19.438  0.00  0.00    +0.000 C 
BRANCH  18  19
ATOM     19  C   UNL     1       2.860   4.101  19.294  0.00  0.00    +0.000 A 
ATOM     20  C   UNL     1       1.835   3.992  20.240  0.00  0.00    +0.000 A 
ATOM     21  C   UNL     1       0.761   3.130  20.009  0.00  0.00    +0.000 A 
ATOM     22  C   UNL     1       0.738   2.404  18.833  0.00  0.00    +0.000 A 
ATOM     23  N   UNL     1       1.691   2.490  17.888  0.00  0.00    +0.000 NA
ATOM     24  C   UNL     1       2.721   3.332  18.137  0.00  0.00    +0.000 A 
ENDBRANCH  18  19
ENDBRANCH   6  18
TORSDOF 4
ENDMDL
MODEL 8
REMARK VINA RESULT:      -7.2      1.027      1.190
REMARK  Name = 
REMARK  5 active torsions:
REMARK  status: ('A' for Active; 'I' for Inactive)
REMARK    1  A    between atoms: C_1  and  C_2
REMARK    2  A    between atoms: C_5  and  C_6
REMARK    3  A    between atoms: C_9  and  C_11
REMARK    4  A    between atoms: N_17  and  C_18
REMARK    5  A    between atoms: C_18  and  C_19
REMARK                            x       y       z     vdW  Elec       q    Type
REMARK                         _______ _______ _______ _____ _____    ______ ____
ROOT
ATOM      1  C   UNL     1       3.387   1.439  18.547  0.00  0.00    +0.000 C 
ATOM      2  C   UNL     1       2.842   2.815  18.459  0.00  0.00    +0.000 A 
ATOM      3  C   UNL     1       1.628   3.251  17.978  0.00  0.00    +0.000 A 
ATOM      4  N   UNL     1       1.509   4.605  18.098  0.00  0.00    +0.000 NA
ATOM      5  C   UNL     1       2.609   5.015  18.690  0.00  0.00    +0.000 A 
ATOM      6  N   UNL     1       3.495   3.968  18.852  0.00  0.00    +0.000 N 
ENDROOT
BRANCH   5   7
ATOM      7  C   UNL     1       2.795   6.453  19.157  0.00  0.00    +0.000 C 
ATOM      8  C   UNL     1       2.008   7.499  18.331  0.00  0.00    +0.000 C 
ATOM      9  N   UNL     1       1.701   8.113  19.606  0.00  0.00    +0.000 N 
ATOM     10  C   UNL     1       1.287   9.378  19.902  0.00  0.00    +0.000 C 
ATOM     11  O   UNL     1       1.117  10.217  19.015  0.00  0.00    +0.000 OA
ATOM     12  C   UNL     1       1.917   6.897  20.358  0.00  0.00    +0.000 C 
BRANCH  10  13
ATOM     13  C   UNL     1       1.000   9.674  21.389  0.00  0.00    +0.000 C 
ATOM     14  C   UNL     1      -0.238   8.939  21.895  0.00  0.00    +0.000 C 
ATOM     15  C   UNL     1      -0.783   9.863  22.951  0.00  0.00    +0.000 C 
ATOM     16  C   UNL     1      -0.429  11.223  22.401  0.00  0.00    +0.000 C 
ATOM     17  O   UNL     1       0.783  11.070  21.653  0.00  0.00    +0.000 OA
ENDBRANCH  10  13
ENDBRANCH   5   7
BRANCH   6  18
ATOM     18  C   UNL     1       4.855   4.063  19.374  0.00  0.00    +0.000 C 
BRANCH  18  19
ATOM     19  C   UNL     1       5.791   4.934  18.571  0.00  0.00    +0.000 A 
ATOM     20  C   UNL     1       5.721   5.143  17.190  0.00  0.00    +0.000 A 
ATOM     21  C   UNL     1       6.678   5.938  16.555  0.00  0.00    +0.000 A 
ATOM     22  C   UNL     1       7.676   6.509  17.321  0.00  0.00    +0.000 A 
ATOM     23  N   UNL     1       7.772   6.351  18.653  0.00  0.00    +0.000 NA
ATOM     24  C   UNL     1       6.833   5.576  19.244  0.00  0.00    +0.000 A 
ENDBRANCH  18  19
ENDBRANCH   6  18
TORSDOF 4
ENDMDL
MODEL 9
REMARK VINA RESULT:      -7.1      1.486      1.890
REMARK  Name = 
REMARK  5 active torsions:
REMARK  status: ('A' for Active; 'I' for Inactive)
REMARK    1  A    between atoms: C_1  and  C_2
REMARK    2  A    between atoms: C_5  and  C_6
REMARK    3  A    between atoms: C_9  and  C_11
REMARK    4  A    between atoms: N_17  and  C_18
REMARK    5  A    between atoms: C_18  and  C_19
REMARK                            x       y       z     vdW  Elec       q    Type
REMARK                         _______ _______ _______ _____ _____    ______ ____
ROOT
ATOM      1  C   UNL     1       3.204   1.510  18.834  0.00  0.00    +0.000 C 
ATOM      2  C   UNL     1       2.916   2.825  19.454  0.00  0.00    +0.000 A 
ATOM      3  C   UNL     1       2.471   3.119  20.724  0.00  0.00    +0.000 A 
ATOM      4  N   UNL     1       2.355   4.467  20.904  0.00  0.00    +0.000 NA
ATOM      5  C   UNL     1       2.766   5.020  19.783  0.00  0.00    +0.000 A 
ATOM      6  N   UNL     1       3.037   4.054  18.834  0.00  0.00    +0.000 N 
ENDROOT
BRANCH   5   7
ATOM      7  C   UNL     1       2.949   6.525  19.637  0.00  0.00    +0.000 C 
ATOM      8  C   UNL     1       2.542   7.084  18.252  0.00  0.00    +0.000 C 
ATOM      9  N   UNL     1       1.940   8.174  18.991  0.00  0.00    +0.000 N 
ATOM     10  C   UNL     1       1.584   9.427  18.588  0.00  0.00    +0.000 C 
ATOM     11  O   UNL     1       1.763   9.797  17.426  0.00  0.00    +0.000 OA
ATOM     12  C   UNL     1       1.807   7.407  20.210  0.00  0.00    +0.000 C 
BRANCH  10  13
ATOM     13  C   UNL     1       0.908  10.322  19.648  0.00  0.00    +0.000 C 
ATOM     14  C   UNL     1      -0.614  10.240  19.584  0.00  0.00    +0.000 C 
ATOM     15  C   UNL     1      -1.055  11.607  20.038  0.00  0.00    +0.000 C 
ATOM     16  C   UNL     1       0.048  12.491  19.507  0.00  0.00    +0.000 C 
ATOM     17  O   UNL     1       1.249  11.710  19.513  0.00  0.00    +0.000 OA
ENDBRANCH  10  13
ENDBRANCH   5   7
BRANCH   6  18
ATOM     18  C   UNL     1       3.414   4.293  17.444  0.00  0.00    +0.000 C 
BRANCH  18  19
ATOM     19  C   UNL     1       4.899   4.389  17.190  0.00  0.00    +0.000 A 
ATOM     20  C   UNL     1       5.877   4.610  18.165  0.00  0.00    +0.000 A 
ATOM     21  C   UNL     1       7.219   4.726  17.794  0.00  0.00    +0.000 A 
ATOM     22  C   UNL     1       7.547   4.611  16.456  0.00  0.00    +0.000 A 
ATOM     23  N   UNL     1       6.643   4.381  15.487  0.00  0.00    +0.000 NA
ATOM     24  C   UNL     1       5.350   4.273  15.873  0.00  0.00    +0.000 A 
ENDBRANCH  18  19
ENDBRANCH   6  18
TORSDOF 4
ENDMDL
