MODEL 1
REMARK VINA RESULT:      -7.7      0.000      0.000
REMARK  Name = 
REMARK  5 active torsions:
REMARK  status: ('A' for Active; 'I' for Inactive)
REMARK    1  A    between atoms: C_1  and  C_2
REMARK    2  A    between atoms: C_4  and  C_5
REMARK    3  A    between atoms: C_5  and  N_6
REMARK    4  A    between atoms: N_9  and  C_10
REMARK    5  A    between atoms: N_20  and  C_21
REMARK                            x       y       z     vdW  Elec       q    Type
REMARK                         _______ _______ _______ _____ _____    ______ ____
ROOT
ATOM      1  N   UNL     1       5.475   4.813  17.842  0.00  0.00    +0.000 N 
ATOM      2  C   UNL     1       4.818   6.019  17.917  0.00  0.00    +0.000 C 
ATOM      3  O   UNL     1       5.354   7.048  17.536  0.00  0.00    +0.000 OA
ATOM      4  N   UNL     1       3.575   5.930  18.519  0.00  0.00    +0.000 N 
ATOM      5  H   UNL     1       4.943   3.961  17.776  0.00  0.00    +0.000 HD
ATOM      6  H   UNL     1       3.398   5.100  19.058  0.00  0.00    +0.000 HD
ENDROOT
BRANCH   4   7
ATOM      7  C   UNL     1       2.724   7.046  18.739  0.00  0.00    +0.000 A 
ATOM      8  C   UNL     1       2.398   7.957  17.709  0.00  0.00    +0.000 A 
ATOM      9  C   UNL     1       1.643   9.104  17.949  0.00  0.00    +0.000 A 
ATOM     10  C   UNL     1       1.208   9.317  19.232  0.00  0.00    +0.000 A 
ATOM     11  C   UNL     1       1.478   8.422  20.242  0.00  0.00    +0.000 A 
ATOM     12  C   UNL     1       2.213   7.266  20.026  0.00  0.00    +0.000 A 
ATOM     13  O   UNL     1       0.965   8.833  21.434  0.00  0.00    +0.000 OA
ATOM     14  C   UNL     1       0.418  10.122  21.067  0.00  0.00    +0.000 C 
ATOM     15  O   UNL     1       0.499  10.397  19.655  0.00  0.00    +0.000 OA
ENDBRANCH   4   7
BRANCH   1  16
ATOM     16  C   UNL     1       6.825   4.795  17.298  0.00  0.00    +0.000 C 
BRANCH  16  20
ATOM     17  C   UNL     1       5.759   3.371  12.497  0.00  0.00    +0.000 C 
ATOM     18  C   UNL     1       6.302   3.971  13.739  0.00  0.00    +0.000 A 
ATOM     19  C   UNL     1       5.975   3.755  15.059  0.00  0.00    +0.000 A 
ATOM     20  C   UNL     1       6.824   4.604  15.811  0.00  0.00    +0.000 A 
ATOM     21  N   UNL     1       7.640   5.307  15.008  0.00  0.00    +0.000 NA
ATOM     22  N   UNL     1       7.297   4.914  13.762  0.00  0.00    +0.000 N 
ATOM     23  C   UNL     1       7.976   5.478  12.618  0.00  0.00    +0.000 C 
ENDBRANCH  16  20
ENDBRANCH   1  16
TORSDOF 3
ENDMDL
MODEL 2
REMARK VINA RESULT:      -7.4      5.695      7.223
REMARK  Name = 
REMARK  5 active torsions:
REMARK  status: ('A' for Active; 'I' for Inactive)
REMARK    1  A    between atoms: C_1  and  C_2
REMARK    2  A    between atoms: C_4  and  C_5
REMARK    3  A    between atoms: C_5  and  N_6
REMARK    4  A    between atoms: N_9  and  C_10
REMARK    5  A    between atoms: N_20  and  C_21
REMARK                            x       y       z     vdW  Elec       q    Type
REMARK                         _______ _______ _______ _____ _____    ______ ____
ROOT
ATOM      1  N   UNL     1       8.016   7.003  18.354  0.00  0.00    +0.000 N 
ATOM      2  C   UNL     1       8.188   8.362  18.240  0.00  0.00    +0.000 C 
ATOM      3  O   UNL     1       7.720   8.975  17.293  0.00  0.00    +0.000 OA
ATOM      4  N   UNL     1       8.984   8.899  19.236  0.00  0.00    +0.000 N 
ATOM      5  H   UNL     1       8.042   6.573  19.264  0.00  0.00    +0.000 HD
ATOM      6  H   UNL     1       9.550   8.250  19.755  0.00  0.00    +0.000 HD
ENDROOT
BRANCH   4   7
ATOM      7  C   UNL     1       9.332  10.275  19.312  0.00  0.00    +0.000 A 
ATOM      8  C   UNL     1       9.315  10.988  20.532  0.00  0.00    +0.000 A 
ATOM      9  C   UNL     1       9.562  12.359  20.588  0.00  0.00    +0.000 A 
ATOM     10  C   UNL     1       9.841  13.001  19.409  0.00  0.00    +0.000 A 
ATOM     11  C   UNL     1       9.904  12.318  18.215  0.00  0.00    +0.000 A 
ATOM     12  C   UNL     1       9.678  10.952  18.134  0.00  0.00    +0.000 A 
ATOM     13  O   UNL     1      10.181  13.147  17.172  0.00  0.00    +0.000 OA
ATOM     14  C   UNL     1      10.201  14.431  17.840  0.00  0.00    +0.000 C 
ATOM     15  O   UNL     1      10.065  14.334  19.271  0.00  0.00    +0.000 OA
ENDBRANCH   4   7
BRANCH   1  16
ATOM     16  C   UNL     1       7.260   6.314  17.317  0.00  0.00    +0.000 C 
BRANCH  16  20
ATOM     17  C   UNL     1       2.437   5.043  18.475  0.00  0.00    +0.000 C 
ATOM     18  C   UNL     1       3.909   5.138  18.319  0.00  0.00    +0.000 A 
ATOM     19  C   UNL     1       4.687   6.087  17.694  0.00  0.00    +0.000 A 
ATOM     20  C   UNL     1       6.027   5.662  17.866  0.00  0.00    +0.000 A 
ATOM     21  N   UNL     1       6.086   4.516  18.565  0.00  0.00    +0.000 NA
ATOM     22  N   UNL     1       4.793   4.215  18.816  0.00  0.00    +0.000 N 
ATOM     23  C   UNL     1       4.463   3.020  19.558  0.00  0.00    +0.000 C 
ENDBRANCH  16  20
ENDBRANCH   1  16
TORSDOF 3
ENDMDL
MODEL 3
REMARK VINA RESULT:      -7.2      5.578      6.896
REMARK  Name = 
REMARK  5 active torsions:
REMARK  status: ('A' for Active; 'I' for Inactive)
REMARK    1  A    between atoms: C_1  and  C_2
REMARK    2  A    between atoms: C_4  and  C_5
REMARK    3  A    between atoms: C_5  and  N_6
REMARK    4  A    between atoms: N_9  and  C_10
REMARK    5  A    between atoms: N_20  and  C_21
REMARK                            x       y       z     vdW  Elec       q    Type
REMARK                         _______ _______ _______ _____ _____    ______ ____
ROOT
ATOM      1  N   UNL     1       7.948   6.648  18.253  0.00  0.00    +0.000 N 
ATOM      2  C   UNL     1       8.054   8.010  18.099  0.00  0.00    +0.000 C 
ATOM      3  O   UNL     1       7.567   8.570  17.128  0.00  0.00    +0.000 OA
ATOM      4  N   UNL     1       8.809   8.617  19.087  0.00  0.00    +0.000 N 
ATOM      5  H   UNL     1       7.984   6.248  19.176  0.00  0.00    +0.000 HD
ATOM      6  H   UNL     1       9.400   8.013  19.631  0.00  0.00    +0.000 HD
ENDROOT
BRANCH   4   7
ATOM      7  C   UNL     1       9.087  10.010  19.123  0.00  0.00    +0.000 A 
ATOM      8  C   UNL     1       9.115  10.801  17.953  0.00  0.00    +0.000 A 
ATOM      9  C   UNL     1       9.483  12.146  17.980  0.00  0.00    +0.000 A 
ATOM     10  C   UNL     1       9.807  12.689  19.197  0.00  0.00    +0.000 A 
ATOM     11  C   UNL     1       9.745  11.947  20.355  0.00  0.00    +0.000 A 
ATOM     12  C   UNL     1       9.367  10.613  20.357  0.00  0.00    +0.000 A 
ATOM     13  O   UNL     1      10.119  12.675  21.443  0.00  0.00    +0.000 OA
ATOM     14  C   UNL     1      10.498  13.925  20.818  0.00  0.00    +0.000 C 
ATOM     15  O   UNL     1      10.225  13.965  19.404  0.00  0.00    +0.000 OA
ENDBRANCH   4   7
BRANCH   1  16
ATOM     16  C   UNL     1       7.241   5.891  17.230  0.00  0.00    +0.000 C 
BRANCH  16  20
ATOM     17  C   UNL     1       2.342   4.627  18.016  0.00  0.00    +0.000 C 
ATOM     18  C   UNL     1       3.817   4.773  18.034  0.00  0.00    +0.000 A 
ATOM     19  C   UNL     1       4.648   5.599  17.310  0.00  0.00    +0.000 A 
ATOM     20  C   UNL     1       5.962   5.308  17.752  0.00  0.00    +0.000 A 
ATOM     21  N   UNL     1       5.955   4.359  18.703  0.00  0.00    +0.000 NA
ATOM     22  N   UNL     1       4.648   4.046  18.847  0.00  0.00    +0.000 N 
ATOM     23  C   UNL     1       4.252   3.035  19.801  0.00  0.00    +0.000 C 
ENDBRANCH  16  20
ENDBRANCH   1  16
TORSDOF 3
ENDMDL
MODEL 4
REMARK VINA RESULT:      -7.2      5.653      7.484
REMARK  Name = 
REMARK  5 active torsions:
REMARK  status: ('A' for Active; 'I' for Inactive)
REMARK    1  A    between atoms: C_1  and  C_2
REMARK    2  A    between atoms: C_4  and  C_5
REMARK    3  A    between atoms: C_5  and  N_6
REMARK    4  A    between atoms: N_9  and  C_10
REMARK    5  A    between atoms: N_20  and  C_21
REMARK                            x       y       z     vdW  Elec       q    Type
REMARK                         _______ _______ _______ _____ _____    ______ ____
ROOT
ATOM      1  N   UNL     1       8.217   9.464  17.770  0.00  0.00    +0.000 N 
ATOM      2  C   UNL     1       7.810   8.161  17.935  0.00  0.00    +0.000 C 
ATOM      3  O   UNL     1       8.359   7.432  18.747  0.00  0.00    +0.000 OA
ATOM      4  N   UNL     1       6.811   7.783  17.056  0.00  0.00    +0.000 N 
ATOM      5  H   UNL     1       7.565  10.149  17.425  0.00  0.00    +0.000 HD
ATOM      6  H   UNL     1       6.679   8.371  16.250  0.00  0.00    +0.000 HD
ENDROOT
BRANCH   4   7
ATOM      7  C   UNL     1       6.251   6.478  17.012  0.00  0.00    +0.000 A 
ATOM      8  C   UNL     1       6.811   5.447  16.225  0.00  0.00    +0.000 A 
ATOM      9  C   UNL     1       6.206   4.196  16.107  0.00  0.00    +0.000 A 
ATOM     10  C   UNL     1       5.040   3.990  16.801  0.00  0.00    +0.000 A 
ATOM     11  C   UNL     1       4.500   4.967  17.607  0.00  0.00    +0.000 A 
ATOM     12  C   UNL     1       5.091   6.213  17.753  0.00  0.00    +0.000 A 
ATOM     13  O   UNL     1       3.340   4.558  18.189  0.00  0.00    +0.000 OA
ATOM     14  C   UNL     1       3.179   3.250  17.589  0.00  0.00    +0.000 C 
ATOM     15  O   UNL     1       4.296   2.854  16.771  0.00  0.00    +0.000 OA
ENDBRANCH   4   7
BRANCH   1  16
ATOM     16  C   UNL     1       9.319   9.952  18.588  0.00  0.00    +0.000 C 
BRANCH  16  20
ATOM     17  C   UNL     1       9.585  15.011  17.843  0.00  0.00    +0.000 C 
ATOM     18  C   UNL     1       9.811  13.547  17.918  0.00  0.00    +0.000 A 
ATOM     19  C   UNL     1       8.995  12.533  18.365  0.00  0.00    +0.000 A 
ATOM     20  C   UNL     1       9.735  11.337  18.194  0.00  0.00    +0.000 A 
ATOM     21  N   UNL     1      10.944  11.588  17.664  0.00  0.00    +0.000 NA
ATOM     22  N   UNL     1      10.969  12.930  17.517  0.00  0.00    +0.000 N 
ATOM     23  C   UNL     1      12.142  13.572  16.970  0.00  0.00    +0.000 C 
ENDBRANCH  16  20
ENDBRANCH   1  16
TORSDOF 3
ENDMDL
MODEL 5
REMARK VINA RESULT:      -7.2      5.800      7.608
REMARK  Name = 
REMARK  5 active torsions:
REMARK  status: ('A' for Active; 'I' for Inactive)
REMARK    1  A    between atoms: C_1  and  C_2
REMARK    2  A    between atoms: C_4  and  C_5
REMARK    3  A    between atoms: C_5  and  N_6
REMARK    4  A    between atoms: N_9  and  C_10
REMARK    5  A    between atoms: N_20  and  C_21
REMARK                            x       y       z     vdW  Elec       q    Type
REMARK                         _______ _______ _______ _____ _____    ______ ____
ROOT
ATOM      1  N   UNL     1       8.279   9.627  17.805  0.00  0.00    +0.000 N 
ATOM      2  C   UNL     1       7.866   8.325  17.961  0.00  0.00    +0.000 C 
ATOM      3  O   UNL     1       8.409   7.589  18.771  0.00  0.00    +0.000 OA
ATOM      4  N   UNL     1       6.867   7.957  17.077  0.00  0.00    +0.000 N 
ATOM      5  H   UNL     1       7.631  10.316  17.462  0.00  0.00    +0.000 HD
ATOM      6  H   UNL     1       6.740   8.549  16.275  0.00  0.00    +0.000 HD
ENDROOT
BRANCH   4   7
ATOM      7  C   UNL     1       6.302   6.654  17.024  0.00  0.00    +0.000 A 
ATOM      8  C   UNL     1       6.970   5.570  16.413  0.00  0.00    +0.000 A 
ATOM      9  C   UNL     1       6.372   4.317  16.276  0.00  0.00    +0.000 A 
ATOM     10  C   UNL     1       5.103   4.164  16.773  0.00  0.00    +0.000 A 
ATOM     11  C   UNL     1       4.450   5.196  17.410  0.00  0.00    +0.000 A 
ATOM     12  C   UNL     1       5.029   6.445  17.573  0.00  0.00    +0.000 A 
ATOM     13  O   UNL     1       3.202   4.832  17.812  0.00  0.00    +0.000 OA
ATOM     14  C   UNL     1       3.123   3.488  17.281  0.00  0.00    +0.000 C 
ATOM     15  O   UNL     1       4.356   3.032  16.692  0.00  0.00    +0.000 OA
ENDBRANCH   4   7
BRANCH   1  16
ATOM     16  C   UNL     1       9.381  10.105  18.629  0.00  0.00    +0.000 C 
BRANCH  16  20
ATOM     17  C   UNL     1      11.702  14.352  16.958  0.00  0.00    +0.000 C 
ATOM     18  C   UNL     1      10.789  13.335  17.533  0.00  0.00    +0.000 A 
ATOM     19  C   UNL     1      10.940  11.975  17.687  0.00  0.00    +0.000 A 
ATOM     20  C   UNL     1       9.747  11.521  18.302  0.00  0.00    +0.000 A 
ATOM     21  N   UNL     1       8.900  12.539  18.526  0.00  0.00    +0.000 NA
ATOM     22  N   UNL     1       9.548  13.621  18.043  0.00  0.00    +0.000 N 
ATOM     23  C   UNL     1       8.924  14.923  18.108  0.00  0.00    +0.000 C 
ENDBRANCH  16  20
ENDBRANCH   1  16
TORSDOF 3
ENDMDL
MODEL 6
REMARK VINA RESULT:      -6.9      2.071      2.949
REMARK  Name = 
REMARK  5 active torsions:
REMARK  status: ('A' for Active; 'I' for Inactive)
REMARK    1  A    between atoms: C_1  and  C_2
REMARK    2  A    between atoms: C_4  and  C_5
REMARK    3  A    between atoms: C_5  and  N_6
REMARK    4  A    between atoms: N_9  and  C_10
REMARK    5  A    between atoms: N_20  and  C_21
REMARK                            x       y       z     vdW  Elec       q    Type
REMARK                         _______ _______ _______ _____ _____    ______ ____
ROOT
ATOM      1  N   UNL     1       3.135   4.652  20.207  0.00  0.00    +0.000 N 
ATOM      2  C   UNL     1       2.427   5.690  19.648  0.00  0.00    +0.000 C 
ATOM      3  O   UNL     1       2.007   5.617  18.504  0.00  0.00    +0.000 OA
ATOM      4  N   UNL     1       2.330   6.795  20.475  0.00  0.00    +0.000 N 
ATOM      5  H   UNL     1       3.139   4.534  21.206  0.00  0.00    +0.000 HD
ATOM      6  H   UNL     1       2.977   6.836  21.244  0.00  0.00    +0.000 HD
ENDROOT
BRANCH   4   7
ATOM      7  C   UNL     1       1.675   8.001  20.107  0.00  0.00    +0.000 A 
ATOM      8  C   UNL     1       1.883   8.615  18.851  0.00  0.00    +0.000 A 
ATOM      9  C   UNL     1       1.317   9.848  18.529  0.00  0.00    +0.000 A 
ATOM     10  C   UNL     1       0.527  10.447  19.477  0.00  0.00    +0.000 A 
ATOM     11  C   UNL     1       0.276   9.846  20.690  0.00  0.00    +0.000 A 
ATOM     12  C   UNL     1       0.815   8.614  21.028  0.00  0.00    +0.000 A 
ATOM     13  O   UNL     1      -0.519  10.617  21.482  0.00  0.00    +0.000 OA
ATOM     14  C   UNL     1      -0.664  11.798  20.657  0.00  0.00    +0.000 C 
ATOM     15  O   UNL     1      -0.070  11.662  19.352  0.00  0.00    +0.000 OA
ENDBRANCH   4   7
BRANCH   1  16
ATOM     16  C   UNL     1       3.370   3.464  19.399  0.00  0.00    +0.000 C 
BRANCH  16  20
ATOM     17  C   UNL     1       6.104   3.965  15.098  0.00  0.00    +0.000 C 
ATOM     18  C   UNL     1       5.599   3.910  16.491  0.00  0.00    +0.000 A 
ATOM     19  C   UNL     1       4.368   3.541  16.987  0.00  0.00    +0.000 A 
ATOM     20  C   UNL     1       4.461   3.679  18.394  0.00  0.00    +0.000 A 
ATOM     21  N   UNL     1       5.683   4.104  18.759  0.00  0.00    +0.000 NA
ATOM     22  N   UNL     1       6.346   4.245  17.591  0.00  0.00    +0.000 N 
ATOM     23  C   UNL     1       7.717   4.702  17.593  0.00  0.00    +0.000 C 
ENDBRANCH  16  20
ENDBRANCH   1  16
TORSDOF 3
ENDMDL
MODEL 7
REMARK VINA RESULT:      -6.9      5.784      7.266
REMARK  Name = 
REMARK  5 active torsions:
REMARK  status: ('A' for Active; 'I' for Inactive)
REMARK    1  A    between atoms: C_1  and  C_2
REMARK    2  A    between atoms: C_4  and  C_5
REMARK    3  A    between atoms: C_5  and  N_6
REMARK    4  A    between atoms: N_9  and  C_10
REMARK    5  A    between atoms: N_20  and  C_21
REMARK                            x       y       z     vdW  Elec       q    Type
REMARK                         _______ _______ _______ _____ _____    ______ ____
ROOT
ATOM      1  N   UNL     1       7.966   7.142  18.174  0.00  0.00    +0.000 N 
ATOM      2  C   UNL     1       8.156   8.504  18.139  0.00  0.00    +0.000 C 
ATOM      3  O   UNL     1       7.663   9.182  17.251  0.00  0.00    +0.000 OA
ATOM      4  N   UNL     1       8.997   8.966  19.136  0.00  0.00    +0.000 N 
ATOM      5  H   UNL     1       8.019   6.655  19.053  0.00  0.00    +0.000 HD
ATOM      6  H   UNL     1       9.571   8.277  19.591  0.00  0.00    +0.000 HD
ENDROOT
BRANCH   4   7
ATOM      7  C   UNL     1       9.369  10.329  19.285  0.00  0.00    +0.000 A 
ATOM      8  C   UNL     1       9.332  10.985  20.536  0.00  0.00    +0.000 A 
ATOM      9  C   UNL     1       9.604  12.347  20.663  0.00  0.00    +0.000 A 
ATOM     10  C   UNL     1       9.928  13.036  19.523  0.00  0.00    +0.000 A 
ATOM     11  C   UNL     1      10.012  12.408  18.300  0.00  0.00    +0.000 A 
ATOM     12  C   UNL     1       9.761  11.052  18.150  0.00  0.00    +0.000 A 
ATOM     13  O   UNL     1      10.334  13.278  17.305  0.00  0.00    +0.000 OA
ATOM     14  C   UNL     1      10.360  14.529  18.032  0.00  0.00    +0.000 C 
ATOM     15  O   UNL     1      10.182  14.370  19.453  0.00  0.00    +0.000 OA
ENDBRANCH   4   7
BRANCH   1  16
ATOM     16  C   UNL     1       7.162   6.531  17.125  0.00  0.00    +0.000 C 
BRANCH  16  20
ATOM     17  C   UNL     1       4.210   3.164  19.608  0.00  0.00    +0.000 C 
ATOM     18  C   UNL     1       4.772   4.278  18.808  0.00  0.00    +0.000 A 
ATOM     19  C   UNL     1       6.073   4.577  18.472  0.00  0.00    +0.000 A 
ATOM     20  C   UNL     1       6.009   5.755  17.688  0.00  0.00    +0.000 A 
ATOM     21  N   UNL     1       4.740   6.167  17.536  0.00  0.00    +0.000 NA
ATOM     22  N   UNL     1       4.014   5.264  18.230  0.00  0.00    +0.000 N 
ATOM     23  C   UNL     1       2.576   5.395  18.297  0.00  0.00    +0.000 C 
ENDBRANCH  16  20
ENDBRANCH   1  16
TORSDOF 3
ENDMDL
MODEL 8
REMARK VINA RESULT:      -6.9      3.982      8.400
REMARK  Name = 
REMARK  5 active torsions:
REMARK  status: ('A' for Active; 'I' for Inactive)
REMARK    1  A    between atoms: C_1  and  C_2
REMARK    2  A    between atoms: C_4  and  C_5
REMARK    3  A    between atoms: C_5  and  N_6
REMARK    4  A    between atoms: N_9  and  C_10
REMARK    5  A    between atoms: N_20  and  C_21
REMARK                            x       y       z     vdW  Elec       q    Type
REMARK                         _______ _______ _______ _____ _____    ______ ____
ROOT
ATOM      1  N   UNL     1       1.745   9.612  17.953  0.00  0.00    +0.000 N 
ATOM      2  C   UNL     1       2.034   8.429  18.591  0.00  0.00    +0.000 C 
ATOM      3  O   UNL     1       1.872   8.312  19.796  0.00  0.00    +0.000 OA
ATOM      4  N   UNL     1       2.578   7.472  17.753  0.00  0.00    +0.000 N 
ATOM      5  H   UNL     1       1.504   9.603  16.976  0.00  0.00    +0.000 HD
ATOM      6  H   UNL     1       2.943   7.802  16.876  0.00  0.00    +0.000 HD
ENDROOT
BRANCH   4   7
ATOM      7  C   UNL     1       2.988   6.183  18.189  0.00  0.00    +0.000 A 
ATOM      8  C   UNL     1       4.234   5.964  18.817  0.00  0.00    +0.000 A 
ATOM      9  C   UNL     1       4.676   4.685  19.155  0.00  0.00    +0.000 A 
ATOM     10  C   UNL     1       3.844   3.633  18.868  0.00  0.00    +0.000 A 
ATOM     11  C   UNL     1       2.608   3.828  18.295  0.00  0.00    +0.000 A 
ATOM     12  C   UNL     1       2.140   5.090  17.963  0.00  0.00    +0.000 A 
ATOM     13  O   UNL     1       1.956   2.651  18.085  0.00  0.00    +0.000 OA
ATOM     14  C   UNL     1       2.960   1.701  18.517  0.00  0.00    +0.000 C 
ATOM     15  O   UNL     1       4.127   2.322  19.089  0.00  0.00    +0.000 OA
ENDBRANCH   4   7
BRANCH   1  16
ATOM     16  C   UNL     1       1.240  10.721  18.751  0.00  0.00    +0.000 C 
BRANCH  16  20
ATOM     17  C   UNL     1      -3.699  10.140  17.534  0.00  0.00    +0.000 C 
ATOM     18  C   UNL     1      -2.385  10.554  18.081  0.00  0.00    +0.000 A 
ATOM     19  C   UNL     1      -1.114  10.100  17.808  0.00  0.00    +0.000 A 
ATOM     20  C   UNL     1      -0.246  10.867  18.624  0.00  0.00    +0.000 A 
ATOM     21  N   UNL     1      -0.934  11.756  19.361  0.00  0.00    +0.000 NA
ATOM     22  N   UNL     1      -2.223  11.538  19.022  0.00  0.00    +0.000 N 
ATOM     23  C   UNL     1      -3.270  12.324  19.634  0.00  0.00    +0.000 C 
ENDBRANCH  16  20
ENDBRANCH   1  16
TORSDOF 3
ENDMDL
MODEL 9
REMARK VINA RESULT:      -6.9      3.444      8.406
REMARK  Name = 
REMARK  5 active torsions:
REMARK  status: ('A' for Active; 'I' for Inactive)
REMARK    1  A    between atoms: C_1  and  C_2
REMARK    2  A    between atoms: C_4  and  C_5
REMARK    3  A    between atoms: C_5  and  N_6
REMARK    4  A    between atoms: N_9  and  C_10
REMARK    5  A    between atoms: N_20  and  C_21
REMARK                            x       y       z     vdW  Elec       q    Type
REMARK                         _______ _______ _______ _____ _____    ______ ____
ROOT
ATOM      1  N   UNL     1       1.274   9.268  19.378  0.00  0.00    +0.000 N 
ATOM      2  C   UNL     1       2.047   8.587  18.468  0.00  0.00    +0.000 C 
ATOM      3  O   UNL     1       2.353   9.097  17.401  0.00  0.00    +0.000 OA
ATOM      4  N   UNL     1       2.346   7.294  18.860  0.00  0.00    +0.000 N 
ATOM      5  H   UNL     1       1.344   9.043  20.357  0.00  0.00    +0.000 HD
ATOM      6  H   UNL     1       1.778   6.908  19.595  0.00  0.00    +0.000 HD
ENDROOT
BRANCH   4   7
ATOM      7  C   UNL     1       3.103   6.386  18.072  0.00  0.00    +0.000 A 
ATOM      8  C   UNL     1       2.704   5.044  17.883  0.00  0.00    +0.000 A 
ATOM      9  C   UNL     1       3.498   4.129  17.191  0.00  0.00    +0.000 A 
ATOM     10  C   UNL     1       4.686   4.582  16.680  0.00  0.00    +0.000 A 
ATOM     11  C   UNL     1       5.074   5.897  16.816  0.00  0.00    +0.000 A 
ATOM     12  C   UNL     1       4.296   6.829  17.486  0.00  0.00    +0.000 A 
ATOM     13  O   UNL     1       6.289   6.127  16.247  0.00  0.00    +0.000 OA
ATOM     14  C   UNL     1       6.647   4.792  15.816  0.00  0.00    +0.000 C 
ATOM     15  O   UNL     1       5.599   3.825  16.016  0.00  0.00    +0.000 OA
ENDBRANCH   4   7
BRANCH   1  16
ATOM     16  C   UNL     1       0.831  10.612  19.038  0.00  0.00    +0.000 C 
BRANCH  16  20
ATOM     17  C   UNL     1      -4.158  11.605  18.451  0.00  0.00    +0.000 C 
ATOM     18  C   UNL     1      -2.761  11.118  18.356  0.00  0.00    +0.000 A 
ATOM     19  C   UNL     1      -1.665  11.370  19.152  0.00  0.00    +0.000 A 
ATOM     20  C   UNL     1      -0.598  10.630  18.585  0.00  0.00    +0.000 A 
ATOM     21  N   UNL     1      -1.004   9.949  17.500  0.00  0.00    +0.000 NA
ATOM     22  N   UNL     1      -2.310  10.270  17.378  0.00  0.00    +0.000 N 
ATOM     23  C   UNL     1      -3.089   9.715  16.294  0.00  0.00    +0.000 C 
ENDBRANCH  16  20
ENDBRANCH   1  16
TORSDOF 3
ENDMDL
