MODEL 1
REMARK VINA RESULT:      -7.0      0.000      0.000
REMARK  Name = 
REMARK  13 active torsions:
REMARK  status: ('A' for Active; 'I' for Inactive)
REMARK    1  A    between atoms: C_1  and  O_2
REMARK    2  A    between atoms: O_2  and  C_3
REMARK    3  A    between atoms: C_3  and  C_4
REMARK    4  A    between atoms: C_7  and  O_8
REMARK    5  A    between atoms: O_8  and  C_9
REMARK    6  A    between atoms: C_9  and  C_10
REMARK    7  A    between atoms: C_17  and  C_18
REMARK    8  A    between atoms: C_18  and  O_19
REMARK    9  A    between atoms: O_19  and  C_20
REMARK   10  A    between atoms: C_20  and  C_21
REMARK   11  A    between atoms: C_27  and  C_28
REMARK   12  A    between atoms: C_27  and  O_29
REMARK   13  A    between atoms: O_29  and  C_30
REMARK                            x       y       z     vdW  Elec       q    Type
REMARK                         _______ _______ _______ _____ _____    ______ ____
ROOT
ATOM      1  C   UNL     1       6.426   5.723  17.388  0.00  0.00    +0.000 C 
ATOM      2  C   UNL     1       7.216   6.924  16.830  0.00  0.00    +0.000 C 
ATOM      3  O   UNL     1       5.273   6.332  18.019  0.00  0.00    +0.000 OA
ATOM      4  C   UNL     1       4.245   5.403  18.365  0.00  0.00    +0.000 C 
ATOM      5  C   UNL     1       2.959   6.108  18.883  0.00  0.00    +0.000 C 
ATOM      6  C   UNL     1       1.916   5.070  19.230  0.00  0.00    +0.000 C 
ATOM      7  C   UNL     1       1.900   3.799  18.797  0.00  0.00    +0.000 C 
ATOM      8  C   UNL     1       3.029   3.330  17.937  0.00  0.00    +0.000 C 
ATOM      9  O   UNL     1       3.254   2.120  17.847  0.00  0.00    +0.000 OA
ATOM     10  C   UNL     1       3.887   4.408  17.257  0.00  0.00    +0.000 C 
ATOM     11  O   UNL     1       5.036   3.790  16.665  0.00  0.00    +0.000 OA
ATOM     12  C   UNL     1       5.998   4.746  16.191  0.00  0.00    +0.000 C 
ATOM     13  C   UNL     1       7.219   3.947  15.690  0.00  0.00    +0.000 C 
ENDROOT
BRANCH   1  15
ATOM     14  C   UNL     1       7.849   5.952  19.395  0.00  0.00    +0.000 C 
ATOM     15  O   UNL     1       7.363   5.163  18.332  0.00  0.00    +0.000 OA
ENDBRANCH   1  15
BRANCH  12  16
ATOM     16  O   UNL     1       5.449   5.535  15.116  0.00  0.00    +0.000 OA
ATOM     17  C   UNL     1       5.599   5.011  13.806  0.00  0.00    +0.000 C 
ENDBRANCH  12  16
BRANCH   5  18
ATOM     18  O   UNL     1       2.393   7.009  17.915  0.00  0.00    +0.000 OA
BRANCH  18  19
ATOM     19  C   UNL     1       2.584   8.386  18.280  0.00  0.00    +0.000 C 
BRANCH  19  20
ATOM     20  C   UNL     1       1.359   9.053  18.857  0.00  0.00    +0.000 A 
ATOM     21  C   UNL     1       1.102   9.067  20.232  0.00  0.00    +0.000 A 
ATOM     22  C   UNL     1       0.021   9.789  20.740  0.00  0.00    +0.000 A 
ATOM     23  C   UNL     1      -0.807  10.513  19.882  0.00  0.00    +0.000 A 
ATOM     24  C   UNL     1      -0.557  10.517  18.513  0.00  0.00    +0.000 A 
ATOM     25  C   UNL     1       0.522   9.795  18.005  0.00  0.00    +0.000 A 
ENDBRANCH  19  20
ENDBRANCH  18  19
ENDBRANCH   5  18
BRANCH   7  26
ATOM     26  C   UNL     1       0.828   2.820  19.160  0.00  0.00    +0.000 C 
BRANCH  26  27
ATOM     27  O   UNL     1       1.287   1.859  20.121  0.00  0.00    +0.000 OA
BRANCH  27  28
ATOM     28  C   UNL     1       1.738   2.361  21.299  0.00  0.00    +0.000 C 
ATOM     29  C   UNL     1       3.234   2.287  21.367  0.00  0.00    +0.000 C 
ATOM     30  O   UNL     1       1.033   2.825  22.185  0.00  0.00    +0.000 OA
ENDBRANCH  27  28
ENDBRANCH  26  27
ENDBRANCH   7  26
TORSDOF 8
ENDMDL
MODEL 2
REMARK VINA RESULT:      -6.6      1.800      5.630
REMARK  Name = 
REMARK  13 active torsions:
REMARK  status: ('A' for Active; 'I' for Inactive)
REMARK    1  A    between atoms: C_1  and  O_2
REMARK    2  A    between atoms: O_2  and  C_3
REMARK    3  A    between atoms: C_3  and  C_4
REMARK    4  A    between atoms: C_7  and  O_8
REMARK    5  A    between atoms: O_8  and  C_9
REMARK    6  A    between atoms: C_9  and  C_10
REMARK    7  A    between atoms: C_17  and  C_18
REMARK    8  A    between atoms: C_18  and  O_19
REMARK    9  A    between atoms: O_19  and  C_20
REMARK   10  A    between atoms: C_20  and  C_21
REMARK   11  A    between atoms: C_27  and  C_28
REMARK   12  A    between atoms: C_27  and  O_29
REMARK   13  A    between atoms: O_29  and  C_30
REMARK                            x       y       z     vdW  Elec       q    Type
REMARK                         _______ _______ _______ _____ _____    ______ ____
ROOT
ATOM      1  C   UNL     1       2.174   3.419  18.484  0.00  0.00    +0.000 C 
ATOM      2  C   UNL     1       0.694   3.269  18.891  0.00  0.00    +0.000 C 
ATOM      3  O   UNL     1       2.250   4.765  17.952  0.00  0.00    +0.000 OA
ATOM      4  C   UNL     1       3.584   5.239  17.768  0.00  0.00    +0.000 C 
ATOM      5  C   UNL     1       3.628   6.739  17.358  0.00  0.00    +0.000 C 
ATOM      6  C   UNL     1       5.065   7.175  17.179  0.00  0.00    +0.000 C 
ATOM      7  C   UNL     1       6.142   6.545  17.676  0.00  0.00    +0.000 C 
ATOM      8  C   UNL     1       5.933   5.272  18.431  0.00  0.00    +0.000 C 
ATOM      9  O   UNL     1       6.876   4.487  18.558  0.00  0.00    +0.000 OA
ATOM     10  C   UNL     1       4.517   4.995  18.957  0.00  0.00    +0.000 C 
ATOM     11  O   UNL     1       4.454   3.651  19.452  0.00  0.00    +0.000 OA
ATOM     12  C   UNL     1       3.116   3.237  19.770  0.00  0.00    +0.000 C 
ATOM     13  C   UNL     1       3.187   1.751  20.174  0.00  0.00    +0.000 C 
ENDROOT
BRANCH   1  15
ATOM     14  C   UNL     1       3.570   1.806  17.237  0.00  0.00    +0.000 C 
ATOM     15  O   UNL     1       2.311   2.398  17.474  0.00  0.00    +0.000 OA
ENDBRANCH   1  15
BRANCH  12  16
ATOM     16  O   UNL     1       2.582   4.021  20.856  0.00  0.00    +0.000 OA
ATOM     17  C   UNL     1       2.102   3.301  21.980  0.00  0.00    +0.000 C 
ENDBRANCH  12  16
BRANCH   5  18
ATOM     18  O   UNL     1       3.015   7.599  18.334  0.00  0.00    +0.000 OA
BRANCH  18  19
ATOM     19  C   UNL     1       2.177   8.597  17.728  0.00  0.00    +0.000 C 
BRANCH  19  20
ATOM     20  C   UNL     1       1.254   9.305  18.689  0.00  0.00    +0.000 A 
ATOM     21  C   UNL     1       0.278  10.206  18.252  0.00  0.00    +0.000 A 
ATOM     22  C   UNL     1      -0.631  10.756  19.158  0.00  0.00    +0.000 A 
ATOM     23  C   UNL     1      -0.582  10.402  20.506  0.00  0.00    +0.000 A 
ATOM     24  C   UNL     1       0.378   9.498  20.954  0.00  0.00    +0.000 A 
ATOM     25  C   UNL     1       1.287   8.950  20.050  0.00  0.00    +0.000 A 
ENDBRANCH  19  20
ENDBRANCH  18  19
ENDBRANCH   5  18
BRANCH   7  26
ATOM     26  C   UNL     1       7.543   7.036  17.483  0.00  0.00    +0.000 C 
BRANCH  26  27
ATOM     27  O   UNL     1       7.587   8.458  17.292  0.00  0.00    +0.000 OA
BRANCH  27  28
ATOM     28  C   UNL     1       8.377   9.151  18.151  0.00  0.00    +0.000 C 
ATOM     29  C   UNL     1       8.433  10.600  17.765  0.00  0.00    +0.000 C 
ATOM     30  O   UNL     1       8.956   8.677  19.118  0.00  0.00    +0.000 OA
ENDBRANCH  27  28
ENDBRANCH  26  27
ENDBRANCH   7  26
TORSDOF 8
ENDMDL
MODEL 3
REMARK VINA RESULT:      -6.5      0.865      1.165
REMARK  Name = 
REMARK  13 active torsions:
REMARK  status: ('A' for Active; 'I' for Inactive)
REMARK    1  A    between atoms: C_1  and  O_2
REMARK    2  A    between atoms: O_2  and  C_3
REMARK    3  A    between atoms: C_3  and  C_4
REMARK    4  A    between atoms: C_7  and  O_8
REMARK    5  A    between atoms: O_8  and  C_9
REMARK    6  A    between atoms: C_9  and  C_10
REMARK    7  A    between atoms: C_17  and  C_18
REMARK    8  A    between atoms: C_18  and  O_19
REMARK    9  A    between atoms: O_19  and  C_20
REMARK   10  A    between atoms: C_20  and  C_21
REMARK   11  A    between atoms: C_27  and  C_28
REMARK   12  A    between atoms: C_27  and  O_29
REMARK   13  A    between atoms: O_29  and  C_30
REMARK                            x       y       z     vdW  Elec       q    Type
REMARK                         _______ _______ _______ _____ _____    ______ ____
ROOT
ATOM      1  C   UNL     1       6.661   5.818  17.637  0.00  0.00    +0.000 C 
ATOM      2  C   UNL     1       7.534   6.998  17.162  0.00  0.00    +0.000 C 
ATOM      3  O   UNL     1       5.569   6.461  18.339  0.00  0.00    +0.000 OA
ATOM      4  C   UNL     1       4.476   5.587  18.631  0.00  0.00    +0.000 C 
ATOM      5  C   UNL     1       3.257   6.344  19.231  0.00  0.00    +0.000 C 
ATOM      6  C   UNL     1       2.141   5.365  19.515  0.00  0.00    +0.000 C 
ATOM      7  C   UNL     1       2.020   4.138  18.981  0.00  0.00    +0.000 C 
ATOM      8  C   UNL     1       3.096   3.656  18.062  0.00  0.00    +0.000 C 
ATOM      9  O   UNL     1       3.223   2.445  17.870  0.00  0.00    +0.000 OA
ATOM     10  C   UNL     1       4.025   4.718  17.454  0.00  0.00    +0.000 C 
ATOM     11  O   UNL     1       5.114   4.064  16.790  0.00  0.00    +0.000 OA
ATOM     12  C   UNL     1       6.140   4.979  16.374  0.00  0.00    +0.000 C 
ATOM     13  C   UNL     1       7.287   4.132  15.785  0.00  0.00    +0.000 C 
ENDROOT
BRANCH   1  15
ATOM     14  C   UNL     1       7.987   5.709  19.719  0.00  0.00    +0.000 C 
ATOM     15  O   UNL     1       7.565   5.112  18.512  0.00  0.00    +0.000 OA
ENDBRANCH   1  15
BRANCH  12  16
ATOM     16  O   UNL     1       5.638   5.893  15.378  0.00  0.00    +0.000 OA
ATOM     17  C   UNL     1       5.517   5.387  14.058  0.00  0.00    +0.000 C 
ENDBRANCH  12  16
BRANCH   5  18
ATOM     18  O   UNL     1       2.749   7.363  18.351  0.00  0.00    +0.000 OA
BRANCH  18  19
ATOM     19  C   UNL     1       1.487   7.886  18.799  0.00  0.00    +0.000 C 
BRANCH  19  20
ATOM     20  C   UNL     1       1.449   9.389  18.936  0.00  0.00    +0.000 A 
ATOM     21  C   UNL     1       2.172  10.228  18.081  0.00  0.00    +0.000 A 
ATOM     22  C   UNL     1       2.025  11.614  18.164  0.00  0.00    +0.000 A 
ATOM     23  C   UNL     1       1.147  12.174  19.092  0.00  0.00    +0.000 A 
ATOM     24  C   UNL     1       0.413  11.351  19.941  0.00  0.00    +0.000 A 
ATOM     25  C   UNL     1       0.561   9.966  19.860  0.00  0.00    +0.000 A 
ENDBRANCH  19  20
ENDBRANCH  18  19
ENDBRANCH   5  18
BRANCH   7  26
ATOM     26  C   UNL     1       0.879   3.218  19.286  0.00  0.00    +0.000 C 
BRANCH  26  27
ATOM     27  O   UNL     1       1.295   2.103  20.087  0.00  0.00    +0.000 OA
BRANCH  27  28
ATOM     28  C   UNL     1       1.761   2.398  21.327  0.00  0.00    +0.000 C 
ATOM     29  C   UNL     1       3.226   2.089  21.429  0.00  0.00    +0.000 C 
ATOM     30  O   UNL     1       1.095   2.865  22.240  0.00  0.00    +0.000 OA
ENDBRANCH  27  28
ENDBRANCH  26  27
ENDBRANCH   7  26
TORSDOF 8
ENDMDL
MODEL 4
REMARK VINA RESULT:      -6.4      4.550      9.358
REMARK  Name = 
REMARK  13 active torsions:
REMARK  status: ('A' for Active; 'I' for Inactive)
REMARK    1  A    between atoms: C_1  and  O_2
REMARK    2  A    between atoms: O_2  and  C_3
REMARK    3  A    between atoms: C_3  and  C_4
REMARK    4  A    between atoms: C_7  and  O_8
REMARK    5  A    between atoms: O_8  and  C_9
REMARK    6  A    between atoms: C_9  and  C_10
REMARK    7  A    between atoms: C_17  and  C_18
REMARK    8  A    between atoms: C_18  and  O_19
REMARK    9  A    between atoms: O_19  and  C_20
REMARK   10  A    between atoms: C_20  and  C_21
REMARK   11  A    between atoms: C_27  and  C_28
REMARK   12  A    between atoms: C_27  and  O_29
REMARK   13  A    between atoms: O_29  and  C_30
REMARK                            x       y       z     vdW  Elec       q    Type
REMARK                         _______ _______ _______ _____ _____    ______ ____
ROOT
ATOM      1  C   UNL     1       0.526  13.823  20.543  0.00  0.00    +0.000 C 
ATOM      2  C   UNL     1       1.753  14.137  21.422  0.00  0.00    +0.000 C 
ATOM      3  O   UNL     1       0.948  12.681  19.758  0.00  0.00    +0.000 OA
ATOM      4  C   UNL     1      -0.117  12.029  19.066  0.00  0.00    +0.000 C 
ATOM      5  C   UNL     1       0.343  10.714  18.374  0.00  0.00    +0.000 C 
ATOM      6  C   UNL     1      -0.830  10.077  17.663  0.00  0.00    +0.000 C 
ATOM      7  C   UNL     1      -2.126  10.334  17.904  0.00  0.00    +0.000 C 
ATOM      8  C   UNL     1      -2.465  11.373  18.924  0.00  0.00    +0.000 C 
ATOM      9  O   UNL     1      -3.579  11.901  18.896  0.00  0.00    +0.000 OA
ATOM     10  C   UNL     1      -1.361  11.763  19.919  0.00  0.00    +0.000 C 
ATOM     11  O   UNL     1      -1.786  12.911  20.664  0.00  0.00    +0.000 OA
ATOM     12  C   UNL     1      -0.735  13.471  21.469  0.00  0.00    +0.000 C 
ATOM     13  C   UNL     1      -1.297  14.752  22.117  0.00  0.00    +0.000 C 
ENDROOT
BRANCH   1  15
ATOM     14  C   UNL     1       1.489  15.498  19.002  0.00  0.00    +0.000 C 
ATOM     15  O   UNL     1       0.398  15.032  19.766  0.00  0.00    +0.000 OA
ENDBRANCH   1  15
BRANCH  12  16
ATOM     16  O   UNL     1      -0.322  12.541  22.490  0.00  0.00    +0.000 OA
ATOM     17  C   UNL     1      -1.351  11.799  23.125  0.00  0.00    +0.000 C 
ENDBRANCH  12  16
BRANCH   5  18
ATOM     18  O   UNL     1       0.880   9.756  19.304  0.00  0.00    +0.000 OA
BRANCH  18  19
ATOM     19  C   UNL     1       2.028   9.072  18.775  0.00  0.00    +0.000 C 
BRANCH  19  20
ATOM     20  C   UNL     1       2.112   7.613  19.151  0.00  0.00    +0.000 A 
ATOM     21  C   UNL     1       1.747   7.154  20.420  0.00  0.00    +0.000 A 
ATOM     22  C   UNL     1       1.730   5.785  20.696  0.00  0.00    +0.000 A 
ATOM     23  C   UNL     1       2.065   4.863  19.705  0.00  0.00    +0.000 A 
ATOM     24  C   UNL     1       2.421   5.306  18.434  0.00  0.00    +0.000 A 
ATOM     25  C   UNL     1       2.439   6.673  18.158  0.00  0.00    +0.000 A 
ENDBRANCH  19  20
ENDBRANCH  18  19
ENDBRANCH   5  18
BRANCH   7  26
ATOM     26  C   UNL     1      -3.246   9.656  17.179  0.00  0.00    +0.000 C 
BRANCH  26  27
ATOM     27  O   UNL     1      -2.884   9.323  15.831  0.00  0.00    +0.000 OA
BRANCH  27  28
ATOM     28  C   UNL     1      -3.147  10.267  14.892  0.00  0.00    +0.000 C 
ATOM     29  C   UNL     1      -2.966   9.705  13.513  0.00  0.00    +0.000 C 
ATOM     30  O   UNL     1      -3.497  11.416  15.124  0.00  0.00    +0.000 OA
ENDBRANCH  27  28
ENDBRANCH  26  27
ENDBRANCH   7  26
TORSDOF 8
ENDMDL
MODEL 5
REMARK VINA RESULT:      -6.4      1.969      5.638
REMARK  Name = 
REMARK  13 active torsions:
REMARK  status: ('A' for Active; 'I' for Inactive)
REMARK    1  A    between atoms: C_1  and  O_2
REMARK    2  A    between atoms: O_2  and  C_3
REMARK    3  A    between atoms: C_3  and  C_4
REMARK    4  A    between atoms: C_7  and  O_8
REMARK    5  A    between atoms: O_8  and  C_9
REMARK    6  A    between atoms: C_9  and  C_10
REMARK    7  A    between atoms: C_17  and  C_18
REMARK    8  A    between atoms: C_18  and  O_19
REMARK    9  A    between atoms: O_19  and  C_20
REMARK   10  A    between atoms: C_20  and  C_21
REMARK   11  A    between atoms: C_27  and  C_28
REMARK   12  A    between atoms: C_27  and  O_29
REMARK   13  A    between atoms: O_29  and  C_30
REMARK                            x       y       z     vdW  Elec       q    Type
REMARK                         _______ _______ _______ _____ _____    ______ ____
ROOT
ATOM      1  C   UNL     1       2.643   3.599  18.392  0.00  0.00    +0.000 C 
ATOM      2  C   UNL     1       1.146   3.377  18.685  0.00  0.00    +0.000 C 
ATOM      3  O   UNL     1       2.695   4.950  17.872  0.00  0.00    +0.000 OA
ATOM      4  C   UNL     1       4.016   5.488  17.791  0.00  0.00    +0.000 C 
ATOM      5  C   UNL     1       4.020   6.991  17.391  0.00  0.00    +0.000 C 
ATOM      6  C   UNL     1       5.444   7.495  17.324  0.00  0.00    +0.000 C 
ATOM      7  C   UNL     1       6.509   6.913  17.898  0.00  0.00    +0.000 C 
ATOM      8  C   UNL     1       6.304   5.626  18.631  0.00  0.00    +0.000 C 
ATOM      9  O   UNL     1       7.271   4.885  18.826  0.00  0.00    +0.000 OA
ATOM     10  C   UNL     1       4.866   5.279  19.047  0.00  0.00    +0.000 C 
ATOM     11  O   UNL     1       4.831   3.930  19.531  0.00  0.00    +0.000 OA
ATOM     12  C   UNL     1       3.493   3.452  19.744  0.00  0.00    +0.000 C 
ATOM     13  C   UNL     1       3.603   1.968  20.148  0.00  0.00    +0.000 C 
ENDROOT
BRANCH   1  15
ATOM     14  C   UNL     1       4.044   2.699  16.566  0.00  0.00    +0.000 C 
ATOM     15  O   UNL     1       2.904   2.593  17.391  0.00  0.00    +0.000 OA
ENDBRANCH   1  15
BRANCH  12  16
ATOM     16  O   UNL     1       2.842   4.202  20.790  0.00  0.00    +0.000 OA
ATOM     17  C   UNL     1       2.286   3.450  21.857  0.00  0.00    +0.000 C 
ENDBRANCH  12  16
BRANCH   5  18
ATOM     18  O   UNL     1       3.295   7.815  18.321  0.00  0.00    +0.000 OA
BRANCH  18  19
ATOM     19  C   UNL     1       2.172   8.469  17.705  0.00  0.00    +0.000 C 
BRANCH  19  20
ATOM     20  C   UNL     1       1.211   9.106  18.679  0.00  0.00    +0.000 A 
ATOM     21  C   UNL     1       1.213   8.782  20.040  0.00  0.00    +0.000 A 
ATOM     22  C   UNL     1       0.387   9.473  20.929  0.00  0.00    +0.000 A 
ATOM     23  C   UNL     1      -0.438  10.499  20.471  0.00  0.00    +0.000 A 
ATOM     24  C   UNL     1      -0.442  10.839  19.121  0.00  0.00    +0.000 A 
ATOM     25  C   UNL     1       0.381  10.149  18.232  0.00  0.00    +0.000 A 
ENDBRANCH  19  20
ENDBRANCH  18  19
ENDBRANCH   5  18
BRANCH   7  26
ATOM     26  C   UNL     1       7.896   7.470  17.813  0.00  0.00    +0.000 C 
BRANCH  26  27
ATOM     27  O   UNL     1       7.887   8.880  17.544  0.00  0.00    +0.000 OA
BRANCH  27  28
ATOM     28  C   UNL     1       8.669   9.646  18.346  0.00  0.00    +0.000 C 
ATOM     29  C   UNL     1       8.684  11.068  17.868  0.00  0.00    +0.000 C 
ATOM     30  O   UNL     1       9.272   9.249  19.333  0.00  0.00    +0.000 OA
ENDBRANCH  27  28
ENDBRANCH  26  27
ENDBRANCH   7  26
TORSDOF 8
ENDMDL
MODEL 6
REMARK VINA RESULT:      -6.3      4.839      9.258
REMARK  Name = 
REMARK  13 active torsions:
REMARK  status: ('A' for Active; 'I' for Inactive)
REMARK    1  A    between atoms: C_1  and  O_2
REMARK    2  A    between atoms: O_2  and  C_3
REMARK    3  A    between atoms: C_3  and  C_4
REMARK    4  A    between atoms: C_7  and  O_8
REMARK    5  A    between atoms: O_8  and  C_9
REMARK    6  A    between atoms: C_9  and  C_10
REMARK    7  A    between atoms: C_17  and  C_18
REMARK    8  A    between atoms: C_18  and  O_19
REMARK    9  A    between atoms: O_19  and  C_20
REMARK   10  A    between atoms: C_20  and  C_21
REMARK   11  A    between atoms: C_27  and  C_28
REMARK   12  A    between atoms: C_27  and  O_29
REMARK   13  A    between atoms: O_29  and  C_30
REMARK                            x       y       z     vdW  Elec       q    Type
REMARK                         _______ _______ _______ _____ _____    ______ ____
ROOT
ATOM      1  C   UNL     1      -2.431  13.023  21.121  0.00  0.00    +0.000 C 
ATOM      2  C   UNL     1      -2.669  14.540  20.977  0.00  0.00    +0.000 C 
ATOM      3  O   UNL     1      -1.356  12.753  20.189  0.00  0.00    +0.000 OA
ATOM      4  C   UNL     1      -0.765  11.462  20.346  0.00  0.00    +0.000 C 
ATOM      5  C   UNL     1       0.490  11.271  19.447  0.00  0.00    +0.000 C 
ATOM      6  C   UNL     1       1.063   9.889  19.661  0.00  0.00    +0.000 C 
ATOM      7  C   UNL     1       0.823   9.097  20.719  0.00  0.00    +0.000 C 
ATOM      8  C   UNL     1      -0.130   9.579  21.764  0.00  0.00    +0.000 C 
ATOM      9  O   UNL     1      -0.662   8.760  22.517  0.00  0.00    +0.000 OA
ATOM     10  C   UNL     1      -0.434  11.085  21.792  0.00  0.00    +0.000 C 
ATOM     11  O   UNL     1      -1.519  11.328  22.697  0.00  0.00    +0.000 OA
ATOM     12  C   UNL     1      -2.008  12.677  22.629  0.00  0.00    +0.000 C 
ATOM     13  C   UNL     1      -3.233  12.760  23.561  0.00  0.00    +0.000 C 
ENDROOT
BRANCH   1  15
ATOM     14  C   UNL     1      -4.725  13.345  20.261  0.00  0.00    +0.000 C 
ATOM     15  O   UNL     1      -3.700  12.481  20.701  0.00  0.00    +0.000 OA
ENDBRANCH   1  15
BRANCH  12  16
ATOM     16  O   UNL     1      -0.996  13.611  23.058  0.00  0.00    +0.000 OA
ATOM     17  C   UNL     1      -1.327  14.441  24.160  0.00  0.00    +0.000 C 
ENDBRANCH  12  16
BRANCH   5  18
ATOM     18  O   UNL     1       1.522  12.235  19.724  0.00  0.00    +0.000 OA
BRANCH  18  19
ATOM     19  C   UNL     1       2.127  12.741  18.522  0.00  0.00    +0.000 C 
BRANCH  19  20
ATOM     20  C   UNL     1       2.167  14.247  18.432  0.00  0.00    +0.000 A 
ATOM     21  C   UNL     1       3.239  14.925  17.842  0.00  0.00    +0.000 A 
ATOM     22  C   UNL     1       3.190  16.311  17.674  0.00  0.00    +0.000 A 
ATOM     23  C   UNL     1       2.068  17.030  18.083  0.00  0.00    +0.000 A 
ATOM     24  C   UNL     1       0.989  16.367  18.662  0.00  0.00    +0.000 A 
ATOM     25  C   UNL     1       1.038  14.983  18.831  0.00  0.00    +0.000 A 
ENDBRANCH  19  20
ENDBRANCH  18  19
ENDBRANCH   5  18
BRANCH   7  26
ATOM     26  C   UNL     1       1.436   7.742  20.886  0.00  0.00    +0.000 C 
BRANCH  26  27
ATOM     27  O   UNL     1       2.272   7.395  19.772  0.00  0.00    +0.000 OA
BRANCH  27  28
ATOM     28  C   UNL     1       2.616   6.085  19.669  0.00  0.00    +0.000 C 
ATOM     29  C   UNL     1       1.781   5.246  20.590  0.00  0.00    +0.000 C 
ATOM     30  O   UNL     1       3.474   5.637  18.923  0.00  0.00    +0.000 OA
ENDBRANCH  27  28
ENDBRANCH  26  27
ENDBRANCH   7  26
TORSDOF 8
ENDMDL
MODEL 7
REMARK VINA RESULT:      -6.3      1.420      5.393
REMARK  Name = 
REMARK  13 active torsions:
REMARK  status: ('A' for Active; 'I' for Inactive)
REMARK    1  A    between atoms: C_1  and  O_2
REMARK    2  A    between atoms: O_2  and  C_3
REMARK    3  A    between atoms: C_3  and  C_4
REMARK    4  A    between atoms: C_7  and  O_8
REMARK    5  A    between atoms: O_8  and  C_9
REMARK    6  A    between atoms: C_9  and  C_10
REMARK    7  A    between atoms: C_17  and  C_18
REMARK    8  A    between atoms: C_18  and  O_19
REMARK    9  A    between atoms: O_19  and  C_20
REMARK   10  A    between atoms: C_20  and  C_21
REMARK   11  A    between atoms: C_27  and  C_28
REMARK   12  A    between atoms: C_27  and  O_29
REMARK   13  A    between atoms: O_29  and  C_30
REMARK                            x       y       z     vdW  Elec       q    Type
REMARK                         _______ _______ _______ _____ _____    ______ ____
ROOT
ATOM      1  C   UNL     1       1.783   3.260  18.801  0.00  0.00    +0.000 C 
ATOM      2  C   UNL     1       0.312   3.132  19.247  0.00  0.00    +0.000 C 
ATOM      3  O   UNL     1       1.854   4.588  18.228  0.00  0.00    +0.000 OA
ATOM      4  C   UNL     1       3.187   5.048  17.998  0.00  0.00    +0.000 C 
ATOM      5  C   UNL     1       3.231   6.535  17.542  0.00  0.00    +0.000 C 
ATOM      6  C   UNL     1       4.666   6.955  17.317  0.00  0.00    +0.000 C 
ATOM      7  C   UNL     1       5.750   6.332  17.806  0.00  0.00    +0.000 C 
ATOM      8  C   UNL     1       5.552   5.083  18.603  0.00  0.00    +0.000 C 
ATOM      9  O   UNL     1       6.492   4.296  18.731  0.00  0.00    +0.000 OA
ATOM     10  C   UNL     1       4.146   4.832  19.171  0.00  0.00    +0.000 C 
ATOM     11  O   UNL     1       4.088   3.503  19.706  0.00  0.00    +0.000 OA
ATOM     12  C   UNL     1       2.754   3.109  20.068  0.00  0.00    +0.000 C 
ATOM     13  C   UNL     1       2.826   1.635  20.515  0.00  0.00    +0.000 C 
ENDROOT
BRANCH   1  15
ATOM     14  C   UNL     1       3.153   1.851  17.303  0.00  0.00    +0.000 C 
ATOM     15  O   UNL     1       1.889   2.208  17.818  0.00  0.00    +0.000 OA
ENDBRANCH   1  15
BRANCH  12  16
ATOM     16  O   UNL     1       2.252   3.928  21.143  0.00  0.00    +0.000 OA
ATOM     17  C   UNL     1       1.905   3.254  22.343  0.00  0.00    +0.000 C 
ENDBRANCH  12  16
BRANCH   5  18
ATOM     18  O   UNL     1       2.647   7.427  18.508  0.00  0.00    +0.000 OA
BRANCH  18  19
ATOM     19  C   UNL     1       2.192   8.652  17.908  0.00  0.00    +0.000 C 
BRANCH  19  20
ATOM     20  C   UNL     1       1.156   9.395  18.715  0.00  0.00    +0.000 A 
ATOM     21  C   UNL     1       0.099  10.083  18.110  0.00  0.00    +0.000 A 
ATOM     22  C   UNL     1      -0.903  10.662  18.891  0.00  0.00    +0.000 A 
ATOM     23  C   UNL     1      -0.866  10.550  20.280  0.00  0.00    +0.000 A 
ATOM     24  C   UNL     1       0.174   9.860  20.896  0.00  0.00    +0.000 A 
ATOM     25  C   UNL     1       1.176   9.281  20.117  0.00  0.00    +0.000 A 
ENDBRANCH  19  20
ENDBRANCH  18  19
ENDBRANCH   5  18
BRANCH   7  26
ATOM     26  C   UNL     1       7.149   6.807  17.565  0.00  0.00    +0.000 C 
BRANCH  26  27
ATOM     27  O   UNL     1       7.572   6.555  16.217  0.00  0.00    +0.000 OA
BRANCH  27  28
ATOM     28  C   UNL     1       7.460   5.272  15.787  0.00  0.00    +0.000 C 
ATOM     29  C   UNL     1       6.574   5.196  14.578  0.00  0.00    +0.000 C 
ATOM     30  O   UNL     1       8.011   4.306  16.295  0.00  0.00    +0.000 OA
ENDBRANCH  27  28
ENDBRANCH  26  27
ENDBRANCH   7  26
TORSDOF 8
ENDMDL
MODEL 8
REMARK VINA RESULT:      -6.3      1.035      1.237
REMARK  Name = 
REMARK  13 active torsions:
REMARK  status: ('A' for Active; 'I' for Inactive)
REMARK    1  A    between atoms: C_1  and  O_2
REMARK    2  A    between atoms: O_2  and  C_3
REMARK    3  A    between atoms: C_3  and  C_4
REMARK    4  A    between atoms: C_7  and  O_8
REMARK    5  A    between atoms: O_8  and  C_9
REMARK    6  A    between atoms: C_9  and  C_10
REMARK    7  A    between atoms: C_17  and  C_18
REMARK    8  A    between atoms: C_18  and  O_19
REMARK    9  A    between atoms: O_19  and  C_20
REMARK   10  A    between atoms: C_20  and  C_21
REMARK   11  A    between atoms: C_27  and  C_28
REMARK   12  A    between atoms: C_27  and  O_29
REMARK   13  A    between atoms: O_29  and  C_30
REMARK                            x       y       z     vdW  Elec       q    Type
REMARK                         _______ _______ _______ _____ _____    ______ ____
ROOT
ATOM      1  C   UNL     1       6.709   5.930  17.534  0.00  0.00    +0.000 C 
ATOM      2  C   UNL     1       7.668   7.062  17.113  0.00  0.00    +0.000 C 
ATOM      3  O   UNL     1       5.581   6.632  18.113  0.00  0.00    +0.000 OA
ATOM      4  C   UNL     1       4.433   5.809  18.323  0.00  0.00    +0.000 C 
ATOM      5  C   UNL     1       3.193   6.627  18.785  0.00  0.00    +0.000 C 
ATOM      6  C   UNL     1       2.019   5.697  18.987  0.00  0.00    +0.000 C 
ATOM      7  C   UNL     1       1.900   4.461  18.477  0.00  0.00    +0.000 C 
ATOM      8  C   UNL     1       3.038   3.913  17.677  0.00  0.00    +0.000 C 
ATOM      9  O   UNL     1       3.135   2.692  17.529  0.00  0.00    +0.000 OA
ATOM     10  C   UNL     1       4.061   4.922  17.132  0.00  0.00    +0.000 C 
ATOM     11  O   UNL     1       5.180   4.209  16.591  0.00  0.00    +0.000 OA
ATOM     12  C   UNL     1       6.276   5.073  16.250  0.00  0.00    +0.000 C 
ATOM     13  C   UNL     1       7.439   4.168  15.794  0.00  0.00    +0.000 C 
ENDROOT
BRANCH   1  15
ATOM     14  C   UNL     1       7.905   5.865  19.695  0.00  0.00    +0.000 C 
ATOM     15  O   UNL     1       7.499   5.218  18.509  0.00  0.00    +0.000 OA
ENDBRANCH   1  15
BRANCH  12  16
ATOM     16  O   UNL     1       5.906   5.975  15.187  0.00  0.00    +0.000 OA
ATOM     17  C   UNL     1       5.654   5.390  13.920  0.00  0.00    +0.000 C 
ENDBRANCH  12  16
BRANCH   5  18
ATOM     18  O   UNL     1       2.810   7.636  17.834  0.00  0.00    +0.000 OA
BRANCH  18  19
ATOM     19  C   UNL     1       1.445   8.051  18.005  0.00  0.00    +0.000 C 
BRANCH  19  20
ATOM     20  C   UNL     1       1.276   9.508  18.361  0.00  0.00    +0.000 A 
ATOM     21  C   UNL     1       0.284   9.944  19.246  0.00  0.00    +0.000 A 
ATOM     22  C   UNL     1       0.230  11.283  19.640  0.00  0.00    +0.000 A 
ATOM     23  C   UNL     1       1.171  12.195  19.164  0.00  0.00    +0.000 A 
ATOM     24  C   UNL     1       2.170  11.773  18.291  0.00  0.00    +0.000 A 
ATOM     25  C   UNL     1       2.224  10.436  17.897  0.00  0.00    +0.000 A 
ENDBRANCH  19  20
ENDBRANCH  18  19
ENDBRANCH   5  18
BRANCH   7  26
ATOM     26  C   UNL     1       0.701   3.592  18.696  0.00  0.00    +0.000 C 
BRANCH  26  27
ATOM     27  O   UNL     1       0.544   3.242  20.079  0.00  0.00    +0.000 OA
BRANCH  27  28
ATOM     28  C   UNL     1       1.542   2.501  20.624  0.00  0.00    +0.000 C 
ATOM     29  C   UNL     1       1.990   3.095  21.927  0.00  0.00    +0.000 C 
ATOM     30  O   UNL     1       2.012   1.482  20.139  0.00  0.00    +0.000 OA
ENDBRANCH  27  28
ENDBRANCH  26  27
ENDBRANCH   7  26
TORSDOF 8
ENDMDL
MODEL 9
REMARK VINA RESULT:      -6.2      2.010      5.612
REMARK  Name = 
REMARK  13 active torsions:
REMARK  status: ('A' for Active; 'I' for Inactive)
REMARK    1  A    between atoms: C_1  and  O_2
REMARK    2  A    between atoms: O_2  and  C_3
REMARK    3  A    between atoms: C_3  and  C_4
REMARK    4  A    between atoms: C_7  and  O_8
REMARK    5  A    between atoms: O_8  and  C_9
REMARK    6  A    between atoms: C_9  and  C_10
REMARK    7  A    between atoms: C_17  and  C_18
REMARK    8  A    between atoms: C_18  and  O_19
REMARK    9  A    between atoms: O_19  and  C_20
REMARK   10  A    between atoms: C_20  and  C_21
REMARK   11  A    between atoms: C_27  and  C_28
REMARK   12  A    between atoms: C_27  and  O_29
REMARK   13  A    between atoms: O_29  and  C_30
REMARK                            x       y       z     vdW  Elec       q    Type
REMARK                         _______ _______ _______ _____ _____    ______ ____
ROOT
ATOM      1  C   UNL     1       2.423   3.656  18.438  0.00  0.00    +0.000 C 
ATOM      2  C   UNL     1       0.940   3.527  18.837  0.00  0.00    +0.000 C 
ATOM      3  O   UNL     1       2.509   4.981  17.857  0.00  0.00    +0.000 OA
ATOM      4  C   UNL     1       3.847   5.443  17.666  0.00  0.00    +0.000 C 
ATOM      5  C   UNL     1       3.901   6.927  17.201  0.00  0.00    +0.000 C 
ATOM      6  C   UNL     1       5.340   7.350  17.018  0.00  0.00    +0.000 C 
ATOM      7  C   UNL     1       6.411   6.735  17.548  0.00  0.00    +0.000 C 
ATOM      8  C   UNL     1       6.191   5.492  18.348  0.00  0.00    +0.000 C 
ATOM      9  O   UNL     1       7.129   4.709  18.512  0.00  0.00    +0.000 OA
ATOM     10  C   UNL     1       4.768   5.240  18.872  0.00  0.00    +0.000 C 
ATOM     11  O   UNL     1       4.697   3.916  19.416  0.00  0.00    +0.000 OA
ATOM     12  C   UNL     1       3.354   3.519  19.738  0.00  0.00    +0.000 C 
ATOM     13  C   UNL     1       3.415   2.049  20.198  0.00  0.00    +0.000 C 
ENDROOT
BRANCH   1  15
ATOM     14  C   UNL     1       3.693   1.750  17.510  0.00  0.00    +0.000 C 
ATOM     15  O   UNL     1       2.565   2.598  17.468  0.00  0.00    +0.000 OA
ENDBRANCH   1  15
BRANCH  12  16
ATOM     16  O   UNL     1       2.814   4.346  20.789  0.00  0.00    +0.000 OA
ATOM     17  C   UNL     1       2.195   3.668  21.871  0.00  0.00    +0.000 C 
ENDBRANCH  12  16
BRANCH   5  18
ATOM     18  O   UNL     1       3.282   7.825  18.139  0.00  0.00    +0.000 OA
BRANCH  18  19
ATOM     19  C   UNL     1       2.006   8.297  17.676  0.00  0.00    +0.000 C 
BRANCH  19  20
ATOM     20  C   UNL     1       1.584   9.624  18.259  0.00  0.00    +0.000 A 
ATOM     21  C   UNL     1       0.595   9.719  19.243  0.00  0.00    +0.000 A 
ATOM     22  C   UNL     1       0.311  10.949  19.840  0.00  0.00    +0.000 A 
ATOM     23  C   UNL     1       1.018  12.092  19.469  0.00  0.00    +0.000 A 
ATOM     24  C   UNL     1       2.012  12.010  18.498  0.00  0.00    +0.000 A 
ATOM     25  C   UNL     1       2.296  10.782  17.900  0.00  0.00    +0.000 A 
ENDBRANCH  19  20
ENDBRANCH  18  19
ENDBRANCH   5  18
BRANCH   7  26
ATOM     26  C   UNL     1       7.815   7.214  17.348  0.00  0.00    +0.000 C 
BRANCH  26  27
ATOM     27  O   UNL     1       8.286   7.965  18.476  0.00  0.00    +0.000 OA
BRANCH  27  28
ATOM     28  C   UNL     1       8.375   9.309  18.303  0.00  0.00    +0.000 C 
ATOM     29  C   UNL     1       9.333   9.907  19.290  0.00  0.00    +0.000 C 
ATOM     30  O   UNL     1       7.774   9.953  17.455  0.00  0.00    +0.000 OA
ENDBRANCH  27  28
ENDBRANCH  26  27
ENDBRANCH   7  26
TORSDOF 8
ENDMDL
