MODEL 1
REMARK VINA RESULT:      -7.3      0.000      0.000
REMARK  Name = 
REMARK  1 active torsions:
REMARK  status: ('A' for Active; 'I' for Inactive)
REMARK    1  A    between atoms: C_2  and  C_3
REMARK                            x       y       z     vdW  Elec       q    Type
REMARK                         _______ _______ _______ _____ _____    ______ ____
ROOT
ATOM      1  C   UNL     1       3.924   3.550  17.657  0.00  0.00    +0.000 C 
ATOM      2  C   UNL     1       4.259   4.740  17.114  0.00  0.00    +0.000 C 
ATOM      3  N   UNL     1       3.675   5.909  17.577  0.00  0.00    +0.000 N 
ATOM      4  C   UNL     1       3.903   7.252  17.100  0.00  0.00    +0.000 C 
ATOM      5  C   UNL     1       2.972   8.068  18.008  0.00  0.00    +0.000 C 
ATOM      6  N   UNL     1       2.285   7.123  18.938  0.00  0.00    +0.000 NA
ATOM      7  C   UNL     1       2.754   5.950  18.598  0.00  0.00    +0.000 C 
ATOM      8  C   UNL     1       2.354   4.685  19.247  0.00  0.00    +0.000 A 
ATOM      9  C   UNL     1       1.441   4.665  20.302  0.00  0.00    +0.000 A 
ATOM     10  C   UNL     1       1.098   3.445  20.883  0.00  0.00    +0.000 A 
ATOM     11  C   UNL     1       1.662   2.259  20.405  0.00  0.00    +0.000 A 
ATOM     12  C   UNL     1       2.579   2.284  19.348  0.00  0.00    +0.000 A 
ATOM     13  C   UNL     1       2.939   3.499  18.758  0.00  0.00    +0.000 A 
ENDROOT
BRANCH   2  14
ATOM     14  C   UNL     1       5.259   4.749  16.094  0.00  0.00    +0.000 A 
ATOM     15  C   UNL     1       5.124   4.404  14.760  0.00  0.00    +0.000 A 
ATOM     16  C   UNL     1       6.362   4.425  14.055  0.00  0.00    +0.000 A 
ATOM     17  C   UNL     1       7.407   4.802  14.866  0.00  0.00    +0.000 A 
ATOM     18  S   UNL     1       6.893   5.139  16.462  0.00  0.00    +0.000 S 
ENDBRANCH   2  14
TORSDOF 1
ENDMDL
MODEL 2
REMARK VINA RESULT:      -7.2      2.122      5.952
REMARK  Name = 
REMARK  1 active torsions:
REMARK  status: ('A' for Active; 'I' for Inactive)
REMARK    1  A    between atoms: C_2  and  C_3
REMARK                            x       y       z     vdW  Elec       q    Type
REMARK                         _______ _______ _______ _____ _____    ______ ____
ROOT
ATOM      1  C   UNL     1       4.703   3.798  15.525  0.00  0.00    +0.000 C 
ATOM      2  C   UNL     1       4.809   4.410  16.724  0.00  0.00    +0.000 C 
ATOM      3  N   UNL     1       5.845   5.300  16.965  0.00  0.00    +0.000 N 
ATOM      4  C   UNL     1       6.115   6.020  18.186  0.00  0.00    +0.000 C 
ATOM      5  C   UNL     1       7.373   6.815  17.808  0.00  0.00    +0.000 C 
ATOM      6  N   UNL     1       7.722   6.486  16.393  0.00  0.00    +0.000 NA
ATOM      7  C   UNL     1       6.802   5.629  16.033  0.00  0.00    +0.000 C 
ATOM      8  C   UNL     1       6.736   5.006  14.695  0.00  0.00    +0.000 A 
ATOM      9  C   UNL     1       7.665   5.317  13.702  0.00  0.00    +0.000 A 
ATOM     10  C   UNL     1       7.558   4.704  12.454  0.00  0.00    +0.000 A 
ATOM     11  C   UNL     1       6.532   3.787  12.210  0.00  0.00    +0.000 A 
ATOM     12  C   UNL     1       5.601   3.480  13.209  0.00  0.00    +0.000 A 
ATOM     13  C   UNL     1       5.690   4.089  14.464  0.00  0.00    +0.000 A 
ENDROOT
BRANCH   2  14
ATOM     14  C   UNL     1       3.799   4.145  17.699  0.00  0.00    +0.000 A 
ATOM     15  C   UNL     1       2.556   4.740  17.827  0.00  0.00    +0.000 A 
ATOM     16  C   UNL     1       1.851   4.305  18.987  0.00  0.00    +0.000 A 
ATOM     17  C   UNL     1       2.570   3.378  19.705  0.00  0.00    +0.000 A 
ATOM     18  S   UNL     1       4.076   3.027  18.976  0.00  0.00    +0.000 S 
ENDBRANCH   2  14
TORSDOF 1
ENDMDL
MODEL 3
REMARK VINA RESULT:      -7.1      2.320      6.022
REMARK  Name = 
REMARK  1 active torsions:
REMARK  status: ('A' for Active; 'I' for Inactive)
REMARK    1  A    between atoms: C_2  and  C_3
REMARK                            x       y       z     vdW  Elec       q    Type
REMARK                         _______ _______ _______ _____ _____    ______ ____
ROOT
ATOM      1  C   UNL     1       4.832   3.564  15.361  0.00  0.00    +0.000 C 
ATOM      2  C   UNL     1       4.866   4.082  16.607  0.00  0.00    +0.000 C 
ATOM      3  N   UNL     1       5.832   5.015  16.950  0.00  0.00    +0.000 N 
ATOM      4  C   UNL     1       6.021   5.650  18.232  0.00  0.00    +0.000 C 
ATOM      5  C   UNL     1       7.230   6.555  17.957  0.00  0.00    +0.000 C 
ATOM      6  N   UNL     1       7.636   6.367  16.532  0.00  0.00    +0.000 NA
ATOM      7  C   UNL     1       6.786   5.483  16.077  0.00  0.00    +0.000 C 
ATOM      8  C   UNL     1       6.796   4.969  14.692  0.00  0.00    +0.000 A 
ATOM      9  C   UNL     1       7.726   5.421  13.755  0.00  0.00    +0.000 A 
ATOM     10  C   UNL     1       7.692   4.906  12.459  0.00  0.00    +0.000 A 
ATOM     11  C   UNL     1       6.739   3.946  12.113  0.00  0.00    +0.000 A 
ATOM     12  C   UNL     1       5.807   3.497  13.055  0.00  0.00    +0.000 A 
ATOM     13  C   UNL     1       5.822   4.006  14.357  0.00  0.00    +0.000 A 
ENDROOT
BRANCH   2  14
ATOM     14  C   UNL     1       3.853   3.671  17.527  0.00  0.00    +0.000 A 
ATOM     15  C   UNL     1       3.731   2.456  18.180  0.00  0.00    +0.000 A 
ATOM     16  C   UNL     1       2.531   2.355  18.941  0.00  0.00    +0.000 A 
ATOM     17  C   UNL     1       1.776   3.502  18.862  0.00  0.00    +0.000 A 
ATOM     18  S   UNL     1       2.519   4.694  17.887  0.00  0.00    +0.000 S 
ENDBRANCH   2  14
TORSDOF 1
ENDMDL
MODEL 4
REMARK VINA RESULT:      -6.9      2.204      5.824
REMARK  Name = 
REMARK  1 active torsions:
REMARK  status: ('A' for Active; 'I' for Inactive)
REMARK    1  A    between atoms: C_2  and  C_3
REMARK                            x       y       z     vdW  Elec       q    Type
REMARK                         _______ _______ _______ _____ _____    ______ ____
ROOT
ATOM      1  C   UNL     1       4.419   3.771  16.360  0.00  0.00    +0.000 C 
ATOM      2  C   UNL     1       4.618   4.153  17.639  0.00  0.00    +0.000 C 
ATOM      3  N   UNL     1       5.772   4.834  17.995  0.00  0.00    +0.000 N 
ATOM      4  C   UNL     1       6.148   5.295  19.309  0.00  0.00    +0.000 C 
ATOM      5  C   UNL     1       7.506   5.956  19.032  0.00  0.00    +0.000 C 
ATOM      6  N   UNL     1       7.798   5.822  17.573  0.00  0.00    +0.000 NA
ATOM      7  C   UNL     1       6.762   5.176  17.103  0.00  0.00    +0.000 C 
ATOM      8  C   UNL     1       6.601   4.801  15.683  0.00  0.00    +0.000 A 
ATOM      9  C   UNL     1       7.561   5.139  14.728  0.00  0.00    +0.000 A 
ATOM     10  C   UNL     1       7.362   4.764  13.400  0.00  0.00    +0.000 A 
ATOM     11  C   UNL     1       6.214   4.055  13.038  0.00  0.00    +0.000 A 
ATOM     12  C   UNL     1       5.253   3.720  13.998  0.00  0.00    +0.000 A 
ATOM     13  C   UNL     1       5.433   4.093  15.334  0.00  0.00    +0.000 A 
ENDROOT
BRANCH   2  14
ATOM     14  C   UNL     1       3.585   3.874  18.586  0.00  0.00    +0.000 A 
ATOM     15  C   UNL     1       2.441   4.610  18.846  0.00  0.00    +0.000 A 
ATOM     16  C   UNL     1       1.686   4.091  19.937  0.00  0.00    +0.000 A 
ATOM     17  C   UNL     1       2.266   2.964  20.471  0.00  0.00    +0.000 A 
ATOM     18  S   UNL     1       3.702   2.530  19.651  0.00  0.00    +0.000 S 
ENDBRANCH   2  14
TORSDOF 1
ENDMDL
MODEL 5
REMARK VINA RESULT:      -6.8      1.677      3.389
REMARK  Name = 
REMARK  1 active torsions:
REMARK  status: ('A' for Active; 'I' for Inactive)
REMARK    1  A    between atoms: C_2  and  C_3
REMARK                            x       y       z     vdW  Elec       q    Type
REMARK                         _______ _______ _______ _____ _____    ______ ____
ROOT
ATOM      1  C   UNL     1       3.740   6.754  17.697  0.00  0.00    +0.000 C 
ATOM      2  C   UNL     1       4.264   5.510  17.731  0.00  0.00    +0.000 C 
ATOM      3  N   UNL     1       3.920   4.634  18.749  0.00  0.00    +0.000 N 
ATOM      4  C   UNL     1       4.398   3.286  18.944  0.00  0.00    +0.000 C 
ATOM      5  C   UNL     1       3.652   2.873  20.221  0.00  0.00    +0.000 C 
ATOM      6  N   UNL     1       2.801   4.021  20.654  0.00  0.00    +0.000 NA
ATOM      7  C   UNL     1       3.039   4.945  19.758  0.00  0.00    +0.000 C 
ATOM      8  C   UNL     1       2.417   6.284  19.773  0.00  0.00    +0.000 A 
ATOM      9  C   UNL     1       1.500   6.650  20.759  0.00  0.00    +0.000 A 
ATOM     10  C   UNL     1       0.939   7.926  20.727  0.00  0.00    +0.000 A 
ATOM     11  C   UNL     1       1.300   8.824  19.720  0.00  0.00    +0.000 A 
ATOM     12  C   UNL     1       2.219   8.453  18.732  0.00  0.00    +0.000 A 
ATOM     13  C   UNL     1       2.787   7.175  18.745  0.00  0.00    +0.000 A 
ENDROOT
BRANCH   2  14
ATOM     14  C   UNL     1       5.135   5.125  16.666  0.00  0.00    +0.000 A 
ATOM     15  C   UNL     1       4.850   4.320  15.576  0.00  0.00    +0.000 A 
ATOM     16  C   UNL     1       5.994   4.057  14.768  0.00  0.00    +0.000 A 
ATOM     17  C   UNL     1       7.119   4.681  15.255  0.00  0.00    +0.000 A 
ATOM     18  S   UNL     1       6.791   5.588  16.667  0.00  0.00    +0.000 S 
ENDBRANCH   2  14
TORSDOF 1
ENDMDL
MODEL 6
REMARK VINA RESULT:      -6.8      2.571      5.849
REMARK  Name = 
REMARK  1 active torsions:
REMARK  status: ('A' for Active; 'I' for Inactive)
REMARK    1  A    between atoms: C_2  and  C_3
REMARK                            x       y       z     vdW  Elec       q    Type
REMARK                         _______ _______ _______ _____ _____    ______ ____
ROOT
ATOM      1  C   UNL     1       3.460   7.122  17.844  0.00  0.00    +0.000 C 
ATOM      2  C   UNL     1       2.624   6.769  18.843  0.00  0.00    +0.000 C 
ATOM      3  N   UNL     1       2.460   5.434  19.179  0.00  0.00    +0.000 N 
ATOM      4  C   UNL     1       1.599   4.886  20.200  0.00  0.00    +0.000 C 
ATOM      5  C   UNL     1       1.874   3.381  20.065  0.00  0.00    +0.000 C 
ATOM      6  N   UNL     1       2.876   3.188  18.975  0.00  0.00    +0.000 NA
ATOM      7  C   UNL     1       3.122   4.403  18.555  0.00  0.00    +0.000 C 
ATOM      8  C   UNL     1       4.065   4.720  17.463  0.00  0.00    +0.000 A 
ATOM      9  C   UNL     1       4.782   3.719  16.807  0.00  0.00    +0.000 A 
ATOM     10  C   UNL     1       5.661   4.070  15.783  0.00  0.00    +0.000 A 
ATOM     11  C   UNL     1       5.812   5.411  15.421  0.00  0.00    +0.000 A 
ATOM     12  C   UNL     1       5.093   6.412  16.083  0.00  0.00    +0.000 A 
ATOM     13  C   UNL     1       4.212   6.078  17.115  0.00  0.00    +0.000 A 
ENDROOT
BRANCH   2  14
ATOM     14  C   UNL     1       1.964   7.814  19.560  0.00  0.00    +0.000 A 
ATOM     15  C   UNL     1       1.611   7.844  20.899  0.00  0.00    +0.000 A 
ATOM     16  C   UNL     1       0.864   9.006  21.248  0.00  0.00    +0.000 A 
ATOM     17  C   UNL     1       0.679   9.839  20.170  0.00  0.00    +0.000 A 
ATOM     18  S   UNL     1       1.415   9.229  18.752  0.00  0.00    +0.000 S 
ENDBRANCH   2  14
TORSDOF 1
ENDMDL
MODEL 7
REMARK VINA RESULT:      -6.8      1.028      1.221
REMARK  Name = 
REMARK  1 active torsions:
REMARK  status: ('A' for Active; 'I' for Inactive)
REMARK    1  A    between atoms: C_2  and  C_3
REMARK                            x       y       z     vdW  Elec       q    Type
REMARK                         _______ _______ _______ _____ _____    ______ ____
ROOT
ATOM      1  C   UNL     1       4.579   3.654  18.313  0.00  0.00    +0.000 C 
ATOM      2  C   UNL     1       4.698   4.770  17.562  0.00  0.00    +0.000 C 
ATOM      3  N   UNL     1       3.947   5.897  17.861  0.00  0.00    +0.000 N 
ATOM      4  C   UNL     1       3.939   7.156  17.157  0.00  0.00    +0.000 C 
ATOM      5  C   UNL     1       2.917   7.963  17.972  0.00  0.00    +0.000 C 
ATOM      6  N   UNL     1       2.424   7.097  19.084  0.00  0.00    +0.000 NA
ATOM      7  C   UNL     1       3.066   5.970  18.914  0.00  0.00    +0.000 C 
ATOM      8  C   UNL     1       2.898   4.789  19.785  0.00  0.00    +0.000 A 
ATOM      9  C   UNL     1       2.035   4.810  20.881  0.00  0.00    +0.000 A 
ATOM     10  C   UNL     1       1.914   3.669  21.674  0.00  0.00    +0.000 A 
ATOM     11  C   UNL     1       2.648   2.521  21.365  0.00  0.00    +0.000 A 
ATOM     12  C   UNL     1       3.513   2.505  20.266  0.00  0.00    +0.000 A 
ATOM     13  C   UNL     1       3.652   3.641  19.464  0.00  0.00    +0.000 A 
ENDROOT
BRANCH   2  14
ATOM     14  C   UNL     1       5.650   4.758  16.497  0.00  0.00    +0.000 A 
ATOM     15  C   UNL     1       6.988   5.108  16.540  0.00  0.00    +0.000 A 
ATOM     16  C   UNL     1       7.610   5.081  15.258  0.00  0.00    +0.000 A 
ATOM     17  C   UNL     1       6.732   4.694  14.272  0.00  0.00    +0.000 A 
ATOM     18  S   UNL     1       5.176   4.355  14.893  0.00  0.00    +0.000 S 
ENDBRANCH   2  14
TORSDOF 1
ENDMDL
MODEL 8
REMARK VINA RESULT:      -6.7      1.664      3.819
REMARK  Name = 
REMARK  1 active torsions:
REMARK  status: ('A' for Active; 'I' for Inactive)
REMARK    1  A    between atoms: C_2  and  C_3
REMARK                            x       y       z     vdW  Elec       q    Type
REMARK                         _______ _______ _______ _____ _____    ______ ____
ROOT
ATOM      1  C   UNL     1       3.683   7.343  17.398  0.00  0.00    +0.000 C 
ATOM      2  C   UNL     1       4.068   6.096  17.745  0.00  0.00    +0.000 C 
ATOM      3  N   UNL     1       3.545   5.493  18.878  0.00  0.00    +0.000 N 
ATOM      4  C   UNL     1       3.858   4.184  19.398  0.00  0.00    +0.000 C 
ATOM      5  C   UNL     1       2.964   4.121  20.645  0.00  0.00    +0.000 C 
ATOM      6  N   UNL     1       2.205   5.404  20.737  0.00  0.00    +0.000 NA
ATOM      7  C   UNL     1       2.617   6.088  19.700  0.00  0.00    +0.000 C 
ATOM      8  C   UNL     1       2.142   7.447  19.371  0.00  0.00    +0.000 A 
ATOM      9  C   UNL     1       1.186   8.094  20.155  0.00  0.00    +0.000 A 
ATOM     10  C   UNL     1       0.768   9.376  19.800  0.00  0.00    +0.000 A 
ATOM     11  C   UNL     1       1.309  10.001  18.674  0.00  0.00    +0.000 A 
ATOM     12  C   UNL     1       2.266   9.348  17.889  0.00  0.00    +0.000 A 
ATOM     13  C   UNL     1       2.692   8.060  18.226  0.00  0.00    +0.000 A 
ENDROOT
BRANCH   2  14
ATOM     14  C   UNL     1       4.982   5.417  16.882  0.00  0.00    +0.000 A 
ATOM     15  C   UNL     1       4.719   4.385  15.997  0.00  0.00    +0.000 A 
ATOM     16  C   UNL     1       5.896   3.873  15.378  0.00  0.00    +0.000 A 
ATOM     17  C   UNL     1       7.025   4.539  15.795  0.00  0.00    +0.000 A 
ATOM     18  S   UNL     1       6.663   5.780  16.914  0.00  0.00    +0.000 S 
ENDBRANCH   2  14
TORSDOF 1
ENDMDL
MODEL 9
REMARK VINA RESULT:      -6.6      1.780      5.254
REMARK  Name = 
REMARK  1 active torsions:
REMARK  status: ('A' for Active; 'I' for Inactive)
REMARK    1  A    between atoms: C_2  and  C_3
REMARK                            x       y       z     vdW  Elec       q    Type
REMARK                         _______ _______ _______ _____ _____    ______ ____
ROOT
ATOM      1  C   UNL     1       4.146   3.498  17.773  0.00  0.00    +0.000 C 
ATOM      2  C   UNL     1       3.354   4.258  18.560  0.00  0.00    +0.000 C 
ATOM      3  N   UNL     1       3.257   5.624  18.342  0.00  0.00    +0.000 N 
ATOM      4  C   UNL     1       2.479   6.578  19.094  0.00  0.00    +0.000 C 
ATOM      5  C   UNL     1       2.798   7.889  18.361  0.00  0.00    +0.000 C 
ATOM      6  N   UNL     1       3.736   7.577  17.241  0.00  0.00    +0.000 NA
ATOM      7  C   UNL     1       3.921   6.286  17.336  0.00  0.00    +0.000 C 
ATOM      8  C   UNL     1       4.792   5.511  16.429  0.00  0.00    +0.000 A 
ATOM      9  C   UNL     1       5.475   6.123  15.377  0.00  0.00    +0.000 A 
ATOM     10  C   UNL     1       6.283   5.348  14.547  0.00  0.00    +0.000 A 
ATOM     11  C   UNL     1       6.408   3.975  14.775  0.00  0.00    +0.000 A 
ATOM     12  C   UNL     1       5.720   3.365  15.830  0.00  0.00    +0.000 A 
ATOM     13  C   UNL     1       4.900   4.126  16.669  0.00  0.00    +0.000 A 
ENDROOT
BRANCH   2  14
ATOM     14  C   UNL     1       2.597   3.600  19.578  0.00  0.00    +0.000 A 
ATOM     15  C   UNL     1       1.222   3.563  19.732  0.00  0.00    +0.000 A 
ATOM     16  C   UNL     1       0.817   2.902  20.928  0.00  0.00    +0.000 A 
ATOM     17  C   UNL     1       1.894   2.439  21.647  0.00  0.00    +0.000 A 
ATOM     18  S   UNL     1       3.380   2.788  20.875  0.00  0.00    +0.000 S 
ENDBRANCH   2  14
TORSDOF 1
ENDMDL
