MODEL 1
REMARK VINA RESULT:      -8.6      0.000      0.000
REMARK  Name = 
REMARK  4 active torsions:
REMARK  status: ('A' for Active; 'I' for Inactive)
REMARK    1  A    between atoms: N_1  and  C_2
REMARK    2  A    between atoms: C_5  and  C_6
REMARK    3  A    between atoms: C_8  and  N_9
REMARK    4  A    between atoms: N_9  and  C_10
REMARK                            x       y       z     vdW  Elec       q    Type
REMARK                         _______ _______ _______ _____ _____    ______ ____
ROOT
ATOM      1  C   UNL     1       8.450   9.919  18.352  0.00  0.00    +0.000 A 
ATOM      2  C   UNL     1       9.273   9.978  19.476  0.00  0.00    +0.000 A 
ATOM      3  C   UNL     1      10.036  11.089  19.675  0.00  0.00    +0.000 A 
ATOM      4  C   UNL     1      10.221  11.742  18.511  0.00  0.00    +0.000 A 
ATOM      5  C   UNL     1      11.443  12.398  18.095  0.00  0.00    +0.000 A 
ATOM      6  O   UNL     1      11.917  12.174  16.989  0.00  0.00    +0.000 OA
ATOM      7  N   UNL     1      11.666  13.481  18.870  0.00  0.00    +0.000 N 
ATOM      8  C   UNL     1      10.633  14.421  18.662  0.00  0.00    +0.000 A 
ATOM      9  C   UNL     1      11.070  15.705  19.002  0.00  0.00    +0.000 A 
ATOM     10  C   UNL     1      10.230  16.748  18.732  0.00  0.00    +0.000 A 
ATOM     11  C   UNL     1       9.014  16.464  18.127  0.00  0.00    +0.000 A 
ATOM     12  C   UNL     1       8.517  15.108  17.834  0.00  0.00    +0.000 A 
ATOM     13  C   UNL     1       9.316  13.989  18.099  0.00  0.00    +0.000 A 
ATOM     14  C   UNL     1       9.095  12.374  18.049  0.00  0.00    +0.000 A 
ATOM     15  C   UNL     1       8.171  11.278  17.781  0.00  0.00    +0.000 A 
ATOM     16  H   UNL     1      11.624  13.242  19.855  0.00  0.00    +0.000 HD
ENDROOT
BRANCH   1  20
ATOM     17  C   UNL     1       7.341   5.621  18.069  0.00  0.00    +0.000 A 
ATOM     18  C   UNL     1       7.059   6.478  16.992  0.00  0.00    +0.000 A 
ATOM     19  C   UNL     1       7.439   7.873  16.978  0.00  0.00    +0.000 A 
ATOM     20  C   UNL     1       8.176   8.443  18.019  0.00  0.00    +0.000 A 
ATOM     21  C   UNL     1       8.499   7.498  19.060  0.00  0.00    +0.000 A 
ATOM     22  C   UNL     1       8.098   6.147  19.093  0.00  0.00    +0.000 A 
BRANCH  17  23
ATOM     23  N   UNL     1       7.098   4.251  18.034  0.00  0.00    +0.000 N 
ATOM     24  H   UNL     1       7.798   3.670  17.566  0.00  0.00    +0.000 HD
ATOM     25  H   UNL     1       6.152   3.970  17.779  0.00  0.00    +0.000 HD
ENDBRANCH  17  23
ENDBRANCH   1  20
BRANCH   3  26
ATOM     26  N   UNL     1      10.332  11.588  20.940  0.00  0.00    +0.000 N 
ATOM     27  H   UNL     1      10.878  10.933  21.489  0.00  0.00    +0.000 HD
BRANCH  26  28
ATOM     28  C   UNL     1       9.404  12.316  21.733  0.00  0.00    +0.000 A 
ATOM     29  C   UNL     1       9.533  13.700  21.821  0.00  0.00    +0.000 A 
ATOM     30  C   UNL     1       8.702  14.438  22.674  0.00  0.00    +0.000 A 
ATOM     31  C   UNL     1       7.715  13.799  23.419  0.00  0.00    +0.000 A 
ATOM     32  C   UNL     1       7.496  12.436  23.255  0.00  0.00    +0.000 A 
ATOM     33  C   UNL     1       8.302  11.710  22.375  0.00  0.00    +0.000 A 
ENDBRANCH  26  28
ENDBRANCH   3  26
TORSDOF 4
ENDMDL
MODEL 2
REMARK VINA RESULT:      -7.9      7.609      9.241
REMARK  Name = 
REMARK  4 active torsions:
REMARK  status: ('A' for Active; 'I' for Inactive)
REMARK    1  A    between atoms: N_1  and  C_2
REMARK    2  A    between atoms: C_5  and  C_6
REMARK    3  A    between atoms: C_8  and  N_9
REMARK    4  A    between atoms: N_9  and  C_10
REMARK                            x       y       z     vdW  Elec       q    Type
REMARK                         _______ _______ _______ _____ _____    ______ ____
ROOT
ATOM      1  C   UNL     1       1.764   8.669  18.924  0.00  0.00    +0.000 A 
ATOM      2  C   UNL     1       1.789   9.781  18.083  0.00  0.00    +0.000 A 
ATOM      3  C   UNL     1       0.856  10.758  18.257  0.00  0.00    +0.000 A 
ATOM      4  C   UNL     1      -0.219  10.266  18.905  0.00  0.00    +0.000 A 
ATOM      5  C   UNL     1      -1.599  10.612  18.635  0.00  0.00    +0.000 A 
ATOM      6  O   UNL     1      -2.434   9.732  18.477  0.00  0.00    +0.000 OA
ATOM      7  N   UNL     1      -1.826  11.894  18.993  0.00  0.00    +0.000 N 
ATOM      8  C   UNL     1      -1.662  12.021  20.390  0.00  0.00    +0.000 A 
ATOM      9  C   UNL     1      -2.372  13.129  20.862  0.00  0.00    +0.000 A 
ATOM     10  C   UNL     1      -2.424  13.314  22.215  0.00  0.00    +0.000 A 
ATOM     11  C   UNL     1      -1.785  12.384  23.023  0.00  0.00    +0.000 A 
ATOM     12  C   UNL     1      -0.975  11.257  22.529  0.00  0.00    +0.000 A 
ATOM     13  C   UNL     1      -0.862  11.015  21.155  0.00  0.00    +0.000 A 
ATOM     14  C   UNL     1       0.012   9.996  20.229  0.00  0.00    +0.000 A 
ATOM     15  C   UNL     1       1.012   8.934  20.194  0.00  0.00    +0.000 A 
ATOM     16  H   UNL     1      -1.141  12.518  18.580  0.00  0.00    +0.000 HD
ENDROOT
BRANCH   1  20
ATOM     17  C   UNL     1       4.390   5.540  17.162  0.00  0.00    +0.000 A 
ATOM     18  C   UNL     1       3.189   5.162  17.785  0.00  0.00    +0.000 A 
ATOM     19  C   UNL     1       2.251   6.118  18.330  0.00  0.00    +0.000 A 
ATOM     20  C   UNL     1       2.454   7.495  18.209  0.00  0.00    +0.000 A 
ATOM     21  C   UNL     1       3.665   7.823  17.496  0.00  0.00    +0.000 A 
ATOM     22  C   UNL     1       4.599   6.893  16.997  0.00  0.00    +0.000 A 
BRANCH  17  23
ATOM     23  N   UNL     1       5.232   4.637  16.519  0.00  0.00    +0.000 N 
ATOM     24  H   UNL     1       5.235   3.677  16.874  0.00  0.00    +0.000 HD
ATOM     25  H   UNL     1       6.177   4.964  16.327  0.00  0.00    +0.000 HD
ENDBRANCH  17  23
ENDBRANCH   1  20
BRANCH   3  26
ATOM     26  N   UNL     1       1.120  12.106  18.033  0.00  0.00    +0.000 N 
ATOM     27  H   UNL     1       1.173  12.323  17.043  0.00  0.00    +0.000 HD
BRANCH  26  28
ATOM     28  C   UNL     1       2.042  12.864  18.803  0.00  0.00    +0.000 A 
ATOM     29  C   UNL     1       1.920  12.868  20.190  0.00  0.00    +0.000 A 
ATOM     30  C   UNL     1       2.745  13.685  20.974  0.00  0.00    +0.000 A 
ATOM     31  C   UNL     1       3.721  14.478  20.376  0.00  0.00    +0.000 A 
ATOM     32  C   UNL     1       3.934  14.397  19.004  0.00  0.00    +0.000 A 
ATOM     33  C   UNL     1       3.134  13.554  18.231  0.00  0.00    +0.000 A 
ENDBRANCH  26  28
ENDBRANCH   3  26
TORSDOF 4
ENDMDL
MODEL 3
REMARK VINA RESULT:      -7.7      7.907      9.398
REMARK  Name = 
REMARK  4 active torsions:
REMARK  status: ('A' for Active; 'I' for Inactive)
REMARK    1  A    between atoms: N_1  and  C_2
REMARK    2  A    between atoms: C_5  and  C_6
REMARK    3  A    between atoms: C_8  and  N_9
REMARK    4  A    between atoms: N_9  and  C_10
REMARK                            x       y       z     vdW  Elec       q    Type
REMARK                         _______ _______ _______ _____ _____    ______ ____
ROOT
ATOM      1  C   UNL     1       1.486   8.963  19.427  0.00  0.00    +0.000 A 
ATOM      2  C   UNL     1       1.634   9.992  18.498  0.00  0.00    +0.000 A 
ATOM      3  C   UNL     1       0.704  10.987  18.465  0.00  0.00    +0.000 A 
ATOM      4  C   UNL     1      -0.451  10.563  19.014  0.00  0.00    +0.000 A 
ATOM      5  C   UNL     1      -1.781  10.890  18.543  0.00  0.00    +0.000 A 
ATOM      6  O   UNL     1      -2.605  10.005  18.362  0.00  0.00    +0.000 OA
ATOM      7  N   UNL     1      -2.029  12.201  18.753  0.00  0.00    +0.000 N 
ATOM      8  C   UNL     1      -2.038  12.455  20.142  0.00  0.00    +0.000 A 
ATOM      9  C   UNL     1      -2.782  13.606  20.418  0.00  0.00    +0.000 A 
ATOM     10  C   UNL     1      -2.998  13.916  21.732  0.00  0.00    +0.000 A 
ATOM     11  C   UNL     1      -2.481  13.060  22.695  0.00  0.00    +0.000 A 
ATOM     12  C   UNL     1      -1.635  11.888  22.411  0.00  0.00    +0.000 A 
ATOM     13  C   UNL     1      -1.356  11.519  21.089  0.00  0.00    +0.000 A 
ATOM     14  C   UNL     1      -0.392  10.415  20.377  0.00  0.00    +0.000 A 
ATOM     15  C   UNL     1       0.586   9.348  20.564  0.00  0.00    +0.000 A 
ATOM     16  H   UNL     1      -1.287  12.780  18.373  0.00  0.00    +0.000 HD
ENDROOT
BRANCH   1  20
ATOM     17  C   UNL     1       4.258   5.838  17.899  0.00  0.00    +0.000 A 
ATOM     18  C   UNL     1       3.435   5.550  19.001  0.00  0.00    +0.000 A 
ATOM     19  C   UNL     1       2.465   6.487  19.523  0.00  0.00    +0.000 A 
ATOM     20  C   UNL     1       2.239   7.724  18.913  0.00  0.00    +0.000 A 
ATOM     21  C   UNL     1       3.059   7.932  17.745  0.00  0.00    +0.000 A 
ATOM     22  C   UNL     1       4.031   7.036  17.256  0.00  0.00    +0.000 A 
BRANCH  17  23
ATOM     23  N   UNL     1       5.097   4.896  17.310  0.00  0.00    +0.000 N 
ATOM     24  H   UNL     1       5.567   5.174  16.444  0.00  0.00    +0.000 HD
ATOM     25  H   UNL     1       4.729   3.948  17.243  0.00  0.00    +0.000 HD
ENDBRANCH  17  23
ENDBRANCH   1  20
BRANCH   3  26
ATOM     26  N   UNL     1       1.017  12.307  18.154  0.00  0.00    +0.000 N 
ATOM     27  H   UNL     1       1.122  12.447  17.154  0.00  0.00    +0.000 HD
BRANCH  26  28
ATOM     28  C   UNL     1       1.924  13.097  18.909  0.00  0.00    +0.000 A 
ATOM     29  C   UNL     1       2.892  13.841  18.237  0.00  0.00    +0.000 A 
ATOM     30  C   UNL     1       3.866  14.550  18.951  0.00  0.00    +0.000 A 
ATOM     31  C   UNL     1       3.859  14.545  20.343  0.00  0.00    +0.000 A 
ATOM     32  C   UNL     1       2.833  13.905  21.029  0.00  0.00    +0.000 A 
ATOM     33  C   UNL     1       1.841  13.231  20.312  0.00  0.00    +0.000 A 
ENDBRANCH  26  28
ENDBRANCH   3  26
TORSDOF 4
ENDMDL
MODEL 4
REMARK VINA RESULT:      -7.6      7.826      9.335
REMARK  Name = 
REMARK  4 active torsions:
REMARK  status: ('A' for Active; 'I' for Inactive)
REMARK    1  A    between atoms: N_1  and  C_2
REMARK    2  A    between atoms: C_5  and  C_6
REMARK    3  A    between atoms: C_8  and  N_9
REMARK    4  A    between atoms: N_9  and  C_10
REMARK                            x       y       z     vdW  Elec       q    Type
REMARK                         _______ _______ _______ _____ _____    ______ ____
ROOT
ATOM      1  C   UNL     1       1.725   8.743  19.379  0.00  0.00    +0.000 A 
ATOM      2  C   UNL     1       1.836   9.765  18.437  0.00  0.00    +0.000 A 
ATOM      3  C   UNL     1       0.877  10.733  18.400  0.00  0.00    +0.000 A 
ATOM      4  C   UNL     1      -0.261  10.283  18.965  0.00  0.00    +0.000 A 
ATOM      5  C   UNL     1      -1.603  10.567  18.502  0.00  0.00    +0.000 A 
ATOM      6  O   UNL     1      -2.403   9.656  18.338  0.00  0.00    +0.000 OA
ATOM      7  N   UNL     1      -1.886  11.873  18.698  0.00  0.00    +0.000 N 
ATOM      8  C   UNL     1      -1.890  12.143  20.084  0.00  0.00    +0.000 A 
ATOM      9  C   UNL     1      -2.664  13.276  20.354  0.00  0.00    +0.000 A 
ATOM     10  C   UNL     1      -2.878  13.594  21.666  0.00  0.00    +0.000 A 
ATOM     11  C   UNL     1      -2.329  12.765  22.634  0.00  0.00    +0.000 A 
ATOM     12  C   UNL     1      -1.452  11.613  22.356  0.00  0.00    +0.000 A 
ATOM     13  C   UNL     1      -1.175  11.238  21.036  0.00  0.00    +0.000 A 
ATOM     14  C   UNL     1      -0.185  10.152  20.328  0.00  0.00    +0.000 A 
ATOM     15  C   UNL     1       0.824   9.116  20.519  0.00  0.00    +0.000 A 
ATOM     16  H   UNL     1      -1.164  12.468  18.306  0.00  0.00    +0.000 HD
ENDROOT
BRANCH   1  20
ATOM     17  C   UNL     1       3.321   4.872  17.876  0.00  0.00    +0.000 A 
ATOM     18  C   UNL     1       3.749   6.072  17.283  0.00  0.00    +0.000 A 
ATOM     19  C   UNL     1       3.326   7.374  17.749  0.00  0.00    +0.000 A 
ATOM     20  C   UNL     1       2.508   7.520  18.872  0.00  0.00    +0.000 A 
ATOM     21  C   UNL     1       2.162   6.260  19.483  0.00  0.00    +0.000 A 
ATOM     22  C   UNL     1       2.543   4.989  19.009  0.00  0.00    +0.000 A 
BRANCH  17  23
ATOM     23  N   UNL     1       3.826   3.625  17.520  0.00  0.00    +0.000 N 
ATOM     24  H   UNL     1       3.236   2.814  17.724  0.00  0.00    +0.000 HD
ATOM     25  H   UNL     1       4.798   3.448  17.768  0.00  0.00    +0.000 HD
ENDBRANCH  17  23
ENDBRANCH   1  20
BRANCH   3  26
ATOM     26  N   UNL     1       1.150  12.057  18.071  0.00  0.00    +0.000 N 
ATOM     27  H   UNL     1       1.298  12.179  17.075  0.00  0.00    +0.000 HD
BRANCH  26  28
ATOM     28  C   UNL     1       1.987  12.903  18.848  0.00  0.00    +0.000 A 
ATOM     29  C   UNL     1       2.919  13.710  18.200  0.00  0.00    +0.000 A 
ATOM     30  C   UNL     1       3.829  14.478  18.937  0.00  0.00    +0.000 A 
ATOM     31  C   UNL     1       3.789  14.469  20.329  0.00  0.00    +0.000 A 
ATOM     32  C   UNL     1       2.791  13.762  20.990  0.00  0.00    +0.000 A 
ATOM     33  C   UNL     1       1.862  13.028  20.249  0.00  0.00    +0.000 A 
ENDBRANCH  26  28
ENDBRANCH   3  26
TORSDOF 4
ENDMDL
MODEL 5
REMARK VINA RESULT:      -7.6      8.009      9.495
REMARK  Name = 
REMARK  4 active torsions:
REMARK  status: ('A' for Active; 'I' for Inactive)
REMARK    1  A    between atoms: N_1  and  C_2
REMARK    2  A    between atoms: C_5  and  C_6
REMARK    3  A    between atoms: C_8  and  N_9
REMARK    4  A    between atoms: N_9  and  C_10
REMARK                            x       y       z     vdW  Elec       q    Type
REMARK                         _______ _______ _______ _____ _____    ______ ____
ROOT
ATOM      1  C   UNL     1       1.769   8.631  19.409  0.00  0.00    +0.000 A 
ATOM      2  C   UNL     1       1.893   9.635  18.448  0.00  0.00    +0.000 A 
ATOM      3  C   UNL     1       0.950  10.617  18.397  0.00  0.00    +0.000 A 
ATOM      4  C   UNL     1      -0.193  10.195  18.973  0.00  0.00    +0.000 A 
ATOM      5  C   UNL     1      -1.532  10.492  18.509  0.00  0.00    +0.000 A 
ATOM      6  O   UNL     1      -2.347   9.592  18.364  0.00  0.00    +0.000 OA
ATOM      7  N   UNL     1      -1.794  11.806  18.683  0.00  0.00    +0.000 N 
ATOM      8  C   UNL     1      -1.789  12.101  20.064  0.00  0.00    +0.000 A 
ATOM      9  C   UNL     1      -2.544  13.250  20.316  0.00  0.00    +0.000 A 
ATOM     10  C   UNL     1      -2.748  13.596  21.622  0.00  0.00    +0.000 A 
ATOM     11  C   UNL     1      -2.209  12.775  22.603  0.00  0.00    +0.000 A 
ATOM     12  C   UNL     1      -1.352  11.605  22.343  0.00  0.00    +0.000 A 
ATOM     13  C   UNL     1      -1.085  11.201  21.030  0.00  0.00    +0.000 A 
ATOM     14  C   UNL     1      -0.115  10.088  20.338  0.00  0.00    +0.000 A 
ATOM     15  C   UNL     1       0.878   9.039  20.544  0.00  0.00    +0.000 A 
ATOM     16  H   UNL     1      -1.064  12.382  18.278  0.00  0.00    +0.000 HD
ENDROOT
BRANCH   1  20
ATOM     17  C   UNL     1       3.295   4.723  17.930  0.00  0.00    +0.000 A 
ATOM     18  C   UNL     1       3.789   5.913  17.370  0.00  0.00    +0.000 A 
ATOM     19  C   UNL     1       3.391   7.224  17.833  0.00  0.00    +0.000 A 
ATOM     20  C   UNL     1       2.531   7.387  18.922  0.00  0.00    +0.000 A 
ATOM     21  C   UNL     1       2.116   6.134  19.502  0.00  0.00    +0.000 A 
ATOM     22  C   UNL     1       2.473   4.855  19.029  0.00  0.00    +0.000 A 
BRANCH  17  23
ATOM     23  N   UNL     1       3.771   3.463  17.581  0.00  0.00    +0.000 N 
ATOM     24  H   UNL     1       3.753   2.745  18.310  0.00  0.00    +0.000 HD
ATOM     25  H   UNL     1       4.649   3.443  17.064  0.00  0.00    +0.000 HD
ENDBRANCH  17  23
ENDBRANCH   1  20
BRANCH   3  26
ATOM     26  N   UNL     1       1.243  11.930  18.044  0.00  0.00    +0.000 N 
ATOM     27  H   UNL     1       1.981  11.982  17.349  0.00  0.00    +0.000 HD
BRANCH  26  28
ATOM     28  C   UNL     1       1.305  13.000  18.977  0.00  0.00    +0.000 A 
ATOM     29  C   UNL     1       2.055  12.838  20.140  0.00  0.00    +0.000 A 
ATOM     30  C   UNL     1       2.055  13.830  21.129  0.00  0.00    +0.000 A 
ATOM     31  C   UNL     1       1.330  15.004  20.946  0.00  0.00    +0.000 A 
ATOM     32  C   UNL     1       0.672  15.232  19.743  0.00  0.00    +0.000 A 
ATOM     33  C   UNL     1       0.706  14.257  18.744  0.00  0.00    +0.000 A 
ENDBRANCH  26  28
ENDBRANCH   3  26
TORSDOF 4
ENDMDL
MODEL 6
REMARK VINA RESULT:      -7.3      8.256      9.656
REMARK  Name = 
REMARK  4 active torsions:
REMARK  status: ('A' for Active; 'I' for Inactive)
REMARK    1  A    between atoms: N_1  and  C_2
REMARK    2  A    between atoms: C_5  and  C_6
REMARK    3  A    between atoms: C_8  and  N_9
REMARK    4  A    between atoms: N_9  and  C_10
REMARK                            x       y       z     vdW  Elec       q    Type
REMARK                         _______ _______ _______ _____ _____    ______ ____
ROOT
ATOM      1  C   UNL     1       1.520   9.012  19.514  0.00  0.00    +0.000 A 
ATOM      2  C   UNL     1       1.675  10.027  18.571  0.00  0.00    +0.000 A 
ATOM      3  C   UNL     1       0.720  10.996  18.486  0.00  0.00    +0.000 A 
ATOM      4  C   UNL     1      -0.442  10.552  19.003  0.00  0.00    +0.000 A 
ATOM      5  C   UNL     1      -1.762  10.834  18.480  0.00  0.00    +0.000 A 
ATOM      6  O   UNL     1      -2.557   9.924  18.287  0.00  0.00    +0.000 OA
ATOM      7  N   UNL     1      -2.052  12.143  18.655  0.00  0.00    +0.000 N 
ATOM      8  C   UNL     1      -2.116  12.422  20.037  0.00  0.00    +0.000 A 
ATOM      9  C   UNL     1      -2.899  13.557  20.266  0.00  0.00    +0.000 A 
ATOM     10  C   UNL     1      -3.169  13.885  21.564  0.00  0.00    +0.000 A 
ATOM     11  C   UNL     1      -2.665  13.062  22.561  0.00  0.00    +0.000 A 
ATOM     12  C   UNL     1      -1.779  11.907  22.330  0.00  0.00    +0.000 A 
ATOM     13  C   UNL     1      -1.444  11.522  21.026  0.00  0.00    +0.000 A 
ATOM     14  C   UNL     1      -0.427  10.430  20.369  0.00  0.00    +0.000 A 
ATOM     15  C   UNL     1       0.571   9.394  20.611  0.00  0.00    +0.000 A 
ATOM     16  H   UNL     1      -1.312  12.734  18.290  0.00  0.00    +0.000 HD
ENDROOT
BRANCH   1  20
ATOM     17  C   UNL     1       3.208   5.081  18.293  0.00  0.00    +0.000 A 
ATOM     18  C   UNL     1       3.427   6.207  17.483  0.00  0.00    +0.000 A 
ATOM     19  C   UNL     1       2.965   7.531  17.836  0.00  0.00    +0.000 A 
ATOM     20  C   UNL     1       2.323   7.784  19.051  0.00  0.00    +0.000 A 
ATOM     21  C   UNL     1       2.192   6.606  19.872  0.00  0.00    +0.000 A 
ATOM     22  C   UNL     1       2.609   5.308  19.514  0.00  0.00    +0.000 A 
BRANCH  17  23
ATOM     23  N   UNL     1       3.762   3.832  18.027  0.00  0.00    +0.000 N 
ATOM     24  H   UNL     1       4.565   3.553  18.596  0.00  0.00    +0.000 HD
ATOM     25  H   UNL     1       3.908   3.608  17.043  0.00  0.00    +0.000 HD
ENDBRANCH  17  23
ENDBRANCH   1  20
BRANCH   3  26
ATOM     26  N   UNL     1       1.010  12.318  18.160  0.00  0.00    +0.000 N 
ATOM     27  H   UNL     1       1.701  12.385  17.420  0.00  0.00    +0.000 HD
BRANCH  26  28
ATOM     28  C   UNL     1       1.149  13.351  19.125  0.00  0.00    +0.000 A 
ATOM     29  C   UNL     1       0.511  14.570  18.905  0.00  0.00    +0.000 A 
ATOM     30  C   UNL     1       0.709  15.644  19.781  0.00  0.00    +0.000 A 
ATOM     31  C   UNL     1       1.523  15.496  20.902  0.00  0.00    +0.000 A 
ATOM     32  C   UNL     1       2.073  14.254  21.199  0.00  0.00    +0.000 A 
ATOM     33  C   UNL     1       1.841  13.176  20.343  0.00  0.00    +0.000 A 
ENDBRANCH  26  28
ENDBRANCH   3  26
TORSDOF 4
ENDMDL
MODEL 7
REMARK VINA RESULT:      -7.2     11.910     13.604
REMARK  Name = 
REMARK  4 active torsions:
REMARK  status: ('A' for Active; 'I' for Inactive)
REMARK    1  A    between atoms: N_1  and  C_2
REMARK    2  A    between atoms: C_5  and  C_6
REMARK    3  A    between atoms: C_8  and  N_9
REMARK    4  A    between atoms: N_9  and  C_10
REMARK                            x       y       z     vdW  Elec       q    Type
REMARK                         _______ _______ _______ _____ _____    ______ ____
ROOT
ATOM      1  C   UNL     1      -1.665  12.358  21.972  0.00  0.00    +0.000 A 
ATOM      2  C   UNL     1      -2.536  11.826  22.923  0.00  0.00    +0.000 A 
ATOM      3  C   UNL     1      -3.247  12.678  23.713  0.00  0.00    +0.000 A 
ATOM      4  C   UNL     1      -2.641  13.881  23.765  0.00  0.00    +0.000 A 
ATOM      5  C   UNL     1      -2.544  14.728  24.934  0.00  0.00    +0.000 A 
ATOM      6  O   UNL     1      -1.463  15.190  25.273  0.00  0.00    +0.000 OA
ATOM      7  N   UNL     1      -3.768  15.202  25.256  0.00  0.00    +0.000 N 
ATOM      8  C   UNL     1      -4.231  16.034  24.214  0.00  0.00    +0.000 A 
ATOM      9  C   UNL     1      -5.188  16.931  24.699  0.00  0.00    +0.000 A 
ATOM     10  C   UNL     1      -5.640  17.894  23.842  0.00  0.00    +0.000 A 
ATOM     11  C   UNL     1      -5.108  17.926  22.560  0.00  0.00    +0.000 A 
ATOM     12  C   UNL     1      -4.155  16.940  22.021  0.00  0.00    +0.000 A 
ATOM     13  C   UNL     1      -3.660  15.914  22.836  0.00  0.00    +0.000 A 
ATOM     14  C   UNL     1      -2.733  14.594  22.597  0.00  0.00    +0.000 A 
ATOM     15  C   UNL     1      -1.990  13.783  21.639  0.00  0.00    +0.000 A 
ATOM     16  H   UNL     1      -4.445  14.451  25.328  0.00  0.00    +0.000 HD
ENDROOT
BRANCH   1  20
ATOM     17  C   UNL     1       0.949   8.823  21.295  0.00  0.00    +0.000 A 
ATOM     18  C   UNL     1       0.803   9.778  20.275  0.00  0.00    +0.000 A 
ATOM     19  C   UNL     1       0.022  10.984  20.434  0.00  0.00    +0.000 A 
ATOM     20  C   UNL     1      -0.589  11.308  21.649  0.00  0.00    +0.000 A 
ATOM     21  C   UNL     1      -0.343  10.328  22.678  0.00  0.00    +0.000 A 
ATOM     22  C   UNL     1       0.387   9.134  22.515  0.00  0.00    +0.000 A 
BRANCH  17  23
ATOM     23  N   UNL     1       1.804   7.729  21.196  0.00  0.00    +0.000 N 
ATOM     24  H   UNL     1       1.720   7.011  21.920  0.00  0.00    +0.000 HD
ATOM     25  H   UNL     1       2.781   7.941  20.996  0.00  0.00    +0.000 HD
ENDBRANCH  17  23
ENDBRANCH   1  20
BRANCH   3  26
ATOM     26  N   UNL     1      -4.535  12.400  24.159  0.00  0.00    +0.000 N 
ATOM     27  H   UNL     1      -4.645  11.425  24.421  0.00  0.00    +0.000 HD
BRANCH  26  28
ATOM     28  C   UNL     1      -5.707  12.932  23.558  0.00  0.00    +0.000 A 
ATOM     29  C   UNL     1      -5.807  12.942  22.168  0.00  0.00    +0.000 A 
ATOM     30  C   UNL     1      -6.900  13.552  21.539  0.00  0.00    +0.000 A 
ATOM     31  C   UNL     1      -7.916  14.127  22.297  0.00  0.00    +0.000 A 
ATOM     32  C   UNL     1      -7.890  14.023  23.683  0.00  0.00    +0.000 A 
ATOM     33  C   UNL     1      -6.818  13.380  24.305  0.00  0.00    +0.000 A 
ENDBRANCH  26  28
ENDBRANCH   3  26
TORSDOF 4
ENDMDL
MODEL 8
REMARK VINA RESULT:      -7.2     11.771     13.574
REMARK  Name = 
REMARK  4 active torsions:
REMARK  status: ('A' for Active; 'I' for Inactive)
REMARK    1  A    between atoms: N_1  and  C_2
REMARK    2  A    between atoms: C_5  and  C_6
REMARK    3  A    between atoms: C_8  and  N_9
REMARK    4  A    between atoms: N_9  and  C_10
REMARK                            x       y       z     vdW  Elec       q    Type
REMARK                         _______ _______ _______ _____ _____    ______ ____
ROOT
ATOM      1  C   UNL     1      -1.020  12.221  21.895  0.00  0.00    +0.000 A 
ATOM      2  C   UNL     1      -2.172  12.114  21.116  0.00  0.00    +0.000 A 
ATOM      3  C   UNL     1      -3.323  12.689  21.563  0.00  0.00    +0.000 A 
ATOM      4  C   UNL     1      -3.271  12.860  22.898  0.00  0.00    +0.000 A 
ATOM      5  C   UNL     1      -4.376  12.679  23.817  0.00  0.00    +0.000 A 
ATOM      6  O   UNL     1      -4.238  11.991  24.819  0.00  0.00    +0.000 OA
ATOM      7  N   UNL     1      -5.300  13.644  23.614  0.00  0.00    +0.000 N 
ATOM      8  C   UNL     1      -4.736  14.899  23.930  0.00  0.00    +0.000 A 
ATOM      9  C   UNL     1      -5.743  15.817  24.244  0.00  0.00    +0.000 A 
ATOM     10  C   UNL     1      -5.356  17.045  24.701  0.00  0.00    +0.000 A 
ATOM     11  C   UNL     1      -3.997  17.289  24.838  0.00  0.00    +0.000 A 
ATOM     12  C   UNL     1      -2.930  16.353  24.440  0.00  0.00    +0.000 A 
ATOM     13  C   UNL     1      -3.252  15.082  23.947  0.00  0.00    +0.000 A 
ATOM     14  C   UNL     1      -2.408  13.849  23.294  0.00  0.00    +0.000 A 
ATOM     15  C   UNL     1      -1.101  13.352  22.877  0.00  0.00    +0.000 A 
ATOM     16  H   UNL     1      -5.563  13.700  22.636  0.00  0.00    +0.000 HD
ENDROOT
BRANCH   1  20
ATOM     17  C   UNL     1       1.162   8.426  21.104  0.00  0.00    +0.000 A 
ATOM     18  C   UNL     1       1.126   9.421  20.112  0.00  0.00    +0.000 A 
ATOM     19  C   UNL     1       0.491  10.704  20.309  0.00  0.00    +0.000 A 
ATOM     20  C   UNL     1      -0.075  11.062  21.536  0.00  0.00    +0.000 A 
ATOM     21  C   UNL     1       0.057  10.032  22.536  0.00  0.00    +0.000 A 
ATOM     22  C   UNL     1       0.644   8.766  22.335  0.00  0.00    +0.000 A 
BRANCH  17  23
ATOM     23  N   UNL     1       1.883   7.243  20.970  0.00  0.00    +0.000 N 
ATOM     24  H   UNL     1       1.779   6.737  20.087  0.00  0.00    +0.000 HD
ATOM     25  H   UNL     1       1.856   6.609  21.766  0.00  0.00    +0.000 HD
ENDBRANCH  17  23
ENDBRANCH   1  20
BRANCH   3  26
ATOM     26  N   UNL     1      -4.270  13.250  20.710  0.00  0.00    +0.000 N 
ATOM     27  H   UNL     1      -4.707  14.072  21.115  0.00  0.00    +0.000 HD
BRANCH  26  28
ATOM     28  C   UNL     1      -5.179  12.483  19.933  0.00  0.00    +0.000 A 
ATOM     29  C   UNL     1      -6.327  11.978  20.540  0.00  0.00    +0.000 A 
ATOM     30  C   UNL     1      -7.191  11.133  19.833  0.00  0.00    +0.000 A 
ATOM     31  C   UNL     1      -6.930  10.814  18.503  0.00  0.00    +0.000 A 
ATOM     32  C   UNL     1      -5.854  11.403  17.848  0.00  0.00    +0.000 A 
ATOM     33  C   UNL     1      -5.016  12.275  18.546  0.00  0.00    +0.000 A 
ENDBRANCH  26  28
ENDBRANCH   3  26
TORSDOF 4
ENDMDL
MODEL 9
REMARK VINA RESULT:      -7.2      9.374     12.225
REMARK  Name = 
REMARK  4 active torsions:
REMARK  status: ('A' for Active; 'I' for Inactive)
REMARK    1  A    between atoms: N_1  and  C_2
REMARK    2  A    between atoms: C_5  and  C_6
REMARK    3  A    between atoms: C_8  and  N_9
REMARK    4  A    between atoms: N_9  and  C_10
REMARK                            x       y       z     vdW  Elec       q    Type
REMARK                         _______ _______ _______ _____ _____    ______ ____
ROOT
ATOM      1  C   UNL     1      -1.005  11.317  21.742  0.00  0.00    +0.000 A 
ATOM      2  C   UNL     1      -1.691  11.193  20.533  0.00  0.00    +0.000 A 
ATOM      3  C   UNL     1      -1.075  10.573  19.488  0.00  0.00    +0.000 A 
ATOM      4  C   UNL     1       0.263  10.602  19.652  0.00  0.00    +0.000 A 
ATOM      5  C   UNL     1       1.239  10.798  18.601  0.00  0.00    +0.000 A 
ATOM      6  O   UNL     1       2.123  11.633  18.730  0.00  0.00    +0.000 OA
ATOM      7  N   UNL     1       1.247   9.726  17.780  0.00  0.00    +0.000 N 
ATOM      8  C   UNL     1       1.680   8.592  18.503  0.00  0.00    +0.000 A 
ATOM      9  C   UNL     1       2.199   7.631  17.629  0.00  0.00    +0.000 A 
ATOM     10  C   UNL     1       2.782   6.527  18.184  0.00  0.00    +0.000 A 
ATOM     11  C   UNL     1       2.835   6.445  19.568  0.00  0.00    +0.000 A 
ATOM     12  C   UNL     1       2.225   7.418  20.492  0.00  0.00    +0.000 A 
ATOM     13  C   UNL     1       1.594   8.566  19.996  0.00  0.00    +0.000 A 
ATOM     14  C   UNL     1       0.713   9.772  20.648  0.00  0.00    +0.000 A 
ATOM     15  C   UNL     1       0.123  10.336  21.857  0.00  0.00    +0.000 A 
ATOM     16  H   UNL     1       0.311   9.503  17.458  0.00  0.00    +0.000 HD
ENDROOT
BRANCH   1  20
ATOM     17  C   UNL     1      -2.904  14.233  24.513  0.00  0.00    +0.000 A 
ATOM     18  C   UNL     1      -1.639  14.518  23.971  0.00  0.00    +0.000 A 
ATOM     19  C   UNL     1      -0.979  13.654  23.019  0.00  0.00    +0.000 A 
ATOM     20  C   UNL     1      -1.596  12.503  22.523  0.00  0.00    +0.000 A 
ATOM     21  C   UNL     1      -2.920  12.301  23.058  0.00  0.00    +0.000 A 
ATOM     22  C   UNL     1      -3.550  13.122  24.015  0.00  0.00    +0.000 A 
BRANCH  17  23
ATOM     23  N   UNL     1      -3.602  15.121  25.326  0.00  0.00    +0.000 N 
ATOM     24  H   UNL     1      -4.610  14.969  25.416  0.00  0.00    +0.000 HD
ATOM     25  H   UNL     1      -3.386  16.109  25.199  0.00  0.00    +0.000 HD
ENDBRANCH  17  23
ENDBRANCH   1  20
BRANCH   3  26
ATOM     26  N   UNL     1      -1.761   9.803  18.554  0.00  0.00    +0.000 N 
ATOM     27  H   UNL     1      -1.178   9.070  18.164  0.00  0.00    +0.000 HD
BRANCH  26  28
ATOM     28  C   UNL     1      -2.657  10.347  17.595  0.00  0.00    +0.000 A 
ATOM     29  C   UNL     1      -2.361  10.211  16.241  0.00  0.00    +0.000 A 
ATOM     30  C   UNL     1      -3.167  10.822  15.272  0.00  0.00    +0.000 A 
ATOM     31  C   UNL     1      -4.295  11.545  15.652  0.00  0.00    +0.000 A 
ATOM     32  C   UNL     1      -4.671  11.592  16.989  0.00  0.00    +0.000 A 
ATOM     33  C   UNL     1      -3.885  10.949  17.948  0.00  0.00    +0.000 A 
ENDBRANCH  26  28
ENDBRANCH   3  26
TORSDOF 4
ENDMDL
