MODEL 1
REMARK VINA RESULT:      -8.1      0.000      0.000
REMARK  Name = 
REMARK  3 active torsions:
REMARK  status: ('A' for Active; 'I' for Inactive)
REMARK    1  A    between atoms: C_9  and  O_10
REMARK    2  A    between atoms: O_10  and  C_11
REMARK    3  A    between atoms: C_11  and  C_13
REMARK                            x       y       z     vdW  Elec       q    Type
REMARK                         _______ _______ _______ _____ _____    ______ ____
ROOT
ATOM      1  N   UNL     1       7.613   4.846  12.108  0.00  0.00    +0.000 N 
ATOM      2  C   UNL     1       7.050   4.717  13.320  0.00  0.00    +0.000 A 
ATOM      3  N   UNL     1       7.640   5.124  14.426  0.00  0.00    +0.000 NA
ATOM      4  C   UNL     1       6.790   4.877  15.456  0.00  0.00    +0.000 A 
ATOM      5  C   UNL     1       5.588   4.290  15.171  0.00  0.00    +0.000 A 
ATOM      6  S   UNL     1       5.460   4.002  13.525  0.00  0.00    +0.000 S 
ATOM      7  C   UNL     1       4.706   4.102  16.368  0.00  0.00    +0.000 C 
ATOM      8  C   UNL     1       5.596   4.724  17.448  0.00  0.00    +0.000 A 
ATOM      9  C   UNL     1       5.384   4.926  18.807  0.00  0.00    +0.000 A 
ATOM     10  C   UNL     1       6.392   5.604  19.521  0.00  0.00    +0.000 A 
ATOM     11  C   UNL     1       7.608   5.992  18.919  0.00  0.00    +0.000 A 
ATOM     12  C   UNL     1       7.837   5.765  17.566  0.00  0.00    +0.000 A 
ATOM     13  C   UNL     1       6.826   5.152  16.859  0.00  0.00    +0.000 A 
ATOM     14  H   UNL     1       8.608   5.048  12.094  0.00  0.00    +0.000 HD
ATOM     15  H   UNL     1       7.281   4.282  11.338  0.00  0.00    +0.000 HD
ENDROOT
BRANCH   9  16
ATOM     16  O   UNL     1       4.169   4.536  19.426  0.00  0.00    +0.000 OA
BRANCH  16  17
ATOM     17  C   UNL     1       3.086   5.415  19.336  0.00  0.00    +0.000 C 
ATOM     18  O   UNL     1       3.176   6.637  19.231  0.00  0.00    +0.000 OA
BRANCH  17  19
ATOM     19  C   UNL     1       1.706   4.756  19.367  0.00  0.00    +0.000 C 
ATOM     20  C   UNL     1       1.443   3.973  18.071  0.00  0.00    +0.000 C 
ATOM     21  C   UNL     1       1.863   2.510  18.151  0.00  0.00    +0.000 C 
ATOM     22  C   UNL     1       1.181   1.821  19.323  0.00  0.00    +0.000 C 
ATOM     23  C   UNL     1       1.547   2.504  20.635  0.00  0.00    +0.000 C 
ATOM     24  C   UNL     1       1.264   4.006  20.626  0.00  0.00    +0.000 C 
ENDBRANCH  17  19
ENDBRANCH  16  17
ENDBRANCH   9  16
TORSDOF 3
ENDMDL
MODEL 2
REMARK VINA RESULT:      -8.1      0.969      1.923
REMARK  Name = 
REMARK  3 active torsions:
REMARK  status: ('A' for Active; 'I' for Inactive)
REMARK    1  A    between atoms: C_9  and  O_10
REMARK    2  A    between atoms: O_10  and  C_11
REMARK    3  A    between atoms: C_11  and  C_13
REMARK                            x       y       z     vdW  Elec       q    Type
REMARK                         _______ _______ _______ _____ _____    ______ ____
ROOT
ATOM      1  N   UNL     1       7.536   4.850  12.083  0.00  0.00    +0.000 N 
ATOM      2  C   UNL     1       7.013   4.664  13.305  0.00  0.00    +0.000 A 
ATOM      3  N   UNL     1       7.589   5.115  14.401  0.00  0.00    +0.000 NA
ATOM      4  C   UNL     1       6.786   4.786  15.447  0.00  0.00    +0.000 A 
ATOM      5  C   UNL     1       5.635   4.098  15.183  0.00  0.00    +0.000 A 
ATOM      6  S   UNL     1       5.497   3.810  13.537  0.00  0.00    +0.000 S 
ATOM      7  C   UNL     1       4.799   3.825  16.396  0.00  0.00    +0.000 C 
ATOM      8  C   UNL     1       5.654   4.516  17.463  0.00  0.00    +0.000 A 
ATOM      9  C   UNL     1       5.455   4.690  18.827  0.00  0.00    +0.000 A 
ATOM     10  C   UNL     1       6.414   5.449  19.526  0.00  0.00    +0.000 A 
ATOM     11  C   UNL     1       7.578   5.946  18.901  0.00  0.00    +0.000 A 
ATOM     12  C   UNL     1       7.797   5.749  17.542  0.00  0.00    +0.000 A 
ATOM     13  C   UNL     1       6.828   5.054  16.852  0.00  0.00    +0.000 A 
ATOM     14  H   UNL     1       8.509   5.138  12.049  0.00  0.00    +0.000 HD
ATOM     15  H   UNL     1       7.238   4.264  11.315  0.00  0.00    +0.000 HD
ENDROOT
BRANCH   9  16
ATOM     16  O   UNL     1       4.293   4.190  19.468  0.00  0.00    +0.000 OA
BRANCH  16  17
ATOM     17  C   UNL     1       4.289   2.843  19.842  0.00  0.00    +0.000 C 
ATOM     18  O   UNL     1       5.278   2.210  20.209  0.00  0.00    +0.000 OA
BRANCH  17  19
ATOM     19  C   UNL     1       2.925   2.152  19.781  0.00  0.00    +0.000 C 
ATOM     20  C   UNL     1       2.104   2.447  21.046  0.00  0.00    +0.000 C 
ATOM     21  C   UNL     1       1.206   3.671  20.914  0.00  0.00    +0.000 C 
ATOM     22  C   UNL     1       0.282   3.529  19.714  0.00  0.00    +0.000 C 
ATOM     23  C   UNL     1       1.087   3.376  18.430  0.00  0.00    +0.000 C 
ATOM     24  C   UNL     1       2.103   2.236  18.493  0.00  0.00    +0.000 C 
ENDBRANCH  17  19
ENDBRANCH  16  17
ENDBRANCH   9  16
TORSDOF 3
ENDMDL
MODEL 3
REMARK VINA RESULT:      -8.0      1.417      2.395
REMARK  Name = 
REMARK  3 active torsions:
REMARK  status: ('A' for Active; 'I' for Inactive)
REMARK    1  A    between atoms: C_9  and  O_10
REMARK    2  A    between atoms: O_10  and  C_11
REMARK    3  A    between atoms: C_11  and  C_13
REMARK                            x       y       z     vdW  Elec       q    Type
REMARK                         _______ _______ _______ _____ _____    ______ ____
ROOT
ATOM      1  N   UNL     1       8.213   5.782  12.653  0.00  0.00    +0.000 N 
ATOM      2  C   UNL     1       7.516   5.235  13.662  0.00  0.00    +0.000 A 
ATOM      3  N   UNL     1       7.695   5.582  14.921  0.00  0.00    +0.000 NA
ATOM      4  C   UNL     1       6.814   4.868  15.669  0.00  0.00    +0.000 A 
ATOM      5  C   UNL     1       5.987   3.990  15.025  0.00  0.00    +0.000 A 
ATOM      6  S   UNL     1       6.289   4.013  13.377  0.00  0.00    +0.000 S 
ATOM      7  C   UNL     1       5.024   3.287  15.932  0.00  0.00    +0.000 C 
ATOM      8  C   UNL     1       5.402   3.936  17.268  0.00  0.00    +0.000 A 
ATOM      9  C   UNL     1       4.877   3.780  18.545  0.00  0.00    +0.000 A 
ATOM     10  C   UNL     1       5.412   4.593  19.564  0.00  0.00    +0.000 A 
ATOM     11  C   UNL     1       6.493   5.470  19.334  0.00  0.00    +0.000 A 
ATOM     12  C   UNL     1       7.043   5.607  18.065  0.00  0.00    +0.000 A 
ATOM     13  C   UNL     1       6.479   4.852  17.060  0.00  0.00    +0.000 A 
ATOM     14  H   UNL     1       9.049   6.296  12.912  0.00  0.00    +0.000 HD
ATOM     15  H   UNL     1       8.263   5.307  11.763  0.00  0.00    +0.000 HD
ENDROOT
BRANCH   9  16
ATOM     16  O   UNL     1       3.794   2.898  18.790  0.00  0.00    +0.000 OA
BRANCH  16  17
ATOM     17  C   UNL     1       2.884   3.254  19.790  0.00  0.00    +0.000 C 
ATOM     18  O   UNL     1       2.913   2.843  20.949  0.00  0.00    +0.000 OA
BRANCH  17  19
ATOM     19  C   UNL     1       1.792   4.236  19.360  0.00  0.00    +0.000 C 
ATOM     20  C   UNL     1       1.559   5.303  20.441  0.00  0.00    +0.000 C 
ATOM     21  C   UNL     1       2.406   6.555  20.249  0.00  0.00    +0.000 C 
ATOM     22  C   UNL     1       2.174   7.151  18.869  0.00  0.00    +0.000 C 
ATOM     23  C   UNL     1       2.537   6.148  17.782  0.00  0.00    +0.000 C 
ATOM     24  C   UNL     1       1.820   4.809  17.940  0.00  0.00    +0.000 C 
ENDBRANCH  17  19
ENDBRANCH  16  17
ENDBRANCH   9  16
TORSDOF 3
ENDMDL
MODEL 4
REMARK VINA RESULT:      -7.7      1.387      1.987
REMARK  Name = 
REMARK  3 active torsions:
REMARK  status: ('A' for Active; 'I' for Inactive)
REMARK    1  A    between atoms: C_9  and  O_10
REMARK    2  A    between atoms: O_10  and  C_11
REMARK    3  A    between atoms: C_11  and  C_13
REMARK                            x       y       z     vdW  Elec       q    Type
REMARK                         _______ _______ _______ _____ _____    ______ ____
ROOT
ATOM      1  N   UNL     1       8.450   5.877  12.585  0.00  0.00    +0.000 N 
ATOM      2  C   UNL     1       7.671   5.283  13.504  0.00  0.00    +0.000 A 
ATOM      3  N   UNL     1       7.732   5.581  14.787  0.00  0.00    +0.000 NA
ATOM      4  C   UNL     1       6.796   4.829  15.423  0.00  0.00    +0.000 A 
ATOM      5  C   UNL     1       6.042   3.971  14.673  0.00  0.00    +0.000 A 
ATOM      6  S   UNL     1       6.490   4.063  13.061  0.00  0.00    +0.000 S 
ATOM      7  C   UNL     1       5.009   3.223  15.460  0.00  0.00    +0.000 C 
ATOM      8  C   UNL     1       5.257   3.820  16.849  0.00  0.00    +0.000 A 
ATOM      9  C   UNL     1       4.622   3.608  18.066  0.00  0.00    +0.000 A 
ATOM     10  C   UNL     1       5.052   4.383  19.161  0.00  0.00    +0.000 A 
ATOM     11  C   UNL     1       6.139   5.279  19.065  0.00  0.00    +0.000 A 
ATOM     12  C   UNL     1       6.798   5.472  17.857  0.00  0.00    +0.000 A 
ATOM     13  C   UNL     1       6.338   4.754  16.776  0.00  0.00    +0.000 A 
ATOM     14  H   UNL     1       9.252   6.388  12.939  0.00  0.00    +0.000 HD
ATOM     15  H   UNL     1       8.585   5.440  11.684  0.00  0.00    +0.000 HD
ENDROOT
BRANCH   9  16
ATOM     16  O   UNL     1       3.532   2.707  18.177  0.00  0.00    +0.000 OA
BRANCH  16  17
ATOM     17  C   UNL     1       2.249   3.211  17.942  0.00  0.00    +0.000 C 
ATOM     18  O   UNL     1       1.831   3.593  16.850  0.00  0.00    +0.000 OA
BRANCH  17  19
ATOM     19  C   UNL     1       1.333   3.263  19.166  0.00  0.00    +0.000 C 
ATOM     20  C   UNL     1       1.639   2.105  20.130  0.00  0.00    +0.000 C 
ATOM     21  C   UNL     1       2.666   2.462  21.198  0.00  0.00    +0.000 C 
ATOM     22  C   UNL     1       2.219   3.687  21.981  0.00  0.00    +0.000 C 
ATOM     23  C   UNL     1       2.047   4.884  21.054  0.00  0.00    +0.000 C 
ATOM     24  C   UNL     1       1.114   4.600  19.878  0.00  0.00    +0.000 C 
ENDBRANCH  17  19
ENDBRANCH  16  17
ENDBRANCH   9  16
TORSDOF 3
ENDMDL
MODEL 5
REMARK VINA RESULT:      -7.7      1.921      2.916
REMARK  Name = 
REMARK  3 active torsions:
REMARK  status: ('A' for Active; 'I' for Inactive)
REMARK    1  A    between atoms: C_9  and  O_10
REMARK    2  A    between atoms: O_10  and  C_11
REMARK    3  A    between atoms: C_11  and  C_13
REMARK                            x       y       z     vdW  Elec       q    Type
REMARK                         _______ _______ _______ _____ _____    ______ ____
ROOT
ATOM      1  N   UNL     1       7.776   5.506  14.314  0.00  0.00    +0.000 N 
ATOM      2  C   UNL     1       7.001   5.478  15.410  0.00  0.00    +0.000 A 
ATOM      3  N   UNL     1       6.073   6.383  15.648  0.00  0.00    +0.000 NA
ATOM      4  C   UNL     1       5.459   6.041  16.811  0.00  0.00    +0.000 A 
ATOM      5  C   UNL     1       5.896   4.921  17.463  0.00  0.00    +0.000 A 
ATOM      6  S   UNL     1       7.156   4.212  16.616  0.00  0.00    +0.000 S 
ATOM      7  C   UNL     1       5.126   4.605  18.709  0.00  0.00    +0.000 C 
ATOM      8  C   UNL     1       4.099   5.742  18.676  0.00  0.00    +0.000 A 
ATOM      9  C   UNL     1       3.037   6.043  19.519  0.00  0.00    +0.000 A 
ATOM     10  C   UNL     1       2.224   7.138  19.164  0.00  0.00    +0.000 A 
ATOM     11  C   UNL     1       2.513   7.958  18.053  0.00  0.00    +0.000 A 
ATOM     12  C   UNL     1       3.593   7.679  17.223  0.00  0.00    +0.000 A 
ATOM     13  C   UNL     1       4.351   6.574  17.541  0.00  0.00    +0.000 A 
ATOM     14  H   UNL     1       7.789   6.379  13.795  0.00  0.00    +0.000 HD
ATOM     15  H   UNL     1       8.644   4.989  14.300  0.00  0.00    +0.000 HD
ENDROOT
BRANCH   9  16
ATOM     16  O   UNL     1       2.739   5.231  20.643  0.00  0.00    +0.000 OA
BRANCH  16  17
ATOM     17  C   UNL     1       1.562   4.478  20.603  0.00  0.00    +0.000 C 
ATOM     18  O   UNL     1       0.425   4.946  20.592  0.00  0.00    +0.000 OA
BRANCH  17  19
ATOM     19  C   UNL     1       1.759   2.961  20.565  0.00  0.00    +0.000 C 
ATOM     20  C   UNL     1       1.219   2.371  19.252  0.00  0.00    +0.000 C 
ATOM     21  C   UNL     1       2.270   2.280  18.152  0.00  0.00    +0.000 C 
ATOM     22  C   UNL     1       3.473   1.480  18.627  0.00  0.00    +0.000 C 
ATOM     23  C   UNL     1       4.105   2.133  19.850  0.00  0.00    +0.000 C 
ATOM     24  C   UNL     1       3.108   2.372  20.983  0.00  0.00    +0.000 C 
ENDBRANCH  17  19
ENDBRANCH  16  17
ENDBRANCH   9  16
TORSDOF 3
ENDMDL
MODEL 6
REMARK VINA RESULT:      -7.5      4.694      6.307
REMARK  Name = 
REMARK  3 active torsions:
REMARK  status: ('A' for Active; 'I' for Inactive)
REMARK    1  A    between atoms: C_9  and  O_10
REMARK    2  A    between atoms: O_10  and  C_11
REMARK    3  A    between atoms: C_11  and  C_13
REMARK                            x       y       z     vdW  Elec       q    Type
REMARK                         _______ _______ _______ _____ _____    ______ ____
ROOT
ATOM      1  N   UNL     1      -0.806  11.574  20.070  0.00  0.00    +0.000 N 
ATOM      2  C   UNL     1      -0.095  10.435  20.073  0.00  0.00    +0.000 A 
ATOM      3  N   UNL     1       0.640  10.053  19.048  0.00  0.00    +0.000 NA
ATOM      4  C   UNL     1       1.246   8.887  19.395  0.00  0.00    +0.000 A 
ATOM      5  C   UNL     1       0.988   8.372  20.635  0.00  0.00    +0.000 A 
ATOM      6  S   UNL     1      -0.079   9.364  21.464  0.00  0.00    +0.000 S 
ATOM      7  C   UNL     1       1.738   7.111  20.937  0.00  0.00    +0.000 C 
ATOM      8  C   UNL     1       2.542   6.969  19.640  0.00  0.00    +0.000 A 
ATOM      9  C   UNL     1       3.488   6.031  19.245  0.00  0.00    +0.000 A 
ATOM     10  C   UNL     1       4.105   6.228  17.993  0.00  0.00    +0.000 A 
ATOM     11  C   UNL     1       3.729   7.277  17.128  0.00  0.00    +0.000 A 
ATOM     12  C   UNL     1       2.761   8.201  17.506  0.00  0.00    +0.000 A 
ATOM     13  C   UNL     1       2.200   8.037  18.753  0.00  0.00    +0.000 A 
ATOM     14  H   UNL     1      -0.950  12.011  19.165  0.00  0.00    +0.000 HD
ATOM     15  H   UNL     1      -1.564  11.695  20.727  0.00  0.00    +0.000 HD
ENDROOT
BRANCH   9  16
ATOM     16  O   UNL     1       3.871   4.969  20.103  0.00  0.00    +0.000 OA
BRANCH  16  17
ATOM     17  C   UNL     1       4.427   3.830  19.513  0.00  0.00    +0.000 C 
ATOM     18  O   UNL     1       5.619   3.683  19.249  0.00  0.00    +0.000 OA
BRANCH  17  19
ATOM     19  C   UNL     1       3.436   2.707  19.198  0.00  0.00    +0.000 C 
ATOM     20  C   UNL     1       2.544   2.407  20.413  0.00  0.00    +0.000 C 
ATOM     21  C   UNL     1       1.245   3.205  20.424  0.00  0.00    +0.000 C 
ATOM     22  C   UNL     1       0.467   2.978  19.137  0.00  0.00    +0.000 C 
ATOM     23  C   UNL     1       1.290   3.405  17.928  0.00  0.00    +0.000 C 
ATOM     24  C   UNL     1       2.665   2.741  17.876  0.00  0.00    +0.000 C 
ENDBRANCH  17  19
ENDBRANCH  16  17
ENDBRANCH   9  16
TORSDOF 3
ENDMDL
MODEL 7
REMARK VINA RESULT:      -7.5      5.710      7.483
REMARK  Name = 
REMARK  3 active torsions:
REMARK  status: ('A' for Active; 'I' for Inactive)
REMARK    1  A    between atoms: C_9  and  O_10
REMARK    2  A    between atoms: O_10  and  C_11
REMARK    3  A    between atoms: C_11  and  C_13
REMARK                            x       y       z     vdW  Elec       q    Type
REMARK                         _______ _______ _______ _____ _____    ______ ____
ROOT
ATOM      1  N   UNL     1      -1.394  12.019  22.789  0.00  0.00    +0.000 N 
ATOM      2  C   UNL     1      -0.702  11.000  22.256  0.00  0.00    +0.000 A 
ATOM      3  N   UNL     1      -0.328  10.978  20.993  0.00  0.00    +0.000 NA
ATOM      4  C   UNL     1       0.376   9.831  20.797  0.00  0.00    +0.000 A 
ATOM      5  C   UNL     1       0.537   8.986  21.859  0.00  0.00    +0.000 A 
ATOM      6  S   UNL     1      -0.223   9.610  23.216  0.00  0.00    +0.000 S 
ATOM      7  C   UNL     1       1.364   7.775  21.551  0.00  0.00    +0.000 C 
ATOM      8  C   UNL     1       1.712   8.063  20.087  0.00  0.00    +0.000 A 
ATOM      9  C   UNL     1       2.496   7.365  19.176  0.00  0.00    +0.000 A 
ATOM     10  C   UNL     1       2.676   7.946  17.904  0.00  0.00    +0.000 A 
ATOM     11  C   UNL     1       2.026   9.139  17.526  0.00  0.00    +0.000 A 
ATOM     12  C   UNL     1       1.215   9.825  18.423  0.00  0.00    +0.000 A 
ATOM     13  C   UNL     1       1.087   9.283  19.683  0.00  0.00    +0.000 A 
ATOM     14  H   UNL     1      -1.828  12.660  22.132  0.00  0.00    +0.000 HD
ATOM     15  H   UNL     1      -1.902  11.883  23.652  0.00  0.00    +0.000 HD
ENDROOT
BRANCH   9  16
ATOM     16  O   UNL     1       3.150   6.161  19.542  0.00  0.00    +0.000 OA
BRANCH  16  17
ATOM     17  C   UNL     1       3.501   5.279  18.516  0.00  0.00    +0.000 C 
ATOM     18  O   UNL     1       4.336   5.509  17.642  0.00  0.00    +0.000 OA
BRANCH  17  19
ATOM     19  C   UNL     1       2.769   3.935  18.531  0.00  0.00    +0.000 C 
ATOM     20  C   UNL     1       3.509   2.918  19.414  0.00  0.00    +0.000 C 
ATOM     21  C   UNL     1       3.029   2.908  20.860  0.00  0.00    +0.000 C 
ATOM     22  C   UNL     1       1.530   2.660  20.924  0.00  0.00    +0.000 C 
ATOM     23  C   UNL     1       0.773   3.744  20.168  0.00  0.00    +0.000 C 
ATOM     24  C   UNL     1       1.251   3.915  18.727  0.00  0.00    +0.000 C 
ENDBRANCH  17  19
ENDBRANCH  16  17
ENDBRANCH   9  16
TORSDOF 3
ENDMDL
MODEL 8
REMARK VINA RESULT:      -7.4      1.225      2.224
REMARK  Name = 
REMARK  3 active torsions:
REMARK  status: ('A' for Active; 'I' for Inactive)
REMARK    1  A    between atoms: C_9  and  O_10
REMARK    2  A    between atoms: O_10  and  C_11
REMARK    3  A    between atoms: C_11  and  C_13
REMARK                            x       y       z     vdW  Elec       q    Type
REMARK                         _______ _______ _______ _____ _____    ______ ____
ROOT
ATOM      1  N   UNL     1       7.988   5.449  12.298  0.00  0.00    +0.000 N 
ATOM      2  C   UNL     1       7.393   5.023  13.424  0.00  0.00    +0.000 A 
ATOM      3  N   UNL     1       7.704   5.494  14.615  0.00  0.00    +0.000 NA
ATOM      4  C   UNL     1       6.897   4.878  15.519  0.00  0.00    +0.000 A 
ATOM      5  C   UNL     1       6.001   3.955  15.057  0.00  0.00    +0.000 A 
ATOM      6  S   UNL     1       6.132   3.802  13.393  0.00  0.00    +0.000 S 
ATOM      7  C   UNL     1       5.129   3.368  16.125  0.00  0.00    +0.000 C 
ATOM      8  C   UNL     1       5.647   4.144  17.340  0.00  0.00    +0.000 A 
ATOM      9  C   UNL     1       5.255   4.131  18.673  0.00  0.00    +0.000 A 
ATOM     10  C   UNL     1       5.899   5.033  19.542  0.00  0.00    +0.000 A 
ATOM     11  C   UNL     1       6.959   5.860  19.115  0.00  0.00    +0.000 A 
ATOM     12  C   UNL     1       7.377   5.855  17.788  0.00  0.00    +0.000 A 
ATOM     13  C   UNL     1       6.706   5.012  16.930  0.00  0.00    +0.000 A 
ATOM     14  H   UNL     1       8.851   5.971  12.416  0.00  0.00    +0.000 HD
ATOM     15  H   UNL     1       7.942   4.884  11.461  0.00  0.00    +0.000 HD
ENDROOT
BRANCH   9  16
ATOM     16  O   UNL     1       4.195   3.300  19.117  0.00  0.00    +0.000 OA
BRANCH  16  17
ATOM     17  C   UNL     1       3.104   3.129  18.259  0.00  0.00    +0.000 C 
ATOM     18  O   UNL     1       2.986   2.217  17.442  0.00  0.00    +0.000 OA
BRANCH  17  19
ATOM     19  C   UNL     1       1.998   4.177  18.392  0.00  0.00    +0.000 C 
ATOM     20  C   UNL     1       1.354   4.121  19.786  0.00  0.00    +0.000 C 
ATOM     21  C   UNL     1       2.010   5.056  20.795  0.00  0.00    +0.000 C 
ATOM     22  C   UNL     1       2.010   6.486  20.278  0.00  0.00    +0.000 C 
ATOM     23  C   UNL     1       2.769   6.582  18.961  0.00  0.00    +0.000 C 
ATOM     24  C   UNL     1       2.259   5.605  17.903  0.00  0.00    +0.000 C 
ENDBRANCH  17  19
ENDBRANCH  16  17
ENDBRANCH   9  16
TORSDOF 3
ENDMDL
MODEL 9
REMARK VINA RESULT:      -7.4      5.625      7.767
REMARK  Name = 
REMARK  3 active torsions:
REMARK  status: ('A' for Active; 'I' for Inactive)
REMARK    1  A    between atoms: C_9  and  O_10
REMARK    2  A    between atoms: O_10  and  C_11
REMARK    3  A    between atoms: C_11  and  C_13
REMARK                            x       y       z     vdW  Elec       q    Type
REMARK                         _______ _______ _______ _____ _____    ______ ____
ROOT
ATOM      1  N   UNL     1      -1.245  12.216  22.467  0.00  0.00    +0.000 N 
ATOM      2  C   UNL     1      -0.610  11.128  22.003  0.00  0.00    +0.000 A 
ATOM      3  N   UNL     1      -0.133  11.051  20.777  0.00  0.00    +0.000 NA
ATOM      4  C   UNL     1       0.472   9.840  20.651  0.00  0.00    +0.000 A 
ATOM      5  C   UNL     1       0.459   9.000  21.729  0.00  0.00    +0.000 A 
ATOM      6  S   UNL     1      -0.352   9.714  23.011  0.00  0.00    +0.000 S 
ATOM      7  C   UNL     1       1.190   7.711  21.504  0.00  0.00    +0.000 C 
ATOM      8  C   UNL     1       1.688   7.941  20.073  0.00  0.00    +0.000 A 
ATOM      9  C   UNL     1       2.477   7.159  19.239  0.00  0.00    +0.000 A 
ATOM     10  C   UNL     1       2.821   7.700  17.984  0.00  0.00    +0.000 A 
ATOM     11  C   UNL     1       2.323   8.944  17.542  0.00  0.00    +0.000 A 
ATOM     12  C   UNL     1       1.508   9.717  18.360  0.00  0.00    +0.000 A 
ATOM     13  C   UNL     1       1.220   9.210  19.608  0.00  0.00    +0.000 A 
ATOM     14  H   UNL     1      -1.557  12.885  21.770  0.00  0.00    +0.000 HD
ATOM     15  H   UNL     1      -1.836  12.142  23.283  0.00  0.00    +0.000 HD
ENDROOT
BRANCH   9  16
ATOM     16  O   UNL     1       2.979   5.904  19.670  0.00  0.00    +0.000 OA
BRANCH  16  17
ATOM     17  C   UNL     1       3.017   4.867  18.733  0.00  0.00    +0.000 C 
ATOM     18  O   UNL     1       2.030   4.345  18.217  0.00  0.00    +0.000 OA
BRANCH  17  19
ATOM     19  C   UNL     1       4.418   4.386  18.348  0.00  0.00    +0.000 C 
ATOM     20  C   UNL     1       4.511   4.122  16.837  0.00  0.00    +0.000 C 
ATOM     21  C   UNL     1       4.982   5.331  16.038  0.00  0.00    +0.000 C 
ATOM     22  C   UNL     1       6.320   5.829  16.563  0.00  0.00    +0.000 C 
ATOM     23  C   UNL     1       6.208   6.229  18.028  0.00  0.00    +0.000 C 
ATOM     24  C   UNL     1       5.640   5.118  18.910  0.00  0.00    +0.000 C 
ENDBRANCH  17  19
ENDBRANCH  16  17
ENDBRANCH   9  16
TORSDOF 3
ENDMDL
