MODEL 1
REMARK VINA RESULT:      -7.8      0.000      0.000
REMARK  Name = 
REMARK  6 active torsions:
REMARK  status: ('A' for Active; 'I' for Inactive)
REMARK    1  A    between atoms: C_1  and  O_2
REMARK    2  A    between atoms: O_2  and  C_3
REMARK    3  A    between atoms: C_6  and  C_7
REMARK    4  A    between atoms: C_14  and  C_15
REMARK    5  A    between atoms: C_20  and  C_22
REMARK    6  A    between atoms: C_22  and  C_23
REMARK                            x       y       z     vdW  Elec       q    Type
REMARK                         _______ _______ _______ _____ _____    ______ ____
ROOT
ATOM      1  C   UNL     1       1.493  13.134  20.169  0.00  0.00    +0.000 A 
ATOM      2  N   UNL     1       1.344  12.009  20.963  0.00  0.00    +0.000 NA
ATOM      3  C   UNL     1       0.253  11.471  20.490  0.00  0.00    +0.000 A 
ATOM      4  N   UNL     1      -0.331  12.293  19.564  0.00  0.00    +0.000 N 
ATOM      5  N   UNL     1       0.432  13.392  19.373  0.00  0.00    +0.000 NA
ATOM      6  C   UNL     1      -1.194  11.730  18.595  0.00  0.00    +0.000 A 
ATOM      7  C   UNL     1      -2.514  12.162  18.509  0.00  0.00    +0.000 A 
ATOM      8  C   UNL     1      -3.455  11.275  17.958  0.00  0.00    +0.000 A 
ATOM      9  C   UNL     1      -4.913  11.420  18.277  0.00  0.00    +0.000 C 
ATOM     10  C   UNL     1      -3.020  10.136  17.246  0.00  0.00    +0.000 A 
ATOM     11  C   UNL     1      -1.692   9.718  17.324  0.00  0.00    +0.000 A 
ATOM     12  C   UNL     1      -0.846  10.429  18.165  0.00  0.00    +0.000 A 
ATOM     13  N   UNL     1       0.030   9.672  19.030  0.00  0.00    +0.000 N 
ATOM     14  C   UNL     1       1.283   9.280  18.553  0.00  0.00    +0.000 C 
ATOM     15  O   UNL     1       1.644   9.478  17.389  0.00  0.00    +0.000 OA
ATOM     16  C   UNL     1      -0.179  10.056  20.446  0.00  0.00    +0.000 C 
ENDROOT
BRANCH   1  20
ATOM     17  C   UNL     1       5.126  15.361  19.820  0.00  0.00    +0.000 A 
ATOM     18  C   UNL     1       4.460  14.923  18.677  0.00  0.00    +0.000 A 
ATOM     19  C   UNL     1       3.308  14.134  18.793  0.00  0.00    +0.000 A 
ATOM     20  C   UNL     1       2.818  13.757  20.057  0.00  0.00    +0.000 A 
ATOM     21  C   UNL     1       3.541  14.139  21.193  0.00  0.00    +0.000 A 
ATOM     22  C   UNL     1       4.695  14.930  21.075  0.00  0.00    +0.000 A 
BRANCH  17  24
ATOM     23  C   UNL     1       5.895  17.580  19.919  0.00  0.00    +0.000 C 
ATOM     24  O   UNL     1       6.175  16.215  19.611  0.00  0.00    +0.000 OA
ENDBRANCH  17  24
ENDBRANCH   1  20
BRANCH  14  25
ATOM     25  C   UNL     1       2.215   8.563  19.532  0.00  0.00    +0.000 C 
BRANCH  25  26
ATOM     26  C   UNL     1       2.147   7.062  19.425  0.00  0.00    +0.000 A 
ATOM     27  C   UNL     1       1.742   6.317  20.536  0.00  0.00    +0.000 A 
ATOM     28  C   UNL     1       1.576   4.937  20.442  0.00  0.00    +0.000 A 
ATOM     29  C   UNL     1       1.815   4.286  19.232  0.00  0.00    +0.000 A 
ATOM     30  C   UNL     1       2.250   5.013  18.125  0.00  0.00    +0.000 A 
ATOM     31  C   UNL     1       2.422   6.398  18.222  0.00  0.00    +0.000 A 
ENDBRANCH  25  26
ENDBRANCH  14  25
TORSDOF 4
ENDMDL
MODEL 2
REMARK VINA RESULT:      -7.7      2.737      7.557
REMARK  Name = 
REMARK  6 active torsions:
REMARK  status: ('A' for Active; 'I' for Inactive)
REMARK    1  A    between atoms: C_1  and  O_2
REMARK    2  A    between atoms: O_2  and  C_3
REMARK    3  A    between atoms: C_6  and  C_7
REMARK    4  A    between atoms: C_14  and  C_15
REMARK    5  A    between atoms: C_20  and  C_22
REMARK    6  A    between atoms: C_22  and  C_23
REMARK                            x       y       z     vdW  Elec       q    Type
REMARK                         _______ _______ _______ _____ _____    ______ ____
ROOT
ATOM      1  C   UNL     1       0.437   9.410  19.788  0.00  0.00    +0.000 A 
ATOM      2  N   UNL     1       0.030  10.377  18.885  0.00  0.00    +0.000 NA
ATOM      3  C   UNL     1      -0.577  11.244  19.652  0.00  0.00    +0.000 A 
ATOM      4  N   UNL     1      -0.681  10.768  20.932  0.00  0.00    +0.000 N 
ATOM      5  N   UNL     1      -0.071   9.567  21.032  0.00  0.00    +0.000 NA
ATOM      6  C   UNL     1      -0.831  11.689  21.994  0.00  0.00    +0.000 A 
ATOM      7  C   UNL     1      -1.951  11.618  22.819  0.00  0.00    +0.000 A 
ATOM      8  C   UNL     1      -2.347  12.793  23.482  0.00  0.00    +0.000 A 
ATOM      9  C   UNL     1      -3.760  12.958  23.955  0.00  0.00    +0.000 C 
ATOM     10  C   UNL     1      -1.469  13.896  23.549  0.00  0.00    +0.000 A 
ATOM     11  C   UNL     1      -0.341  13.954  22.731  0.00  0.00    +0.000 A 
ATOM     12  C   UNL     1      -0.155  12.919  21.824  0.00  0.00    +0.000 A 
ATOM     13  N   UNL     1       0.220  13.271  20.473  0.00  0.00    +0.000 N 
ATOM     14  C   UNL     1       1.573  13.419  20.161  0.00  0.00    +0.000 C 
ATOM     15  O   UNL     1       2.464  13.348  21.012  0.00  0.00    +0.000 OA
ATOM     16  C   UNL     1      -0.746  12.706  19.502  0.00  0.00    +0.000 C 
ENDROOT
BRANCH   1  20
ATOM     17  C   UNL     1       3.310   6.504  18.532  0.00  0.00    +0.000 A 
ATOM     18  C   UNL     1       2.709   6.399  19.786  0.00  0.00    +0.000 A 
ATOM     19  C   UNL     1       1.820   7.389  20.224  0.00  0.00    +0.000 A 
ATOM     20  C   UNL     1       1.536   8.509  19.421  0.00  0.00    +0.000 A 
ATOM     21  C   UNL     1       2.207   8.640  18.200  0.00  0.00    +0.000 A 
ATOM     22  C   UNL     1       3.098   7.647  17.761  0.00  0.00    +0.000 A 
BRANCH  17  24
ATOM     23  C   UNL     1       4.559   4.637  19.223  0.00  0.00    +0.000 C 
ATOM     24  O   UNL     1       4.077   5.438  18.145  0.00  0.00    +0.000 OA
ENDBRANCH  17  24
ENDBRANCH   1  20
BRANCH  14  25
ATOM     25  C   UNL     1       1.930  13.700  18.700  0.00  0.00    +0.000 C 
BRANCH  25  26
ATOM     26  C   UNL     1       1.875  15.163  18.346  0.00  0.00    +0.000 A 
ATOM     27  C   UNL     1       2.944  15.736  17.652  0.00  0.00    +0.000 A 
ATOM     28  C   UNL     1       2.884  17.061  17.226  0.00  0.00    +0.000 A 
ATOM     29  C   UNL     1       1.750  17.829  17.491  0.00  0.00    +0.000 A 
ATOM     30  C   UNL     1       0.690  17.279  18.210  0.00  0.00    +0.000 A 
ATOM     31  C   UNL     1       0.754  15.950  18.643  0.00  0.00    +0.000 A 
ENDBRANCH  25  26
ENDBRANCH  14  25
TORSDOF 4
ENDMDL
MODEL 3
REMARK VINA RESULT:      -7.7      0.629      1.122
REMARK  Name = 
REMARK  6 active torsions:
REMARK  status: ('A' for Active; 'I' for Inactive)
REMARK    1  A    between atoms: C_1  and  O_2
REMARK    2  A    between atoms: O_2  and  C_3
REMARK    3  A    between atoms: C_6  and  C_7
REMARK    4  A    between atoms: C_14  and  C_15
REMARK    5  A    between atoms: C_20  and  C_22
REMARK    6  A    between atoms: C_22  and  C_23
REMARK                            x       y       z     vdW  Elec       q    Type
REMARK                         _______ _______ _______ _____ _____    ______ ____
ROOT
ATOM      1  C   UNL     1       1.300  13.315  19.941  0.00  0.00    +0.000 A 
ATOM      2  N   UNL     1       1.246  12.220  20.786  0.00  0.00    +0.000 NA
ATOM      3  C   UNL     1       0.154  11.617  20.400  0.00  0.00    +0.000 A 
ATOM      4  N   UNL     1      -0.517  12.375  19.478  0.00  0.00    +0.000 N 
ATOM      5  N   UNL     1       0.184  13.495  19.199  0.00  0.00    +0.000 NA
ATOM      6  C   UNL     1      -1.409  11.736  18.585  0.00  0.00    +0.000 A 
ATOM      7  C   UNL     1      -2.750  12.109  18.560  0.00  0.00    +0.000 A 
ATOM      8  C   UNL     1      -3.681  11.161  18.101  0.00  0.00    +0.000 A 
ATOM      9  C   UNL     1      -5.123  11.258  18.500  0.00  0.00    +0.000 C 
ATOM     10  C   UNL     1      -3.238  10.013  17.410  0.00  0.00    +0.000 A 
ATOM     11  C   UNL     1      -1.890   9.654  17.425  0.00  0.00    +0.000 A 
ATOM     12  C   UNL     1      -1.029  10.434  18.187  0.00  0.00    +0.000 A 
ATOM     13  N   UNL     1      -0.073   9.751  19.027  0.00  0.00    +0.000 N 
ATOM     14  C   UNL     1       1.167   9.392  18.493  0.00  0.00    +0.000 C 
ATOM     15  O   UNL     1       1.452   9.556  17.303  0.00  0.00    +0.000 OA
ATOM     16  C   UNL     1      -0.217  10.185  20.437  0.00  0.00    +0.000 C 
ENDROOT
BRANCH   1  20
ATOM     17  C   UNL     1       5.249  14.854  19.385  0.00  0.00    +0.000 A 
ATOM     18  C   UNL     1       4.691  14.802  20.661  0.00  0.00    +0.000 A 
ATOM     19  C   UNL     1       3.372  14.363  20.833  0.00  0.00    +0.000 A 
ATOM     20  C   UNL     1       2.587  13.988  19.727  0.00  0.00    +0.000 A 
ATOM     21  C   UNL     1       3.135  14.120  18.446  0.00  0.00    +0.000 A 
ATOM     22  C   UNL     1       4.458  14.560  18.274  0.00  0.00    +0.000 A 
BRANCH  17  24
ATOM     23  C   UNL     1       7.172  15.009  18.042  0.00  0.00    +0.000 C 
ATOM     24  O   UNL     1       6.575  15.190  19.325  0.00  0.00    +0.000 OA
ENDBRANCH  17  24
ENDBRANCH   1  20
BRANCH  14  25
ATOM     25  C   UNL     1       2.184   8.756  19.443  0.00  0.00    +0.000 C 
BRANCH  25  26
ATOM     26  C   UNL     1       2.167   7.250  19.407  0.00  0.00    +0.000 A 
ATOM     27  C   UNL     1       1.714   6.547  20.527  0.00  0.00    +0.000 A 
ATOM     28  C   UNL     1       1.596   5.160  20.493  0.00  0.00    +0.000 A 
ATOM     29  C   UNL     1       1.932   4.459  19.335  0.00  0.00    +0.000 A 
ATOM     30  C   UNL     1       2.415   5.144  18.222  0.00  0.00    +0.000 A 
ATOM     31  C   UNL     1       2.540   6.537  18.259  0.00  0.00    +0.000 A 
ENDBRANCH  25  26
ENDBRANCH  14  25
TORSDOF 4
ENDMDL
MODEL 4
REMARK VINA RESULT:      -7.6      2.621      7.301
REMARK  Name = 
REMARK  6 active torsions:
REMARK  status: ('A' for Active; 'I' for Inactive)
REMARK    1  A    between atoms: C_1  and  O_2
REMARK    2  A    between atoms: O_2  and  C_3
REMARK    3  A    between atoms: C_6  and  C_7
REMARK    4  A    between atoms: C_14  and  C_15
REMARK    5  A    between atoms: C_20  and  C_22
REMARK    6  A    between atoms: C_22  and  C_23
REMARK                            x       y       z     vdW  Elec       q    Type
REMARK                         _______ _______ _______ _____ _____    ______ ____
ROOT
ATOM      1  C   UNL     1       0.026   9.871  19.918  0.00  0.00    +0.000 A 
ATOM      2  N   UNL     1      -0.386  10.879  19.061  0.00  0.00    +0.000 NA
ATOM      3  C   UNL     1      -1.000  11.703  19.868  0.00  0.00    +0.000 A 
ATOM      4  N   UNL     1      -1.104  11.165  21.123  0.00  0.00    +0.000 N 
ATOM      5  N   UNL     1      -0.486   9.965  21.166  0.00  0.00    +0.000 NA
ATOM      6  C   UNL     1      -1.263  12.033  22.228  0.00  0.00    +0.000 A 
ATOM      7  C   UNL     1      -2.384  11.915  23.045  0.00  0.00    +0.000 A 
ATOM      8  C   UNL     1      -2.789  13.054  23.763  0.00  0.00    +0.000 A 
ATOM      9  C   UNL     1      -4.205  13.187  24.240  0.00  0.00    +0.000 C 
ATOM     10  C   UNL     1      -1.920  14.159  23.885  0.00  0.00    +0.000 A 
ATOM     11  C   UNL     1      -0.790  14.263  23.074  0.00  0.00    +0.000 A 
ATOM     12  C   UNL     1      -0.595  13.274  22.118  0.00  0.00    +0.000 A 
ATOM     13  N   UNL     1      -0.220  13.694  20.787  0.00  0.00    +0.000 N 
ATOM     14  C   UNL     1       1.133  13.866  20.486  0.00  0.00    +0.000 C 
ATOM     15  O   UNL     1       2.023  13.760  21.335  0.00  0.00    +0.000 OA
ATOM     16  C   UNL     1      -1.179  13.170  19.787  0.00  0.00    +0.000 C 
ENDROOT
BRANCH   1  20
ATOM     17  C   UNL     1       2.919   7.022  18.582  0.00  0.00    +0.000 A 
ATOM     18  C   UNL     1       2.415   6.954  19.880  0.00  0.00    +0.000 A 
ATOM     19  C   UNL     1       1.520   7.928  20.339  0.00  0.00    +0.000 A 
ATOM     20  C   UNL     1       1.132   8.997  19.510  0.00  0.00    +0.000 A 
ATOM     21  C   UNL     1       1.706   9.095  18.238  0.00  0.00    +0.000 A 
ATOM     22  C   UNL     1       2.604   8.117  17.778  0.00  0.00    +0.000 A 
BRANCH  17  24
ATOM     23  C   UNL     1       4.086   5.093  19.245  0.00  0.00    +0.000 C 
ATOM     24  O   UNL     1       3.699   5.969  18.187  0.00  0.00    +0.000 OA
ENDBRANCH  17  24
ENDBRANCH   1  20
BRANCH  14  25
ATOM     25  C   UNL     1       1.492  14.219  19.041  0.00  0.00    +0.000 C 
BRANCH  25  26
ATOM     26  C   UNL     1       2.827  14.904  18.911  0.00  0.00    +0.000 A 
ATOM     27  C   UNL     1       3.854  14.266  18.211  0.00  0.00    +0.000 A 
ATOM     28  C   UNL     1       5.070  14.911  17.991  0.00  0.00    +0.000 A 
ATOM     29  C   UNL     1       5.269  16.206  18.472  0.00  0.00    +0.000 A 
ATOM     30  C   UNL     1       4.264  16.841  19.198  0.00  0.00    +0.000 A 
ATOM     31  C   UNL     1       3.047  16.190  19.425  0.00  0.00    +0.000 A 
ENDBRANCH  25  26
ENDBRANCH  14  25
TORSDOF 4
ENDMDL
MODEL 5
REMARK VINA RESULT:      -7.6      0.602      1.055
REMARK  Name = 
REMARK  6 active torsions:
REMARK  status: ('A' for Active; 'I' for Inactive)
REMARK    1  A    between atoms: C_1  and  O_2
REMARK    2  A    between atoms: O_2  and  C_3
REMARK    3  A    between atoms: C_6  and  C_7
REMARK    4  A    between atoms: C_14  and  C_15
REMARK    5  A    between atoms: C_20  and  C_22
REMARK    6  A    between atoms: C_22  and  C_23
REMARK                            x       y       z     vdW  Elec       q    Type
REMARK                         _______ _______ _______ _____ _____    ______ ____
ROOT
ATOM      1  C   UNL     1       0.971  13.148  20.519  0.00  0.00    +0.000 A 
ATOM      2  N   UNL     1       0.883  11.950  21.208  0.00  0.00    +0.000 NA
ATOM      3  C   UNL     1      -0.123  11.359  20.621  0.00  0.00    +0.000 A 
ATOM      4  N   UNL     1      -0.726  12.203  19.728  0.00  0.00    +0.000 N 
ATOM      5  N   UNL     1      -0.061  13.378  19.677  0.00  0.00    +0.000 NA
ATOM      6  C   UNL     1      -1.473  11.651  18.661  0.00  0.00    +0.000 A 
ATOM      7  C   UNL     1      -2.822  11.969  18.523  0.00  0.00    +0.000 A 
ATOM      8  C   UNL     1      -3.640  11.053  17.840  0.00  0.00    +0.000 A 
ATOM      9  C   UNL     1      -5.122  11.038  18.072  0.00  0.00    +0.000 C 
ATOM     10  C   UNL     1      -3.058  10.024  17.069  0.00  0.00    +0.000 A 
ATOM     11  C   UNL     1      -1.703   9.720  17.201  0.00  0.00    +0.000 A 
ATOM     12  C   UNL     1      -0.979  10.428  18.152  0.00  0.00    +0.000 A 
ATOM     13  N   UNL     1      -0.088   9.680  19.009  0.00  0.00    +0.000 N 
ATOM     14  C   UNL     1       1.222   9.445  18.586  0.00  0.00    +0.000 C 
ATOM     15  O   UNL     1       1.631   9.774  17.469  0.00  0.00    +0.000 OA
ATOM     16  C   UNL     1      -0.416   9.920  20.434  0.00  0.00    +0.000 C 
ENDROOT
BRANCH   1  20
ATOM     17  C   UNL     1       4.415  15.679  20.408  0.00  0.00    +0.000 A 
ATOM     18  C   UNL     1       4.102  14.873  19.314  0.00  0.00    +0.000 A 
ATOM     19  C   UNL     1       3.014  13.993  19.378  0.00  0.00    +0.000 A 
ATOM     20  C   UNL     1       2.235  13.894  20.547  0.00  0.00    +0.000 A 
ATOM     21  C   UNL     1       2.609  14.651  21.662  0.00  0.00    +0.000 A 
ATOM     22  C   UNL     1       3.700  15.534  21.597  0.00  0.00    +0.000 A 
BRANCH  17  24
ATOM     23  C   UNL     1       5.945  16.610  18.887  0.00  0.00    +0.000 C 
ATOM     24  O   UNL     1       5.424  16.583  20.215  0.00  0.00    +0.000 OA
ENDBRANCH  17  24
ENDBRANCH   1  20
BRANCH  14  25
ATOM     25  C   UNL     1       2.158   8.732  19.565  0.00  0.00    +0.000 C 
BRANCH  25  26
ATOM     26  C   UNL     1       2.092   7.230  19.461  0.00  0.00    +0.000 A 
ATOM     27  C   UNL     1       2.478   6.612  18.270  0.00  0.00    +0.000 A 
ATOM     28  C   UNL     1       2.520   5.223  18.172  0.00  0.00    +0.000 A 
ATOM     29  C   UNL     1       2.173   4.436  19.271  0.00  0.00    +0.000 A 
ATOM     30  C   UNL     1       1.756   5.040  20.456  0.00  0.00    +0.000 A 
ATOM     31  C   UNL     1       1.708   6.435  20.550  0.00  0.00    +0.000 A 
ENDBRANCH  25  26
ENDBRANCH  14  25
TORSDOF 4
ENDMDL
MODEL 6
REMARK VINA RESULT:      -7.5      3.225      7.753
REMARK  Name = 
REMARK  6 active torsions:
REMARK  status: ('A' for Active; 'I' for Inactive)
REMARK    1  A    between atoms: C_1  and  O_2
REMARK    2  A    between atoms: O_2  and  C_3
REMARK    3  A    between atoms: C_6  and  C_7
REMARK    4  A    between atoms: C_14  and  C_15
REMARK    5  A    between atoms: C_20  and  C_22
REMARK    6  A    between atoms: C_22  and  C_23
REMARK                            x       y       z     vdW  Elec       q    Type
REMARK                         _______ _______ _______ _____ _____    ______ ____
ROOT
ATOM      1  C   UNL     1      -0.069  10.007  19.964  0.00  0.00    +0.000 A 
ATOM      2  N   UNL     1      -0.536  11.028  19.152  0.00  0.00    +0.000 NA
ATOM      3  C   UNL     1      -1.154  11.804  20.001  0.00  0.00    +0.000 A 
ATOM      4  N   UNL     1      -1.207  11.223  21.239  0.00  0.00    +0.000 N 
ATOM      5  N   UNL     1      -0.549  10.044  21.227  0.00  0.00    +0.000 NA
ATOM      6  C   UNL     1      -1.365  12.049  22.376  0.00  0.00    +0.000 A 
ATOM      7  C   UNL     1      -2.460  11.868  23.218  0.00  0.00    +0.000 A 
ATOM      8  C   UNL     1      -2.883  12.969  23.982  0.00  0.00    +0.000 A 
ATOM      9  C   UNL     1      -4.289  13.039  24.499  0.00  0.00    +0.000 C 
ATOM     10  C   UNL     1      -2.047  14.097  24.119  0.00  0.00    +0.000 A 
ATOM     11  C   UNL     1      -0.943  14.265  23.283  0.00  0.00    +0.000 A 
ATOM     12  C   UNL     1      -0.742  13.315  22.291  0.00  0.00    +0.000 A 
ATOM     13  N   UNL     1      -0.415  13.790  20.965  0.00  0.00    +0.000 N 
ATOM     14  C   UNL     1       0.922  14.017  20.636  0.00  0.00    +0.000 C 
ATOM     15  O   UNL     1       1.838  13.913  21.457  0.00  0.00    +0.000 OA
ATOM     16  C   UNL     1      -1.384  13.266  19.973  0.00  0.00    +0.000 C 
ENDROOT
BRANCH   1  20
ATOM     17  C   UNL     1       2.879   7.308  18.449  0.00  0.00    +0.000 A 
ATOM     18  C   UNL     1       2.388   7.154  19.744  0.00  0.00    +0.000 A 
ATOM     19  C   UNL     1       1.474   8.079  20.264  0.00  0.00    +0.000 A 
ATOM     20  C   UNL     1       1.054   9.184  19.499  0.00  0.00    +0.000 A 
ATOM     21  C   UNL     1       1.616   9.369  18.231  0.00  0.00    +0.000 A 
ATOM     22  C   UNL     1       2.533   8.440  17.711  0.00  0.00    +0.000 A 
BRANCH  17  24
ATOM     23  C   UNL     1       3.030   5.032  17.879  0.00  0.00    +0.000 C 
ATOM     24  O   UNL     1       3.681   6.298  17.989  0.00  0.00    +0.000 OA
ENDBRANCH  17  24
ENDBRANCH   1  20
BRANCH  14  25
ATOM     25  C   UNL     1       1.231  14.428  19.194  0.00  0.00    +0.000 C 
BRANCH  25  26
ATOM     26  C   UNL     1       0.925  15.876  18.911  0.00  0.00    +0.000 A 
ATOM     27  C   UNL     1      -0.284  16.209  18.296  0.00  0.00    +0.000 A 
ATOM     28  C   UNL     1      -0.640  17.543  18.107  0.00  0.00    +0.000 A 
ATOM     29  C   UNL     1       0.215  18.560  18.534  0.00  0.00    +0.000 A 
ATOM     30  C   UNL     1       1.438  18.241  19.120  0.00  0.00    +0.000 A 
ATOM     31  C   UNL     1       1.797  16.901  19.303  0.00  0.00    +0.000 A 
ENDBRANCH  25  26
ENDBRANCH  14  25
TORSDOF 4
ENDMDL
MODEL 7
REMARK VINA RESULT:      -7.5      3.440      6.596
REMARK  Name = 
REMARK  6 active torsions:
REMARK  status: ('A' for Active; 'I' for Inactive)
REMARK    1  A    between atoms: C_1  and  O_2
REMARK    2  A    between atoms: O_2  and  C_3
REMARK    3  A    between atoms: C_6  and  C_7
REMARK    4  A    between atoms: C_14  and  C_15
REMARK    5  A    between atoms: C_20  and  C_22
REMARK    6  A    between atoms: C_22  and  C_23
REMARK                            x       y       z     vdW  Elec       q    Type
REMARK                         _______ _______ _______ _____ _____    ______ ____
ROOT
ATOM      1  C   UNL     1      -2.322  13.982  20.518  0.00  0.00    +0.000 A 
ATOM      2  N   UNL     1      -2.168  13.029  19.525  0.00  0.00    +0.000 NA
ATOM      3  C   UNL     1      -1.027  13.364  18.985  0.00  0.00    +0.000 A 
ATOM      4  N   UNL     1      -0.575  14.548  19.504  0.00  0.00    +0.000 N 
ATOM      5  N   UNL     1      -1.417  14.986  20.465  0.00  0.00    +0.000 NA
ATOM      6  C   UNL     1       0.809  14.834  19.449  0.00  0.00    +0.000 A 
ATOM      7  C   UNL     1       1.254  15.974  18.785  0.00  0.00    +0.000 A 
ATOM      8  C   UNL     1       2.570  15.966  18.291  0.00  0.00    +0.000 A 
ATOM      9  C   UNL     1       2.965  16.878  17.167  0.00  0.00    +0.000 C 
ATOM     10  C   UNL     1       3.483  14.980  18.724  0.00  0.00    +0.000 A 
ATOM     11  C   UNL     1       3.031  13.849  19.403  0.00  0.00    +0.000 A 
ATOM     12  C   UNL     1       1.660  13.713  19.580  0.00  0.00    +0.000 A 
ATOM     13  N   UNL     1       1.074  12.419  19.314  0.00  0.00    +0.000 N 
ATOM     14  C   UNL     1       1.023  11.473  20.340  0.00  0.00    +0.000 C 
ATOM     15  O   UNL     1       1.535  11.663  21.447  0.00  0.00    +0.000 OA
ATOM     16  C   UNL     1      -0.006  12.536  18.306  0.00  0.00    +0.000 C 
ENDROOT
BRANCH   1  20
ATOM     17  C   UNL     1      -5.050  12.760  23.575  0.00  0.00    +0.000 A 
ATOM     18  C   UNL     1      -5.504  13.500  22.485  0.00  0.00    +0.000 A 
ATOM     19  C   UNL     1      -4.599  13.959  21.520  0.00  0.00    +0.000 A 
ATOM     20  C   UNL     1      -3.221  13.700  21.644  0.00  0.00    +0.000 A 
ATOM     21  C   UNL     1      -2.771  13.023  22.783  0.00  0.00    +0.000 A 
ATOM     22  C   UNL     1      -3.680  12.563  23.750  0.00  0.00    +0.000 A 
BRANCH  17  24
ATOM     23  C   UNL     1      -7.292  12.889  24.268  0.00  0.00    +0.000 C 
ATOM     24  O   UNL     1      -6.017  12.262  24.405  0.00  0.00    +0.000 OA
ENDBRANCH  17  24
ENDBRANCH   1  20
BRANCH  14  25
ATOM     25  C   UNL     1       0.310  10.152  20.042  0.00  0.00    +0.000 C 
BRANCH  25  26
ATOM     26  C   UNL     1       1.228   9.096  19.483  0.00  0.00    +0.000 A 
ATOM     27  C   UNL     1       1.599   8.019  20.292  0.00  0.00    +0.000 A 
ATOM     28  C   UNL     1       2.368   6.978  19.778  0.00  0.00    +0.000 A 
ATOM     29  C   UNL     1       2.775   7.004  18.444  0.00  0.00    +0.000 A 
ATOM     30  C   UNL     1       2.438   8.087  17.635  0.00  0.00    +0.000 A 
ATOM     31  C   UNL     1       1.672   9.136  18.154  0.00  0.00    +0.000 A 
ENDBRANCH  25  26
ENDBRANCH  14  25
TORSDOF 4
ENDMDL
MODEL 8
REMARK VINA RESULT:      -7.1      3.445      7.179
REMARK  Name = 
REMARK  6 active torsions:
REMARK  status: ('A' for Active; 'I' for Inactive)
REMARK    1  A    between atoms: C_1  and  O_2
REMARK    2  A    between atoms: O_2  and  C_3
REMARK    3  A    between atoms: C_6  and  C_7
REMARK    4  A    between atoms: C_14  and  C_15
REMARK    5  A    between atoms: C_20  and  C_22
REMARK    6  A    between atoms: C_22  and  C_23
REMARK                            x       y       z     vdW  Elec       q    Type
REMARK                         _______ _______ _______ _____ _____    ______ ____
ROOT
ATOM      1  C   UNL     1       0.026  10.353  18.387  0.00  0.00    +0.000 A 
ATOM      2  N   UNL     1       0.328  11.689  18.592  0.00  0.00    +0.000 NA
ATOM      3  C   UNL     1      -0.853  12.246  18.611  0.00  0.00    +0.000 A 
ATOM      4  N   UNL     1      -1.822  11.339  18.279  0.00  0.00    +0.000 N 
ATOM      5  N   UNL     1      -1.272  10.120  18.089  0.00  0.00    +0.000 NA
ATOM      6  C   UNL     1      -3.150  11.568  18.709  0.00  0.00    +0.000 A 
ATOM      7  C   UNL     1      -4.173  11.675  17.770  0.00  0.00    +0.000 A 
ATOM      8  C   UNL     1      -5.319  12.402  18.136  0.00  0.00    +0.000 A 
ATOM      9  C   UNL     1      -6.210  12.996  17.086  0.00  0.00    +0.000 C 
ATOM     10  C   UNL     1      -5.544  12.732  19.491  0.00  0.00    +0.000 A 
ATOM     11  C   UNL     1      -4.519  12.607  20.429  0.00  0.00    +0.000 A 
ATOM     12  C   UNL     1      -3.274  12.203  19.965  0.00  0.00    +0.000 A 
ATOM     13  N   UNL     1      -2.115  12.922  20.446  0.00  0.00    +0.000 N 
ATOM     14  C   UNL     1      -1.503  12.507  21.631  0.00  0.00    +0.000 C 
ATOM     15  O   UNL     1      -1.961  11.604  22.337  0.00  0.00    +0.000 OA
ATOM     16  C   UNL     1      -1.330  13.460  19.311  0.00  0.00    +0.000 C 
ENDROOT
BRANCH   1  20
ATOM     17  C   UNL     1       2.559   7.068  19.423  0.00  0.00    +0.000 A 
ATOM     18  C   UNL     1       1.829   7.729  20.410  0.00  0.00    +0.000 A 
ATOM     19  C   UNL     1       1.054   8.848  20.080  0.00  0.00    +0.000 A 
ATOM     20  C   UNL     1       1.015   9.333  18.759  0.00  0.00    +0.000 A 
ATOM     21  C   UNL     1       1.813   8.708  17.796  0.00  0.00    +0.000 A 
ATOM     22  C   UNL     1       2.590   7.585  18.128  0.00  0.00    +0.000 A 
BRANCH  17  24
ATOM     23  C   UNL     1       4.376   5.620  19.071  0.00  0.00    +0.000 C 
ATOM     24  O   UNL     1       3.198   5.923  19.817  0.00  0.00    +0.000 OA
ENDBRANCH  17  24
ENDBRANCH   1  20
BRANCH  14  25
ATOM     25  C   UNL     1      -0.225  13.236  22.054  0.00  0.00    +0.000 C 
BRANCH  25  26
ATOM     26  C   UNL     1      -0.492  14.504  22.822  0.00  0.00    +0.000 A 
ATOM     27  C   UNL     1      -1.277  14.449  23.976  0.00  0.00    +0.000 A 
ATOM     28  C   UNL     1      -1.464  15.584  24.762  0.00  0.00    +0.000 A 
ATOM     29  C   UNL     1      -0.864  16.790  24.399  0.00  0.00    +0.000 A 
ATOM     30  C   UNL     1      -0.104  16.866  23.233  0.00  0.00    +0.000 A 
ATOM     31  C   UNL     1       0.077  15.727  22.441  0.00  0.00    +0.000 A 
ENDBRANCH  25  26
ENDBRANCH  14  25
TORSDOF 4
ENDMDL
MODEL 9
REMARK VINA RESULT:      -7.1      2.634      5.740
REMARK  Name = 
REMARK  6 active torsions:
REMARK  status: ('A' for Active; 'I' for Inactive)
REMARK    1  A    between atoms: C_1  and  O_2
REMARK    2  A    between atoms: O_2  and  C_3
REMARK    3  A    between atoms: C_6  and  C_7
REMARK    4  A    between atoms: C_14  and  C_15
REMARK    5  A    between atoms: C_20  and  C_22
REMARK    6  A    between atoms: C_22  and  C_23
REMARK                            x       y       z     vdW  Elec       q    Type
REMARK                         _______ _______ _______ _____ _____    ______ ____
ROOT
ATOM      1  C   UNL     1       1.378  12.479  18.489  0.00  0.00    +0.000 A 
ATOM      2  N   UNL     1       0.048  12.101  18.580  0.00  0.00    +0.000 NA
ATOM      3  C   UNL     1       0.132  10.806  18.731  0.00  0.00    +0.000 A 
ATOM      4  N   UNL     1       1.426  10.384  18.583  0.00  0.00    +0.000 N 
ATOM      5  N   UNL     1       2.240  11.443  18.383  0.00  0.00    +0.000 NA
ATOM      6  C   UNL     1       1.820   9.162  19.177  0.00  0.00    +0.000 A 
ATOM      7  C   UNL     1       2.327   8.137  18.382  0.00  0.00    +0.000 A 
ATOM      8  C   UNL     1       2.207   6.822  18.862  0.00  0.00    +0.000 A 
ATOM      9  C   UNL     1       2.241   5.661  17.914  0.00  0.00    +0.000 C 
ATOM     10  C   UNL     1       1.877   6.590  20.215  0.00  0.00    +0.000 A 
ATOM     11  C   UNL     1       1.386   7.626  21.010  0.00  0.00    +0.000 A 
ATOM     12  C   UNL     1       1.186   8.859  20.403  0.00  0.00    +0.000 A 
ATOM     13  N   UNL     1      -0.051   9.551  20.683  0.00  0.00    +0.000 N 
ATOM     14  C   UNL     1      -0.120  10.395  21.794  0.00  0.00    +0.000 C 
ATOM     15  O   UNL     1       0.806  10.511  22.602  0.00  0.00    +0.000 OA
ATOM     16  C   UNL     1      -0.770   9.860  19.425  0.00  0.00    +0.000 C 
ENDROOT
BRANCH   1  20
ATOM     17  C   UNL     1       2.249  16.470  19.749  0.00  0.00    +0.000 A 
ATOM     18  C   UNL     1       1.031  16.179  19.137  0.00  0.00    +0.000 A 
ATOM     19  C   UNL     1       0.775  14.886  18.662  0.00  0.00    +0.000 A 
ATOM     20  C   UNL     1       1.743  13.871  18.776  0.00  0.00    +0.000 A 
ATOM     21  C   UNL     1       2.989  14.199  19.322  0.00  0.00    +0.000 A 
ATOM     22  C   UNL     1       3.245  15.495  19.798  0.00  0.00    +0.000 A 
BRANCH  17  24
ATOM     23  C   UNL     1       1.203  18.540  20.132  0.00  0.00    +0.000 C 
ATOM     24  O   UNL     1       2.367  17.727  20.279  0.00  0.00    +0.000 OA
ENDBRANCH  17  24
ENDBRANCH   1  20
BRANCH  14  25
ATOM     25  C   UNL     1      -1.418  11.181  21.999  0.00  0.00    +0.000 C 
BRANCH  25  26
ATOM     26  C   UNL     1      -1.186  12.605  22.434  0.00  0.00    +0.000 A 
ATOM     27  C   UNL     1      -1.975  13.142  23.454  0.00  0.00    +0.000 A 
ATOM     28  C   UNL     1      -1.725  14.421  23.945  0.00  0.00    +0.000 A 
ATOM     29  C   UNL     1      -0.679  15.179  23.418  0.00  0.00    +0.000 A 
ATOM     30  C   UNL     1       0.096  14.667  22.378  0.00  0.00    +0.000 A 
ATOM     31  C   UNL     1      -0.161  13.385  21.881  0.00  0.00    +0.000 A 
ENDBRANCH  25  26
ENDBRANCH  14  25
TORSDOF 4
ENDMDL
