MODEL 1
REMARK VINA RESULT:      -8.1      0.000      0.000
REMARK  Name = 
REMARK  13 active torsions:
REMARK  status: ('A' for Active; 'I' for Inactive)
REMARK    1  A    between atoms: C_1  and  C_2
REMARK    2  A    between atoms: C_2  and  C_3
REMARK    3  A    between atoms: C_3  and  C_4
REMARK    4  A    between atoms: C_3  and  C_5
REMARK    5  A    between atoms: C_7  and  N_8
REMARK    6  A    between atoms: N_8  and  C_9
REMARK    7  A    between atoms: C_21  and  C_22
REMARK    8  A    between atoms: C_22  and  N_23
REMARK    9  A    between atoms: N_23  and  C_24
REMARK   10  A    between atoms: N_23  and  C_26
REMARK   11  A    between atoms: C_24  and  C_25
REMARK   12  A    between atoms: C_26  and  C_27
REMARK   13  A    between atoms: C_28  and  O_29
REMARK                            x       y       z     vdW  Elec       q    Type
REMARK                         _______ _______ _______ _____ _____    ______ ____
ROOT
ATOM      1  C   UNL     1       2.513   4.104  19.322  0.00  0.00    +0.000 A 
ATOM      2  C   UNL     1       2.089   5.257  20.011  0.00  0.00    +0.000 A 
ATOM      3  C   UNL     1       2.660   6.509  19.751  0.00  0.00    +0.000 A 
ATOM      4  C   UNL     1       3.539   6.625  18.665  0.00  0.00    +0.000 A 
ATOM      5  C   UNL     1       3.941   5.501  17.925  0.00  0.00    +0.000 A 
ATOM      6  C   UNL     1       3.518   4.237  18.356  0.00  0.00    +0.000 A 
ENDROOT
BRANCH   1   7
ATOM      7  C   UNL     1       1.769   2.781  19.461  0.00  0.00    +0.000 C 
ATOM      8  C   UNL     1       0.572   2.794  18.496  0.00  0.00    +0.000 C 
BRANCH   7  10
ATOM      9  C   UNL     1       2.418   2.494  21.911  0.00  0.00    +0.000 C 
ATOM     10  C   UNL     1       1.298   2.436  20.883  0.00  0.00    +0.000 C 
ENDBRANCH   7  10
ENDBRANCH   1   7
BRANCH   3  11
ATOM     11  N   UNL     1       2.232   7.658  20.464  0.00  0.00    +0.000 N 
ATOM     12  H   UNL     1       3.001   8.081  20.980  0.00  0.00    +0.000 HD
BRANCH  11  13
ATOM     13  C   UNL     1       1.408   8.689  19.918  0.00  0.00    +0.000 A 
ATOM     14  C   UNL     1       1.461   8.977  18.552  0.00  0.00    +0.000 A 
ATOM     15  C   UNL     1       0.651   9.977  18.058  0.00  0.00    +0.000 A 
ATOM     16  N   UNL     1      -0.180  10.711  18.821  0.00  0.00    +0.000 NA
ATOM     17  C   UNL     1      -0.204  10.474  20.143  0.00  0.00    +0.000 A 
ATOM     18  C   UNL     1      -1.065  11.226  20.924  0.00  0.00    +0.000 A 
ATOM     19  C   UNL     1      -1.136  11.041  22.303  0.00  0.00    +0.000 A 
ATOM     20 CL   UNL     1      -2.244  11.973  23.235  0.00  0.00    +0.000 Cl
ATOM     21  C   UNL     1      -0.328  10.103  22.930  0.00  0.00    +0.000 A 
ATOM     22  C   UNL     1       0.535   9.325  22.161  0.00  0.00    +0.000 A 
ATOM     23  C   UNL     1       0.599   9.488  20.759  0.00  0.00    +0.000 A 
ENDBRANCH  11  13
ENDBRANCH   3  11
BRANCH   6  24
ATOM     24  O   UNL     1       4.004   3.103  17.759  0.00  0.00    +0.000 OA
ATOM     25  H   UNL     1       3.976   2.387  18.429  0.00  0.00    +0.000 HD
ENDBRANCH   6  24
BRANCH   5  26
ATOM     26  C   UNL     1       4.748   5.721  16.659  0.00  0.00    +0.000 C 
BRANCH  26  27
ATOM     27  N   UNL     1       6.045   4.991  16.611  0.00  0.00    +0.000 NA
BRANCH  27  28
ATOM     28  C   UNL     1       6.668   4.969  15.265  0.00  0.00    +0.000 C 
ATOM     29  C   UNL     1       6.114   3.993  14.241  0.00  0.00    +0.000 C 
ENDBRANCH  27  28
BRANCH  27  30
ATOM     30  C   UNL     1       6.944   5.546  17.643  0.00  0.00    +0.000 C 
ATOM     31  C   UNL     1       7.357   6.994  17.393  0.00  0.00    +0.000 C 
ENDBRANCH  27  30
ENDBRANCH  26  27
ENDBRANCH   5  26
TORSDOF 9
ENDMDL
MODEL 2
REMARK VINA RESULT:      -8.0      1.102      1.717
REMARK  Name = 
REMARK  13 active torsions:
REMARK  status: ('A' for Active; 'I' for Inactive)
REMARK    1  A    between atoms: C_1  and  C_2
REMARK    2  A    between atoms: C_2  and  C_3
REMARK    3  A    between atoms: C_3  and  C_4
REMARK    4  A    between atoms: C_3  and  C_5
REMARK    5  A    between atoms: C_7  and  N_8
REMARK    6  A    between atoms: N_8  and  C_9
REMARK    7  A    between atoms: C_21  and  C_22
REMARK    8  A    between atoms: C_22  and  N_23
REMARK    9  A    between atoms: N_23  and  C_24
REMARK   10  A    between atoms: N_23  and  C_26
REMARK   11  A    between atoms: C_24  and  C_25
REMARK   12  A    between atoms: C_26  and  C_27
REMARK   13  A    between atoms: C_28  and  O_29
REMARK                            x       y       z     vdW  Elec       q    Type
REMARK                         _______ _______ _______ _____ _____    ______ ____
ROOT
ATOM      1  C   UNL     1       2.920   4.147  18.178  0.00  0.00    +0.000 A 
ATOM      2  C   UNL     1       2.387   5.108  19.060  0.00  0.00    +0.000 A 
ATOM      3  C   UNL     1       2.873   6.420  19.083  0.00  0.00    +0.000 A 
ATOM      4  C   UNL     1       3.781   6.809  18.088  0.00  0.00    +0.000 A 
ATOM      5  C   UNL     1       4.293   5.886  17.161  0.00  0.00    +0.000 A 
ATOM      6  C   UNL     1       3.948   4.537  17.311  0.00  0.00    +0.000 A 
ENDROOT
BRANCH   1   7
ATOM      7  C   UNL     1       2.271   2.777  18.014  0.00  0.00    +0.000 C 
ATOM      8  C   UNL     1       0.903   2.802  18.718  0.00  0.00    +0.000 C 
BRANCH   7  10
ATOM      9  C   UNL     1       4.016   1.954  19.682  0.00  0.00    +0.000 C 
ATOM     10  C   UNL     1       3.103   1.589  18.519  0.00  0.00    +0.000 C 
ENDBRANCH   7  10
ENDBRANCH   1   7
BRANCH   3  11
ATOM     11  N   UNL     1       2.335   7.372  19.987  0.00  0.00    +0.000 N 
ATOM     12  H   UNL     1       3.027   7.660  20.676  0.00  0.00    +0.000 HD
BRANCH  11  13
ATOM     13  C   UNL     1       1.556   8.504  19.601  0.00  0.00    +0.000 A 
ATOM     14  C   UNL     1       1.585   8.957  18.280  0.00  0.00    +0.000 A 
ATOM     15  C   UNL     1       0.820  10.052  17.941  0.00  0.00    +0.000 A 
ATOM     16  N   UNL     1       0.054  10.728  18.817  0.00  0.00    +0.000 NA
ATOM     17  C   UNL     1       0.055  10.331  20.100  0.00  0.00    +0.000 A 
ATOM     18  C   UNL     1      -0.739  11.024  20.998  0.00  0.00    +0.000 A 
ATOM     19  C   UNL     1      -0.781  10.674  22.345  0.00  0.00    +0.000 A 
ATOM     20 CL   UNL     1      -1.806  11.540  23.423  0.00  0.00    +0.000 Cl
ATOM     21  C   UNL     1      -0.009   9.623  22.824  0.00  0.00    +0.000 A 
ATOM     22  C   UNL     1       0.786   8.903  21.935  0.00  0.00    +0.000 A 
ATOM     23  C   UNL     1       0.818   9.234  20.562  0.00  0.00    +0.000 A 
ENDBRANCH  11  13
ENDBRANCH   3  11
BRANCH   6  24
ATOM     24  O   UNL     1       4.538   3.580  16.527  0.00  0.00    +0.000 OA
ATOM     25  H   UNL     1       4.097   3.609  15.651  0.00  0.00    +0.000 HD
ENDBRANCH   6  24
BRANCH   5  26
ATOM     26  C   UNL     1       5.128   6.409  16.008  0.00  0.00    +0.000 C 
BRANCH  26  27
ATOM     27  N   UNL     1       6.586   6.514  16.291  0.00  0.00    +0.000 NA
BRANCH  27  28
ATOM     28  C   UNL     1       6.895   7.133  17.605  0.00  0.00    +0.000 C 
ATOM     29  C   UNL     1       7.875   8.294  17.629  0.00  0.00    +0.000 C 
ENDBRANCH  27  28
BRANCH  27  30
ATOM     30  C   UNL     1       7.201   5.179  16.135  0.00  0.00    +0.000 C 
ATOM     31  C   UNL     1       7.675   4.558  17.447  0.00  0.00    +0.000 C 
ENDBRANCH  27  30
ENDBRANCH  26  27
ENDBRANCH   5  26
TORSDOF 9
ENDMDL
MODEL 3
REMARK VINA RESULT:      -7.9      1.585      4.194
REMARK  Name = 
REMARK  13 active torsions:
REMARK  status: ('A' for Active; 'I' for Inactive)
REMARK    1  A    between atoms: C_1  and  C_2
REMARK    2  A    between atoms: C_2  and  C_3
REMARK    3  A    between atoms: C_3  and  C_4
REMARK    4  A    between atoms: C_3  and  C_5
REMARK    5  A    between atoms: C_7  and  N_8
REMARK    6  A    between atoms: N_8  and  C_9
REMARK    7  A    between atoms: C_21  and  C_22
REMARK    8  A    between atoms: C_22  and  N_23
REMARK    9  A    between atoms: N_23  and  C_24
REMARK   10  A    between atoms: N_23  and  C_26
REMARK   11  A    between atoms: C_24  and  C_25
REMARK   12  A    between atoms: C_26  and  C_27
REMARK   13  A    between atoms: C_28  and  O_29
REMARK                            x       y       z     vdW  Elec       q    Type
REMARK                         _______ _______ _______ _____ _____    ______ ____
ROOT
ATOM      1  C   UNL     1       5.345   5.567  17.948  0.00  0.00    +0.000 A 
ATOM      2  C   UNL     1       4.629   6.409  18.820  0.00  0.00    +0.000 A 
ATOM      3  C   UNL     1       3.268   6.202  19.074  0.00  0.00    +0.000 A 
ATOM      4  C   UNL     1       2.671   5.033  18.582  0.00  0.00    +0.000 A 
ATOM      5  C   UNL     1       3.374   4.145  17.751  0.00  0.00    +0.000 A 
ATOM      6  C   UNL     1       4.666   4.503  17.343  0.00  0.00    +0.000 A 
ENDROOT
BRANCH   1   7
ATOM      7  C   UNL     1       6.860   5.669  17.816  0.00  0.00    +0.000 C 
ATOM      8  C   UNL     1       7.472   5.648  19.227  0.00  0.00    +0.000 C 
BRANCH   7  10
ATOM      9  C   UNL     1       7.924   7.984  17.941  0.00  0.00    +0.000 C 
ATOM     10  C   UNL     1       7.373   6.891  17.036  0.00  0.00    +0.000 C 
ENDBRANCH   7  10
ENDBRANCH   1   7
BRANCH   3  11
ATOM     11  N   UNL     1       2.557   7.069  19.944  0.00  0.00    +0.000 N 
ATOM     12  H   UNL     1       3.111   7.303  20.766  0.00  0.00    +0.000 HD
BRANCH  11  13
ATOM     13  C   UNL     1       1.832   8.223  19.522  0.00  0.00    +0.000 A 
ATOM     14  C   UNL     1       1.916   8.657  18.197  0.00  0.00    +0.000 A 
ATOM     15  C   UNL     1       1.201   9.775  17.823  0.00  0.00    +0.000 A 
ATOM     16  N   UNL     1       0.435  10.489  18.667  0.00  0.00    +0.000 NA
ATOM     17  C   UNL     1       0.385  10.110  19.955  0.00  0.00    +0.000 A 
ATOM     18  C   UNL     1      -0.409  10.843  20.820  0.00  0.00    +0.000 A 
ATOM     19  C   UNL     1      -0.503  10.512  22.169  0.00  0.00    +0.000 A 
ATOM     20 CL   UNL     1      -1.526  11.429  23.207  0.00  0.00    +0.000 Cl
ATOM     21  C   UNL     1       0.215   9.441  22.684  0.00  0.00    +0.000 A 
ATOM     22  C   UNL     1       1.009   8.680  21.827  0.00  0.00    +0.000 A 
ATOM     23  C   UNL     1       1.094   8.992  20.452  0.00  0.00    +0.000 A 
ENDBRANCH  11  13
ENDBRANCH   3  11
BRANCH   6  24
ATOM     24  O   UNL     1       5.333   3.745  16.415  0.00  0.00    +0.000 OA
ATOM     25  H   UNL     1       4.935   2.849  16.432  0.00  0.00    +0.000 HD
ENDBRANCH   6  24
BRANCH   5  26
ATOM     26  C   UNL     1       2.729   2.817  17.403  0.00  0.00    +0.000 C 
BRANCH  26  27
ATOM     27  N   UNL     1       2.946   1.737  18.404  0.00  0.00    +0.000 NA
BRANCH  27  28
ATOM     28  C   UNL     1       4.267   1.805  19.078  0.00  0.00    +0.000 C 
ATOM     29  C   UNL     1       4.296   2.206  20.543  0.00  0.00    +0.000 C 
ENDBRANCH  27  28
BRANCH  27  30
ATOM     30  C   UNL     1       1.821   1.739  19.361  0.00  0.00    +0.000 C 
ATOM     31  C   UNL     1       0.517   2.285  18.785  0.00  0.00    +0.000 C 
ENDBRANCH  27  30
ENDBRANCH  26  27
ENDBRANCH   5  26
TORSDOF 9
ENDMDL
MODEL 4
REMARK VINA RESULT:      -7.9      1.416      2.038
REMARK  Name = 
REMARK  13 active torsions:
REMARK  status: ('A' for Active; 'I' for Inactive)
REMARK    1  A    between atoms: C_1  and  C_2
REMARK    2  A    between atoms: C_2  and  C_3
REMARK    3  A    between atoms: C_3  and  C_4
REMARK    4  A    between atoms: C_3  and  C_5
REMARK    5  A    between atoms: C_7  and  N_8
REMARK    6  A    between atoms: N_8  and  C_9
REMARK    7  A    between atoms: C_21  and  C_22
REMARK    8  A    between atoms: C_22  and  N_23
REMARK    9  A    between atoms: N_23  and  C_24
REMARK   10  A    between atoms: N_23  and  C_26
REMARK   11  A    between atoms: C_24  and  C_25
REMARK   12  A    between atoms: C_26  and  C_27
REMARK   13  A    between atoms: C_28  and  O_29
REMARK                            x       y       z     vdW  Elec       q    Type
REMARK                         _______ _______ _______ _____ _____    ______ ____
ROOT
ATOM      1  C   UNL     1       2.631   5.275  19.017  0.00  0.00    +0.000 A 
ATOM      2  C   UNL     1       1.860   6.442  19.180  0.00  0.00    +0.000 A 
ATOM      3  C   UNL     1       2.299   7.677  18.690  0.00  0.00    +0.000 A 
ATOM      4  C   UNL     1       3.441   7.700  17.876  0.00  0.00    +0.000 A 
ATOM      5  C   UNL     1       4.204   6.542  17.652  0.00  0.00    +0.000 A 
ATOM      6  C   UNL     1       3.853   5.374  18.340  0.00  0.00    +0.000 A 
ENDROOT
BRANCH   1   7
ATOM      7  C   UNL     1       2.076   3.902  19.378  0.00  0.00    +0.000 C 
ATOM      8  C   UNL     1       1.251   3.386  18.187  0.00  0.00    +0.000 C 
BRANCH   7  10
ATOM      9  C   UNL     1       1.808   2.896  21.706  0.00  0.00    +0.000 C 
ATOM     10  C   UNL     1       1.237   3.847  20.664  0.00  0.00    +0.000 C 
ENDBRANCH   7  10
ENDBRANCH   1   7
BRANCH   3  11
ATOM     11  N   UNL     1       1.516   8.846  18.875  0.00  0.00    +0.000 N 
ATOM     12  H   UNL     1       0.763   8.898  18.191  0.00  0.00    +0.000 HD
BRANCH  11  13
ATOM     13  C   UNL     1       1.037   9.307  20.138  0.00  0.00    +0.000 A 
ATOM     14  C   UNL     1       1.515   8.736  21.319  0.00  0.00    +0.000 A 
ATOM     15  C   UNL     1       1.032   9.206  22.521  0.00  0.00    +0.000 A 
ATOM     16  N   UNL     1       0.108  10.179  22.627  0.00  0.00    +0.000 NA
ATOM     17  C   UNL     1      -0.394  10.703  21.496  0.00  0.00    +0.000 A 
ATOM     18  C   UNL     1      -1.340  11.708  21.607  0.00  0.00    +0.000 A 
ATOM     19  C   UNL     1      -1.909  12.291  20.478  0.00  0.00    +0.000 A 
ATOM     20 CL   UNL     1      -3.058  13.560  20.657  0.00  0.00    +0.000 Cl
ATOM     21  C   UNL     1      -1.549  11.864  19.207  0.00  0.00    +0.000 A 
ATOM     22  C   UNL     1      -0.588  10.863  19.072  0.00  0.00    +0.000 A 
ATOM     23  C   UNL     1       0.014  10.281  20.210  0.00  0.00    +0.000 A 
ENDBRANCH  11  13
ENDBRANCH   3  11
BRANCH   6  24
ATOM     24  O   UNL     1       4.653   4.263  18.271  0.00  0.00    +0.000 OA
ATOM     25  H   UNL     1       4.071   3.479  18.365  0.00  0.00    +0.000 HD
ENDBRANCH   6  24
BRANCH   5  26
ATOM     26  C   UNL     1       5.317   6.600  16.623  0.00  0.00    +0.000 C 
BRANCH  26  27
ATOM     27  N   UNL     1       6.417   5.620  16.840  0.00  0.00    +0.000 NA
BRANCH  27  28
ATOM     28  C   UNL     1       6.971   5.057  15.583  0.00  0.00    +0.000 C 
ATOM     29  C   UNL     1       6.219   3.913  14.925  0.00  0.00    +0.000 C 
ENDBRANCH  27  28
BRANCH  27  30
ATOM     30  C   UNL     1       7.454   6.244  17.686  0.00  0.00    +0.000 C 
ATOM     31  C   UNL     1       7.601   7.750  17.478  0.00  0.00    +0.000 C 
ENDBRANCH  27  30
ENDBRANCH  26  27
ENDBRANCH   5  26
TORSDOF 9
ENDMDL
MODEL 5
REMARK VINA RESULT:      -7.8      2.245      2.809
REMARK  Name = 
REMARK  13 active torsions:
REMARK  status: ('A' for Active; 'I' for Inactive)
REMARK    1  A    between atoms: C_1  and  C_2
REMARK    2  A    between atoms: C_2  and  C_3
REMARK    3  A    between atoms: C_3  and  C_4
REMARK    4  A    between atoms: C_3  and  C_5
REMARK    5  A    between atoms: C_7  and  N_8
REMARK    6  A    between atoms: N_8  and  C_9
REMARK    7  A    between atoms: C_21  and  C_22
REMARK    8  A    between atoms: C_22  and  N_23
REMARK    9  A    between atoms: N_23  and  C_24
REMARK   10  A    between atoms: N_23  and  C_26
REMARK   11  A    between atoms: C_24  and  C_25
REMARK   12  A    between atoms: C_26  and  C_27
REMARK   13  A    between atoms: C_28  and  O_29
REMARK                            x       y       z     vdW  Elec       q    Type
REMARK                         _______ _______ _______ _____ _____    ______ ____
ROOT
ATOM      1  C   UNL     1       2.626   5.416  18.839  0.00  0.00    +0.000 A 
ATOM      2  C   UNL     1       1.800   6.556  18.787  0.00  0.00    +0.000 A 
ATOM      3  C   UNL     1       2.255   7.757  18.229  0.00  0.00    +0.000 A 
ATOM      4  C   UNL     1       3.488   7.754  17.562  0.00  0.00    +0.000 A 
ATOM      5  C   UNL     1       4.313   6.617  17.551  0.00  0.00    +0.000 A 
ATOM      6  C   UNL     1       3.919   5.506  18.308  0.00  0.00    +0.000 A 
ENDROOT
BRANCH   1   7
ATOM      7  C   UNL     1       2.078   4.060  19.268  0.00  0.00    +0.000 C 
ATOM      8  C   UNL     1       1.304   3.454  18.084  0.00  0.00    +0.000 C 
BRANCH   7  10
ATOM      9  C   UNL     1       1.657   3.090  21.589  0.00  0.00    +0.000 C 
ATOM     10  C   UNL     1       1.193   4.074  20.524  0.00  0.00    +0.000 C 
ENDBRANCH   7  10
ENDBRANCH   1   7
BRANCH   3  11
ATOM     11  N   UNL     1       1.415   8.899  18.197  0.00  0.00    +0.000 N 
ATOM     12  H   UNL     1       0.538   8.700  17.719  0.00  0.00    +0.000 HD
BRANCH  11  13
ATOM     13  C   UNL     1       1.159   9.747  19.316  0.00  0.00    +0.000 A 
ATOM     14  C   UNL     1       0.489   9.247  20.435  0.00  0.00    +0.000 A 
ATOM     15  C   UNL     1       0.260  10.092  21.499  0.00  0.00    +0.000 A 
ATOM     16  N   UNL     1       0.629  11.386  21.519  0.00  0.00    +0.000 NA
ATOM     17  C   UNL     1       1.231  11.891  20.429  0.00  0.00    +0.000 A 
ATOM     18  C   UNL     1       1.615  13.221  20.454  0.00  0.00    +0.000 A 
ATOM     19  C   UNL     1       2.236  13.814  19.357  0.00  0.00    +0.000 A 
ATOM     20 CL   UNL     1       2.729  15.461  19.439  0.00  0.00    +0.000 Cl
ATOM     21  C   UNL     1       2.472  13.082  18.201  0.00  0.00    +0.000 A 
ATOM     22  C   UNL     1       2.106  11.738  18.159  0.00  0.00    +0.000 A 
ATOM     23  C   UNL     1       1.497  11.120  19.274  0.00  0.00    +0.000 A 
ENDBRANCH  11  13
ENDBRANCH   3  11
BRANCH   6  24
ATOM     24  O   UNL     1       4.759   4.433  18.451  0.00  0.00    +0.000 OA
ATOM     25  H   UNL     1       5.419   4.481  17.726  0.00  0.00    +0.000 HD
ENDBRANCH   6  24
BRANCH   5  26
ATOM     26  C   UNL     1       5.544   6.626  16.665  0.00  0.00    +0.000 C 
BRANCH  26  27
ATOM     27  N   UNL     1       6.629   5.702  17.096  0.00  0.00    +0.000 NA
BRANCH  27  28
ATOM     28  C   UNL     1       7.242   4.939  15.980  0.00  0.00    +0.000 C 
ATOM     29  C   UNL     1       6.337   4.042  15.151  0.00  0.00    +0.000 C 
ENDBRANCH  27  28
BRANCH  27  30
ATOM     30  C   UNL     1       7.626   6.465  17.875  0.00  0.00    +0.000 C 
ATOM     31  C   UNL     1       7.707   7.943  17.500  0.00  0.00    +0.000 C 
ENDBRANCH  27  30
ENDBRANCH  26  27
ENDBRANCH   5  26
TORSDOF 9
ENDMDL
MODEL 6
REMARK VINA RESULT:      -7.7      1.558      4.042
REMARK  Name = 
REMARK  13 active torsions:
REMARK  status: ('A' for Active; 'I' for Inactive)
REMARK    1  A    between atoms: C_1  and  C_2
REMARK    2  A    between atoms: C_2  and  C_3
REMARK    3  A    between atoms: C_3  and  C_4
REMARK    4  A    between atoms: C_3  and  C_5
REMARK    5  A    between atoms: C_7  and  N_8
REMARK    6  A    between atoms: N_8  and  C_9
REMARK    7  A    between atoms: C_21  and  C_22
REMARK    8  A    between atoms: C_22  and  N_23
REMARK    9  A    between atoms: N_23  and  C_24
REMARK   10  A    between atoms: N_23  and  C_26
REMARK   11  A    between atoms: C_24  and  C_25
REMARK   12  A    between atoms: C_26  and  C_27
REMARK   13  A    between atoms: C_28  and  O_29
REMARK                            x       y       z     vdW  Elec       q    Type
REMARK                         _______ _______ _______ _____ _____    ______ ____
ROOT
ATOM      1  C   UNL     1       4.650   5.840  17.994  0.00  0.00    +0.000 A 
ATOM      2  C   UNL     1       4.072   6.745  18.905  0.00  0.00    +0.000 A 
ATOM      3  C   UNL     1       2.714   6.671  19.239  0.00  0.00    +0.000 A 
ATOM      4  C   UNL     1       1.978   5.568  18.785  0.00  0.00    +0.000 A 
ATOM      5  C   UNL     1       2.541   4.619  17.916  0.00  0.00    +0.000 A 
ATOM      6  C   UNL     1       3.836   4.850  17.432  0.00  0.00    +0.000 A 
ENDROOT
BRANCH   1   7
ATOM      7  C   UNL     1       6.158   5.795  17.772  0.00  0.00    +0.000 C 
ATOM      8  C   UNL     1       6.832   5.428  19.106  0.00  0.00    +0.000 C 
BRANCH   7  10
ATOM      9  C   UNL     1       7.915   7.621  18.060  0.00  0.00    +0.000 C 
ATOM     10  C   UNL     1       6.779   7.079  17.203  0.00  0.00    +0.000 C 
ENDBRANCH   7  10
ENDBRANCH   1   7
BRANCH   3  11
ATOM     11  N   UNL     1       2.144   7.599  20.148  0.00  0.00    +0.000 N 
ATOM     12  H   UNL     1       2.805   7.852  20.881  0.00  0.00    +0.000 HD
BRANCH  11  13
ATOM     13  C   UNL     1       1.402   8.757  19.764  0.00  0.00    +0.000 A 
ATOM     14  C   UNL     1       1.497   9.248  18.460  0.00  0.00    +0.000 A 
ATOM     15  C   UNL     1       0.766  10.367  18.123  0.00  0.00    +0.000 A 
ATOM     16  N   UNL     1      -0.026  11.030  18.985  0.00  0.00    +0.000 NA
ATOM     17  C   UNL     1      -0.088  10.595  20.254  0.00  0.00    +0.000 A 
ATOM     18  C   UNL     1      -0.909  11.275  21.138  0.00  0.00    +0.000 A 
ATOM     19  C   UNL     1      -1.015  10.885  22.470  0.00  0.00    +0.000 A 
ATOM     20 CL   UNL     1      -2.071  11.737  23.530  0.00  0.00    +0.000 Cl
ATOM     21  C   UNL     1      -0.283   9.807  22.950  0.00  0.00    +0.000 A 
ATOM     22  C   UNL     1       0.538   9.099  22.074  0.00  0.00    +0.000 A 
ATOM     23  C   UNL     1       0.636   9.471  20.714  0.00  0.00    +0.000 A 
ENDBRANCH  11  13
ENDBRANCH   3  11
BRANCH   6  24
ATOM     24  O   UNL     1       4.369   4.035  16.467  0.00  0.00    +0.000 OA
ATOM     25  H   UNL     1       3.728   3.309  16.312  0.00  0.00    +0.000 HD
ENDBRANCH   6  24
BRANCH   5  26
ATOM     26  C   UNL     1       1.750   3.362  17.608  0.00  0.00    +0.000 C 
BRANCH  26  27
ATOM     27  N   UNL     1       1.760   2.339  18.690  0.00  0.00    +0.000 NA
BRANCH  27  28
ATOM     28  C   UNL     1       3.104   2.100  19.273  0.00  0.00    +0.000 C 
ATOM     29  C   UNL     1       4.052   1.181  18.522  0.00  0.00    +0.000 C 
ENDBRANCH  27  28
BRANCH  27  30
ATOM     30  C   UNL     1       0.758   2.711  19.710  0.00  0.00    +0.000 C 
ATOM     31  C   UNL     1       1.317   2.793  21.128  0.00  0.00    +0.000 C 
ENDBRANCH  27  30
ENDBRANCH  26  27
ENDBRANCH   5  26
TORSDOF 9
ENDMDL
MODEL 7
REMARK VINA RESULT:      -7.7      1.964      4.532
REMARK  Name = 
REMARK  13 active torsions:
REMARK  status: ('A' for Active; 'I' for Inactive)
REMARK    1  A    between atoms: C_1  and  C_2
REMARK    2  A    between atoms: C_2  and  C_3
REMARK    3  A    between atoms: C_3  and  C_4
REMARK    4  A    between atoms: C_3  and  C_5
REMARK    5  A    between atoms: C_7  and  N_8
REMARK    6  A    between atoms: N_8  and  C_9
REMARK    7  A    between atoms: C_21  and  C_22
REMARK    8  A    between atoms: C_22  and  N_23
REMARK    9  A    between atoms: N_23  and  C_24
REMARK   10  A    between atoms: N_23  and  C_26
REMARK   11  A    between atoms: C_24  and  C_25
REMARK   12  A    between atoms: C_26  and  C_27
REMARK   13  A    between atoms: C_28  and  O_29
REMARK                            x       y       z     vdW  Elec       q    Type
REMARK                         _______ _______ _______ _____ _____    ______ ____
ROOT
ATOM      1  C   UNL     1       5.148   5.898  17.526  0.00  0.00    +0.000 A 
ATOM      2  C   UNL     1       4.330   7.020  17.765  0.00  0.00    +0.000 A 
ATOM      3  C   UNL     1       2.935   6.913  17.772  0.00  0.00    +0.000 A 
ATOM      4  C   UNL     1       2.367   5.632  17.712  0.00  0.00    +0.000 A 
ATOM      5  C   UNL     1       3.159   4.488  17.525  0.00  0.00    +0.000 A 
ATOM      6  C   UNL     1       4.532   4.661  17.303  0.00  0.00    +0.000 A 
ENDROOT
BRANCH   1   7
ATOM      7  C   UNL     1       6.660   5.969  17.704  0.00  0.00    +0.000 C 
ATOM      8  C   UNL     1       6.991   5.631  19.168  0.00  0.00    +0.000 C 
BRANCH   7  10
ATOM      9  C   UNL     1       8.244   7.849  18.382  0.00  0.00    +0.000 C 
ATOM     10  C   UNL     1       7.309   7.305  17.311  0.00  0.00    +0.000 C 
ENDBRANCH   7  10
ENDBRANCH   1   7
BRANCH   3  11
ATOM     11  N   UNL     1       2.126   8.056  18.000  0.00  0.00    +0.000 N 
ATOM     12  H   UNL     1       1.393   8.137  17.298  0.00  0.00    +0.000 HD
BRANCH  11  13
ATOM     13  C   UNL     1       1.600   8.433  19.273  0.00  0.00    +0.000 A 
ATOM     14  C   UNL     1       1.934   7.700  20.414  0.00  0.00    +0.000 A 
ATOM     15  C   UNL     1       1.410   8.093  21.627  0.00  0.00    +0.000 A 
ATOM     16  N   UNL     1       0.575   9.138  21.777  0.00  0.00    +0.000 NA
ATOM     17  C   UNL     1       0.209   9.821  20.680  0.00  0.00    +0.000 A 
ATOM     18  C   UNL     1      -0.644  10.900  20.838  0.00  0.00    +0.000 A 
ATOM     19  C   UNL     1      -1.072  11.648  19.744  0.00  0.00    +0.000 A 
ATOM     20 CL   UNL     1      -2.108  13.002  19.986  0.00  0.00    +0.000 Cl
ATOM     21  C   UNL     1      -0.661  11.317  18.460  0.00  0.00    +0.000 A 
ATOM     22  C   UNL     1       0.210  10.244  18.280  0.00  0.00    +0.000 A 
ATOM     23  C   UNL     1       0.669   9.492  19.384  0.00  0.00    +0.000 A 
ENDBRANCH  11  13
ENDBRANCH   3  11
BRANCH   6  24
ATOM     24  O   UNL     1       5.319   3.590  16.967  0.00  0.00    +0.000 OA
ATOM     25  H   UNL     1       4.765   2.785  17.050  0.00  0.00    +0.000 HD
ENDBRANCH   6  24
BRANCH   5  26
ATOM     26  C   UNL     1       2.502   3.126  17.649  0.00  0.00    +0.000 C 
BRANCH  26  27
ATOM     27  N   UNL     1       2.345   2.634  19.045  0.00  0.00    +0.000 NA
BRANCH  27  28
ATOM     28  C   UNL     1       3.426   3.080  19.960  0.00  0.00    +0.000 C 
ATOM     29  C   UNL     1       4.599   2.141  20.185  0.00  0.00    +0.000 C 
ENDBRANCH  27  28
BRANCH  27  30
ATOM     30  C   UNL     1       1.000   3.004  19.534  0.00  0.00    +0.000 C 
ATOM     31  C   UNL     1       1.013   4.017  20.677  0.00  0.00    +0.000 C 
ENDBRANCH  27  30
ENDBRANCH  26  27
ENDBRANCH   5  26
TORSDOF 9
ENDMDL
MODEL 8
REMARK VINA RESULT:      -7.7      1.952      2.633
REMARK  Name = 
REMARK  13 active torsions:
REMARK  status: ('A' for Active; 'I' for Inactive)
REMARK    1  A    between atoms: C_1  and  C_2
REMARK    2  A    between atoms: C_2  and  C_3
REMARK    3  A    between atoms: C_3  and  C_4
REMARK    4  A    between atoms: C_3  and  C_5
REMARK    5  A    between atoms: C_7  and  N_8
REMARK    6  A    between atoms: N_8  and  C_9
REMARK    7  A    between atoms: C_21  and  C_22
REMARK    8  A    between atoms: C_22  and  N_23
REMARK    9  A    between atoms: N_23  and  C_24
REMARK   10  A    between atoms: N_23  and  C_26
REMARK   11  A    between atoms: C_24  and  C_25
REMARK   12  A    between atoms: C_26  and  C_27
REMARK   13  A    between atoms: C_28  and  O_29
REMARK                            x       y       z     vdW  Elec       q    Type
REMARK                         _______ _______ _______ _____ _____    ______ ____
ROOT
ATOM      1  C   UNL     1       2.497   5.408  18.857  0.00  0.00    +0.000 A 
ATOM      2  C   UNL     1       1.710   6.534  18.546  0.00  0.00    +0.000 A 
ATOM      3  C   UNL     1       2.275   7.679  17.972  0.00  0.00    +0.000 A 
ATOM      4  C   UNL     1       3.610   7.618  17.548  0.00  0.00    +0.000 A 
ATOM      5  C   UNL     1       4.407   6.489  17.797  0.00  0.00    +0.000 A 
ATOM      6  C   UNL     1       3.866   5.453  18.568  0.00  0.00    +0.000 A 
ENDROOT
BRANCH   1   7
ATOM      7  C   UNL     1       1.861   4.096  19.302  0.00  0.00    +0.000 C 
ATOM      8  C   UNL     1       0.983   3.570  18.154  0.00  0.00    +0.000 C 
BRANCH   7  10
ATOM      9  C   UNL     1       1.378   3.049  21.577  0.00  0.00    +0.000 C 
ATOM     10  C   UNL     1       1.043   4.168  20.602  0.00  0.00    +0.000 C 
ENDBRANCH   7  10
ENDBRANCH   1   7
BRANCH   3  11
ATOM     11  N   UNL     1       1.471   8.810  17.679  0.00  0.00    +0.000 N 
ATOM     12  H   UNL     1       0.837   8.622  16.904  0.00  0.00    +0.000 HD
BRANCH  11  13
ATOM     13  C   UNL     1       0.795   9.599  18.658  0.00  0.00    +0.000 A 
ATOM     14  C   UNL     1       1.389   9.834  19.900  0.00  0.00    +0.000 A 
ATOM     15  C   UNL     1       0.710  10.600  20.822  0.00  0.00    +0.000 A 
ATOM     16  N   UNL     1      -0.510  11.126  20.603  0.00  0.00    +0.000 NA
ATOM     17  C   UNL     1      -1.112  10.866  19.430  0.00  0.00    +0.000 A 
ATOM     18  C   UNL     1      -2.364  11.414  19.205  0.00  0.00    +0.000 A 
ATOM     19  C   UNL     1      -3.050  11.180  18.016  0.00  0.00    +0.000 A 
ATOM     20 CL   UNL     1      -4.591  11.904  17.761  0.00  0.00    +0.000 Cl
ATOM     21  C   UNL     1      -2.497  10.375  17.030  0.00  0.00    +0.000 A 
ATOM     22  C   UNL     1      -1.232   9.826  17.230  0.00  0.00    +0.000 A 
ATOM     23  C   UNL     1      -0.516  10.075  18.422  0.00  0.00    +0.000 A 
ENDBRANCH  11  13
ENDBRANCH   3  11
BRANCH   6  24
ATOM     24  O   UNL     1       4.652   4.402  18.964  0.00  0.00    +0.000 OA
ATOM     25  H   UNL     1       4.395   4.177  19.884  0.00  0.00    +0.000 HD
ENDBRANCH   6  24
BRANCH   5  26
ATOM     26  C   UNL     1       5.781   6.420  17.156  0.00  0.00    +0.000 C 
BRANCH  26  27
ATOM     27  N   UNL     1       6.064   5.154  16.425  0.00  0.00    +0.000 NA
BRANCH  27  28
ATOM     28  C   UNL     1       5.848   5.251  14.959  0.00  0.00    +0.000 C 
ATOM     29  C   UNL     1       6.805   4.500  14.049  0.00  0.00    +0.000 C 
ENDBRANCH  27  28
BRANCH  27  30
ATOM     30  C   UNL     1       7.428   4.699  16.767  0.00  0.00    +0.000 C 
ATOM     31  C   UNL     1       7.837   4.995  18.208  0.00  0.00    +0.000 C 
ENDBRANCH  27  30
ENDBRANCH  26  27
ENDBRANCH   5  26
TORSDOF 9
ENDMDL
MODEL 9
REMARK VINA RESULT:      -7.6      1.850      2.531
REMARK  Name = 
REMARK  13 active torsions:
REMARK  status: ('A' for Active; 'I' for Inactive)
REMARK    1  A    between atoms: C_1  and  C_2
REMARK    2  A    between atoms: C_2  and  C_3
REMARK    3  A    between atoms: C_3  and  C_4
REMARK    4  A    between atoms: C_3  and  C_5
REMARK    5  A    between atoms: C_7  and  N_8
REMARK    6  A    between atoms: N_8  and  C_9
REMARK    7  A    between atoms: C_21  and  C_22
REMARK    8  A    between atoms: C_22  and  N_23
REMARK    9  A    between atoms: N_23  and  C_24
REMARK   10  A    between atoms: N_23  and  C_26
REMARK   11  A    between atoms: C_24  and  C_25
REMARK   12  A    between atoms: C_26  and  C_27
REMARK   13  A    between atoms: C_28  and  O_29
REMARK                            x       y       z     vdW  Elec       q    Type
REMARK                         _______ _______ _______ _____ _____    ______ ____
ROOT
ATOM      1  C   UNL     1       3.168   3.945  19.252  0.00  0.00    +0.000 A 
ATOM      2  C   UNL     1       2.398   5.103  19.025  0.00  0.00    +0.000 A 
ATOM      3  C   UNL     1       2.996   6.365  18.930  0.00  0.00    +0.000 A 
ATOM      4  C   UNL     1       4.395   6.435  18.887  0.00  0.00    +0.000 A 
ATOM      5  C   UNL     1       5.192   5.291  19.059  0.00  0.00    +0.000 A 
ATOM      6  C   UNL     1       4.556   4.082  19.371  0.00  0.00    +0.000 A 
ENDROOT
BRANCH   1   7
ATOM      7  C   UNL     1       2.550   2.554  19.167  0.00  0.00    +0.000 C 
ATOM      8  C   UNL     1       2.306   2.222  17.685  0.00  0.00    +0.000 C 
BRANCH   7  10
ATOM      9  C   UNL     1       1.424   2.664  21.453  0.00  0.00    +0.000 C 
ATOM     10  C   UNL     1       1.255   2.358  19.972  0.00  0.00    +0.000 C 
ENDBRANCH   7  10
ENDBRANCH   1   7
BRANCH   3  11
ATOM     11  N   UNL     1       2.204   7.522  18.715  0.00  0.00    +0.000 N 
ATOM     12  H   UNL     1       1.442   7.334  18.066  0.00  0.00    +0.000 HD
BRANCH  11  13
ATOM     13  C   UNL     1       1.738   8.388  19.750  0.00  0.00    +0.000 A 
ATOM     14  C   UNL     1       1.382   7.863  20.994  0.00  0.00    +0.000 A 
ATOM     15  C   UNL     1       0.938   8.727  21.972  0.00  0.00    +0.000 A 
ATOM     16  N   UNL     1       0.808  10.054  21.793  0.00  0.00    +0.000 NA
ATOM     17  C   UNL     1       1.102  10.564  20.586  0.00  0.00    +0.000 A 
ATOM     18  C   UNL     1       0.974  11.931  20.406  0.00  0.00    +0.000 A 
ATOM     19  C   UNL     1       1.253  12.527  19.179  0.00  0.00    +0.000 A 
ATOM     20 CL   UNL     1       1.113  14.234  19.006  0.00  0.00    +0.000 Cl
ATOM     21  C   UNL     1       1.654  11.757  18.096  0.00  0.00    +0.000 A 
ATOM     22  C   UNL     1       1.804  10.381  18.259  0.00  0.00    +0.000 A 
ATOM     23  C   UNL     1       1.546   9.768  19.505  0.00  0.00    +0.000 A 
ENDBRANCH  11  13
ENDBRANCH   3  11
BRANCH   6  24
ATOM     24  O   UNL     1       5.296   2.974  19.696  0.00  0.00    +0.000 OA
ATOM     25  H   UNL     1       5.370   2.427  18.885  0.00  0.00    +0.000 HD
ENDBRANCH   6  24
BRANCH   5  26
ATOM     26  C   UNL     1       6.686   5.409  18.825  0.00  0.00    +0.000 C 
BRANCH  26  27
ATOM     27  N   UNL     1       7.102   5.321  17.398  0.00  0.00    +0.000 NA
BRANCH  27  28
ATOM     28  C   UNL     1       6.238   4.433  16.578  0.00  0.00    +0.000 C 
ATOM     29  C   UNL     1       5.521   5.044  15.386  0.00  0.00    +0.000 C 
ENDBRANCH  27  28
BRANCH  27  30
ATOM     30  C   UNL     1       7.198   6.687  16.843  0.00  0.00    +0.000 C 
ATOM     31  C   UNL     1       7.793   7.708  17.809  0.00  0.00    +0.000 C 
ENDBRANCH  27  30
ENDBRANCH  26  27
ENDBRANCH   5  26
TORSDOF 9
ENDMDL
