MODEL 1
REMARK VINA RESULT:      -8.2      0.000      0.000
REMARK  Name = 
REMARK  1 active torsions:
REMARK  status: ('A' for Active; 'I' for Inactive)
REMARK    1  A    between atoms: C_8  and  C_9
REMARK                            x       y       z     vdW  Elec       q    Type
REMARK                         _______ _______ _______ _____ _____    ______ ____
ROOT
ATOM      1  O   UNL     1      -1.427  13.143  21.774  0.00  0.00    +0.000 OA
ATOM      2  C   UNL     1      -1.055  11.975  21.871  0.00  0.00    +0.000 C 
ATOM      3  C   UNL     1      -1.475  11.117  23.044  0.00  0.00    +0.000 C 
ATOM      4  C   UNL     1      -0.440  10.040  23.324  0.00  0.00    +0.000 C 
ATOM      5  C   UNL     1      -0.197   9.185  22.084  0.00  0.00    +0.000 C 
ATOM      6  C   UNL     1       0.045  10.030  20.864  0.00  0.00    +0.000 C 
ATOM      7  C   UNL     1      -0.267  11.334  20.783  0.00  0.00    +0.000 C 
ATOM      8  C   UNL     1       0.151  12.161  19.591  0.00  0.00    +0.000 C 
ATOM      9  N   UNL     1       0.761  11.406  18.461  0.00  0.00    +0.000 NA
ATOM     10  C   UNL     1       1.017  10.152  18.658  0.00  0.00    +0.000 C 
ATOM     11  N   UNL     1       1.721   9.477  17.708  0.00  0.00    +0.000 N 
ATOM     12  C   UNL     1       2.414   8.344  17.869  0.00  0.00    +0.000 A 
ATOM     13  N   UNL     1       2.314   7.440  18.827  0.00  0.00    +0.000 NA
ATOM     14  C   UNL     1       3.325   6.560  18.551  0.00  0.00    +0.000 A 
ATOM     15  C   UNL     1       3.731   5.395  19.211  0.00  0.00    +0.000 A 
ATOM     16  C   UNL     1       4.828   4.693  18.691  0.00  0.00    +0.000 A 
ATOM     17  C   UNL     1       5.505   5.149  17.551  0.00  0.00    +0.000 A 
ATOM     18  C   UNL     1       5.109   6.315  16.882  0.00  0.00    +0.000 A 
ATOM     19  C   UNL     1       4.012   6.972  17.421  0.00  0.00    +0.000 A 
ATOM     20  O   UNL     1       3.416   8.113  16.965  0.00  0.00    +0.000 OA
ATOM     21  N   UNL     1       0.682   9.459  19.790  0.00  0.00    +0.000 N 
ATOM     22  H   UNL     1       1.998  10.073  16.939  0.00  0.00    +0.000 HD
ATOM     23  H   UNL     1       1.031   8.506  19.884  0.00  0.00    +0.000 HD
ENDROOT
BRANCH   8  24
ATOM     24  C   UNL     1       1.093  13.303  19.968  0.00  0.00    +0.000 A 
ATOM     25  C   UNL     1       2.225  13.000  20.746  0.00  0.00    +0.000 A 
ATOM     26  C   UNL     1       3.102  14.014  21.105  0.00  0.00    +0.000 A 
ATOM     27  N   UNL     1       2.940  15.305  20.757  0.00  0.00    +0.000 NA
ATOM     28  C   UNL     1       1.845  15.585  20.012  0.00  0.00    +0.000 A 
ATOM     29  C   UNL     1       0.905  14.644  19.600  0.00  0.00    +0.000 A 
ATOM     30 CL   UNL     1      -0.414  15.227  18.653  0.00  0.00    +0.000 Cl
ENDBRANCH   8  24
TORSDOF 1
ENDMDL
MODEL 2
REMARK VINA RESULT:      -7.2      1.551      2.103
REMARK  Name = 
REMARK  1 active torsions:
REMARK  status: ('A' for Active; 'I' for Inactive)
REMARK    1  A    between atoms: C_8  and  C_9
REMARK                            x       y       z     vdW  Elec       q    Type
REMARK                         _______ _______ _______ _____ _____    ______ ____
ROOT
ATOM      1  O   UNL     1      -1.658  15.643  21.037  0.00  0.00    +0.000 OA
ATOM      2  C   UNL     1      -1.489  14.469  21.364  0.00  0.00    +0.000 C 
ATOM      3  C   UNL     1      -2.054  13.932  22.660  0.00  0.00    +0.000 C 
ATOM      4  C   UNL     1      -1.217  12.771  23.174  0.00  0.00    +0.000 C 
ATOM      5  C   UNL     1      -1.118  11.667  22.125  0.00  0.00    +0.000 C 
ATOM      6  C   UNL     1      -0.730  12.213  20.778  0.00  0.00    +0.000 C 
ATOM      7  C   UNL     1      -0.816  13.512  20.444  0.00  0.00    +0.000 C 
ATOM      8  C   UNL     1      -0.259  14.016  19.135  0.00  0.00    +0.000 C 
ATOM      9  N   UNL     1       0.219  12.970  18.189  0.00  0.00    +0.000 NA
ATOM     10  C   UNL     1       0.258  11.752  18.625  0.00  0.00    +0.000 C 
ATOM     11  N   UNL     1       0.842  10.802  17.844  0.00  0.00    +0.000 N 
ATOM     12  C   UNL     1       1.333   9.621  18.238  0.00  0.00    +0.000 A 
ATOM     13  N   UNL     1       1.077   8.945  19.343  0.00  0.00    +0.000 NA
ATOM     14  C   UNL     1       1.925   7.874  19.273  0.00  0.00    +0.000 A 
ATOM     15  C   UNL     1       2.125   6.805  20.153  0.00  0.00    +0.000 A 
ATOM     16  C   UNL     1       3.089   5.845  19.814  0.00  0.00    +0.000 A 
ATOM     17  C   UNL     1       3.839   5.957  18.634  0.00  0.00    +0.000 A 
ATOM     18  C   UNL     1       3.649   7.024  17.746  0.00  0.00    +0.000 A 
ATOM     19  C   UNL     1       2.676   7.944  18.112  0.00  0.00    +0.000 A 
ATOM     20  O   UNL     1       2.284   9.060  17.430  0.00  0.00    +0.000 OA
ATOM     21  N   UNL     1      -0.195  11.351  19.853  0.00  0.00    +0.000 N 
ATOM     22  H   UNL     1       1.219  11.186  16.988  0.00  0.00    +0.000 HD
ATOM     23  H   UNL     1      -0.012  10.390  20.136  0.00  0.00    +0.000 HD
ENDROOT
BRANCH   8  24
ATOM     24  C   UNL     1       0.861  15.038  19.326  0.00  0.00    +0.000 A 
ATOM     25  C   UNL     1       1.989  14.653  20.074  0.00  0.00    +0.000 A 
ATOM     26  C   UNL     1       3.026  15.555  20.266  0.00  0.00    +0.000 A 
ATOM     27  N   UNL     1       3.027  16.812  19.779  0.00  0.00    +0.000 NA
ATOM     28  C   UNL     1       1.934  17.171  19.065  0.00  0.00    +0.000 A 
ATOM     29  C   UNL     1       0.843  16.344  18.815  0.00  0.00    +0.000 A 
ATOM     30 CL   UNL     1      -0.440  17.014  17.878  0.00  0.00    +0.000 Cl
ENDBRANCH   8  24
TORSDOF 1
ENDMDL
MODEL 3
REMARK VINA RESULT:      -7.2      4.002      8.651
REMARK  Name = 
REMARK  1 active torsions:
REMARK  status: ('A' for Active; 'I' for Inactive)
REMARK    1  A    between atoms: C_8  and  C_9
REMARK                            x       y       z     vdW  Elec       q    Type
REMARK                         _______ _______ _______ _____ _____    ______ ____
ROOT
ATOM      1  O   UNL     1       2.130  12.426  18.492  0.00  0.00    +0.000 OA
ATOM      2  C   UNL     1       1.366  13.225  19.031  0.00  0.00    +0.000 C 
ATOM      3  C   UNL     1       1.807  14.640  19.336  0.00  0.00    +0.000 C 
ATOM      4  C   UNL     1       1.043  15.199  20.526  0.00  0.00    +0.000 C 
ATOM      5  C   UNL     1      -0.462  15.138  20.282  0.00  0.00    +0.000 C 
ATOM      6  C   UNL     1      -0.893  13.780  19.802  0.00  0.00    +0.000 C 
ATOM      7  C   UNL     1      -0.051  12.859  19.304  0.00  0.00    +0.000 C 
ATOM      8  C   UNL     1      -0.523  11.460  18.993  0.00  0.00    +0.000 C 
ATOM      9  N   UNL     1      -1.991  11.232  19.106  0.00  0.00    +0.000 NA
ATOM     10  C   UNL     1      -2.701  12.193  19.603  0.00  0.00    +0.000 C 
ATOM     11  N   UNL     1      -4.015  11.956  19.872  0.00  0.00    +0.000 N 
ATOM     12  C   UNL     1      -4.803  12.634  20.715  0.00  0.00    +0.000 A 
ATOM     13  N   UNL     1      -4.639  13.849  21.206  0.00  0.00    +0.000 NA
ATOM     14  C   UNL     1      -5.678  13.987  22.086  0.00  0.00    +0.000 A 
ATOM     15  C   UNL     1      -6.039  15.054  22.917  0.00  0.00    +0.000 A 
ATOM     16  C   UNL     1      -7.169  14.898  23.733  0.00  0.00    +0.000 A 
ATOM     17  C   UNL     1      -7.909  13.707  23.725  0.00  0.00    +0.000 A 
ATOM     18  C   UNL     1      -7.557  12.632  22.900  0.00  0.00    +0.000 A 
ATOM     19  C   UNL     1      -6.441  12.832  22.098  0.00  0.00    +0.000 A 
ATOM     20  O   UNL     1      -5.891  11.961  21.201  0.00  0.00    +0.000 OA
ATOM     21  N   UNL     1      -2.214  13.427  19.939  0.00  0.00    +0.000 N 
ATOM     22  H   UNL     1      -4.283  11.003  19.668  0.00  0.00    +0.000 HD
ATOM     23  H   UNL     1      -2.838  14.069  20.425  0.00  0.00    +0.000 HD
ENDROOT
BRANCH   8  24
ATOM     24  C   UNL     1       0.193  10.398  19.825  0.00  0.00    +0.000 A 
ATOM     25  C   UNL     1       0.038  10.435  21.223  0.00  0.00    +0.000 A 
ATOM     26  C   UNL     1       0.673   9.484  22.010  0.00  0.00    +0.000 A 
ATOM     27  N   UNL     1       1.455   8.504  21.517  0.00  0.00    +0.000 NA
ATOM     28  C   UNL     1       1.600   8.482  20.171  0.00  0.00    +0.000 A 
ATOM     29  C   UNL     1       1.007   9.387  19.295  0.00  0.00    +0.000 A 
ATOM     30 CL   UNL     1       1.330   9.166  17.615  0.00  0.00    +0.000 Cl
ENDBRANCH   8  24
TORSDOF 1
ENDMDL
MODEL 4
REMARK VINA RESULT:      -7.2      1.202      1.534
REMARK  Name = 
REMARK  1 active torsions:
REMARK  status: ('A' for Active; 'I' for Inactive)
REMARK    1  A    between atoms: C_8  and  C_9
REMARK                            x       y       z     vdW  Elec       q    Type
REMARK                         _______ _______ _______ _____ _____    ______ ____
ROOT
ATOM      1  O   UNL     1      -2.257  13.418  21.452  0.00  0.00    +0.000 OA
ATOM      2  C   UNL     1      -1.754  12.317  21.668  0.00  0.00    +0.000 C 
ATOM      3  C   UNL     1      -2.016  11.580  22.964  0.00  0.00    +0.000 C 
ATOM      4  C   UNL     1      -0.856  10.660  23.307  0.00  0.00    +0.000 C 
ATOM      5  C   UNL     1      -0.585   9.680  22.169  0.00  0.00    +0.000 C 
ATOM      6  C   UNL     1      -0.501  10.380  20.841  0.00  0.00    +0.000 C 
ATOM      7  C   UNL     1      -0.957  11.624  20.619  0.00  0.00    +0.000 C 
ATOM      8  C   UNL     1      -0.695  12.327  19.310  0.00  0.00    +0.000 C 
ATOM      9  N   UNL     1      -0.065  11.498  18.244  0.00  0.00    +0.000 NA
ATOM     10  C   UNL     1       0.337  10.313  18.578  0.00  0.00    +0.000 C 
ATOM     11  N   UNL     1       1.061   9.596  17.675  0.00  0.00    +0.000 N 
ATOM     12  C   UNL     1       1.882   8.570  17.929  0.00  0.00    +0.000 A 
ATOM     13  N   UNL     1       1.931   7.793  18.996  0.00  0.00    +0.000 NA
ATOM     14  C   UNL     1       3.017   6.993  18.766  0.00  0.00    +0.000 A 
ATOM     15  C   UNL     1       3.582   5.971  19.537  0.00  0.00    +0.000 A 
ATOM     16  C   UNL     1       4.721   5.324  19.038  0.00  0.00    +0.000 A 
ATOM     17  C   UNL     1       5.284   5.694  17.808  0.00  0.00    +0.000 A 
ATOM     18  C   UNL     1       4.729   6.716  17.027  0.00  0.00    +0.000 A 
ATOM     19  C   UNL     1       3.595   7.322  17.551  0.00  0.00    +0.000 A 
ATOM     20  O   UNL     1       2.855   8.327  16.997  0.00  0.00    +0.000 OA
ATOM     21  N   UNL     1       0.139   9.742  19.806  0.00  0.00    +0.000 N 
ATOM     22  H   UNL     1       1.231  10.111  16.822  0.00  0.00    +0.000 HD
ATOM     23  H   UNL     1       0.595   8.851  19.995  0.00  0.00    +0.000 HD
ENDROOT
BRANCH   8  24
ATOM     24  C   UNL     1       0.134  13.599  19.479  0.00  0.00    +0.000 A 
ATOM     25  C   UNL     1      -0.340  14.783  18.886  0.00  0.00    +0.000 A 
ATOM     26  C   UNL     1       0.387  15.957  19.022  0.00  0.00    +0.000 A 
ATOM     27  N   UNL     1       1.552  16.046  19.694  0.00  0.00    +0.000 NA
ATOM     28  C   UNL     1       2.000  14.898  20.255  0.00  0.00    +0.000 A 
ATOM     29  C   UNL     1       1.348  13.671  20.179  0.00  0.00    +0.000 A 
ATOM     30 CL   UNL     1       2.103  12.339  20.974  0.00  0.00    +0.000 Cl
ENDBRANCH   8  24
TORSDOF 1
ENDMDL
MODEL 5
REMARK VINA RESULT:      -7.0      4.252      7.800
REMARK  Name = 
REMARK  1 active torsions:
REMARK  status: ('A' for Active; 'I' for Inactive)
REMARK    1  A    between atoms: C_8  and  C_9
REMARK                            x       y       z     vdW  Elec       q    Type
REMARK                         _______ _______ _______ _____ _____    ______ ____
ROOT
ATOM      1  O   UNL     1      -3.417  11.591  23.932  0.00  0.00    +0.000 OA
ATOM      2  C   UNL     1      -3.582  12.524  23.148  0.00  0.00    +0.000 C 
ATOM      3  C   UNL     1      -4.966  13.055  22.847  0.00  0.00    +0.000 C 
ATOM      4  C   UNL     1      -5.020  13.668  21.458  0.00  0.00    +0.000 C 
ATOM      5  C   UNL     1      -3.971  14.768  21.309  0.00  0.00    +0.000 C 
ATOM      6  C   UNL     1      -2.617  14.311  21.776  0.00  0.00    +0.000 C 
ATOM      7  C   UNL     1      -2.416  13.232  22.551  0.00  0.00    +0.000 C 
ATOM      8  C   UNL     1      -1.022  12.736  22.848  0.00  0.00    +0.000 C 
ATOM      9  N   UNL     1       0.089  13.610  22.380  0.00  0.00    +0.000 NA
ATOM     10  C   UNL     1      -0.227  14.621  21.636  0.00  0.00    +0.000 C 
ATOM     11  N   UNL     1       0.775  15.341  21.059  0.00  0.00    +0.000 N 
ATOM     12  C   UNL     1       0.685  16.135  19.986  0.00  0.00    +0.000 A 
ATOM     13  N   UNL     1      -0.390  16.688  19.452  0.00  0.00    +0.000 NA
ATOM     14  C   UNL     1       0.086  17.301  18.326  0.00  0.00    +0.000 A 
ATOM     15  C   UNL     1      -0.572  18.047  17.342  0.00  0.00    +0.000 A 
ATOM     16  C   UNL     1       0.191  18.551  16.279  0.00  0.00    +0.000 A 
ATOM     17  C   UNL     1       1.569  18.307  16.197  0.00  0.00    +0.000 A 
ATOM     18  C   UNL     1       2.239  17.560  17.174  0.00  0.00    +0.000 A 
ATOM     19  C   UNL     1       1.450  17.091  18.216  0.00  0.00    +0.000 A 
ATOM     20  O   UNL     1       1.846  16.355  19.296  0.00  0.00    +0.000 OA
ATOM     21  N   UNL     1      -1.509  14.992  21.334  0.00  0.00    +0.000 N 
ATOM     22  H   UNL     1       1.689  14.962  21.267  0.00  0.00    +0.000 HD
ATOM     23  H   UNL     1      -1.640  15.736  20.650  0.00  0.00    +0.000 HD
ENDROOT
BRANCH   8  24
ATOM     24  C   UNL     1      -0.775  11.323  22.323  0.00  0.00    +0.000 A 
ATOM     25  C   UNL     1      -0.565  10.295  23.259  0.00  0.00    +0.000 A 
ATOM     26  C   UNL     1      -0.339   8.999  22.817  0.00  0.00    +0.000 A 
ATOM     27  N   UNL     1      -0.298   8.646  21.517  0.00  0.00    +0.000 NA
ATOM     28  C   UNL     1      -0.497   9.646  20.626  0.00  0.00    +0.000 A 
ATOM     29  C   UNL     1      -0.732  10.975  20.965  0.00  0.00    +0.000 A 
ATOM     30 CL   UNL     1      -0.960  12.081  19.660  0.00  0.00    +0.000 Cl
ENDBRANCH   8  24
TORSDOF 1
ENDMDL
MODEL 6
REMARK VINA RESULT:      -7.0      2.427      4.239
REMARK  Name = 
REMARK  1 active torsions:
REMARK  status: ('A' for Active; 'I' for Inactive)
REMARK    1  A    between atoms: C_8  and  C_9
REMARK                            x       y       z     vdW  Elec       q    Type
REMARK                         _______ _______ _______ _____ _____    ______ ____
ROOT
ATOM      1  O   UNL     1      -0.867  14.215  19.601  0.00  0.00    +0.000 OA
ATOM      2  C   UNL     1       0.179  13.726  19.180  0.00  0.00    +0.000 C 
ATOM      3  C   UNL     1       1.298  14.603  18.663  0.00  0.00    +0.000 C 
ATOM      4  C   UNL     1       2.132  13.864  17.630  0.00  0.00    +0.000 C 
ATOM      5  C   UNL     1       2.683  12.563  18.207  0.00  0.00    +0.000 C 
ATOM      6  C   UNL     1       1.610  11.758  18.887  0.00  0.00    +0.000 C 
ATOM      7  C   UNL     1       0.422  12.260  19.262  0.00  0.00    +0.000 C 
ATOM      8  C   UNL     1      -0.670  11.361  19.790  0.00  0.00    +0.000 C 
ATOM      9  N   UNL     1      -0.283   9.942  20.026  0.00  0.00    +0.000 NA
ATOM     10  C   UNL     1       0.890   9.574  19.619  0.00  0.00    +0.000 C 
ATOM     11  N   UNL     1       1.208   8.251  19.672  0.00  0.00    +0.000 N 
ATOM     12  C   UNL     1       2.156   7.619  18.970  0.00  0.00    +0.000 A 
ATOM     13  N   UNL     1       3.207   8.128  18.352  0.00  0.00    +0.000 NA
ATOM     14  C   UNL     1       3.764   7.052  17.717  0.00  0.00    +0.000 A 
ATOM     15  C   UNL     1       4.895   6.956  16.899  0.00  0.00    +0.000 A 
ATOM     16  C   UNL     1       5.220   5.697  16.372  0.00  0.00    +0.000 A 
ATOM     17  C   UNL     1       4.431   4.571  16.647  0.00  0.00    +0.000 A 
ATOM     18  C   UNL     1       3.295   4.655  17.463  0.00  0.00    +0.000 A 
ATOM     19  C   UNL     1       3.017   5.915  17.975  0.00  0.00    +0.000 A 
ATOM     20  O   UNL     1       1.988   6.272  18.799  0.00  0.00    +0.000 OA
ATOM     21  N   UNL     1       1.824  10.415  19.078  0.00  0.00    +0.000 N 
ATOM     22  H   UNL     1       0.443   7.684  20.012  0.00  0.00    +0.000 HD
ATOM     23  H   UNL     1       2.670   9.999  18.690  0.00  0.00    +0.000 HD
ENDROOT
BRANCH   8  24
ATOM     24  C   UNL     1      -1.921  11.377  18.914  0.00  0.00    +0.000 A 
ATOM     25  C   UNL     1      -1.824  10.857  17.610  0.00  0.00    +0.000 A 
ATOM     26  C   UNL     1      -2.942  10.854  16.787  0.00  0.00    +0.000 A 
ATOM     27  N   UNL     1      -4.146  11.334  17.155  0.00  0.00    +0.000 NA
ATOM     28  C   UNL     1      -4.225  11.836  18.410  0.00  0.00    +0.000 A 
ATOM     29  C   UNL     1      -3.166  11.884  19.313  0.00  0.00    +0.000 A 
ATOM     30 CL   UNL     1      -3.497  12.567  20.862  0.00  0.00    +0.000 Cl
ENDBRANCH   8  24
TORSDOF 1
ENDMDL
MODEL 7
REMARK VINA RESULT:      -7.0      3.703      8.563
REMARK  Name = 
REMARK  1 active torsions:
REMARK  status: ('A' for Active; 'I' for Inactive)
REMARK    1  A    between atoms: C_8  and  C_9
REMARK                            x       y       z     vdW  Elec       q    Type
REMARK                         _______ _______ _______ _____ _____    ______ ____
ROOT
ATOM      1  O   UNL     1       4.839   3.224  17.661  0.00  0.00    +0.000 OA
ATOM      2  C   UNL     1       5.114   4.421  17.593  0.00  0.00    +0.000 C 
ATOM      3  C   UNL     1       6.531   4.882  17.328  0.00  0.00    +0.000 C 
ATOM      4  C   UNL     1       6.773   6.256  17.930  0.00  0.00    +0.000 C 
ATOM      5  C   UNL     1       5.763   7.269  17.397  0.00  0.00    +0.000 C 
ATOM      6  C   UNL     1       4.355   6.749  17.488  0.00  0.00    +0.000 C 
ATOM      7  C   UNL     1       4.044   5.453  17.663  0.00  0.00    +0.000 C 
ATOM      8  C   UNL     1       2.619   5.022  17.908  0.00  0.00    +0.000 C 
ATOM      9  N   UNL     1       1.587   6.086  17.767  0.00  0.00    +0.000 NA
ATOM     10  C   UNL     1       2.008   7.299  17.603  0.00  0.00    +0.000 C 
ATOM     11  N   UNL     1       1.097   8.311  17.636  0.00  0.00    +0.000 N 
ATOM     12  C   UNL     1       1.335   9.605  17.880  0.00  0.00    +0.000 A 
ATOM     13  N   UNL     1       2.475  10.267  17.800  0.00  0.00    +0.000 NA
ATOM     14  C   UNL     1       2.159  11.517  18.259  0.00  0.00    +0.000 A 
ATOM     15  C   UNL     1       2.948  12.661  18.417  0.00  0.00    +0.000 A 
ATOM     16  C   UNL     1       2.337  13.815  18.929  0.00  0.00    +0.000 A 
ATOM     17  C   UNL     1       0.980  13.820  19.282  0.00  0.00    +0.000 A 
ATOM     18  C   UNL     1       0.180  12.681  19.130  0.00  0.00    +0.000 A 
ATOM     19  C   UNL     1       0.820  11.565  18.607  0.00  0.00    +0.000 A 
ATOM     20  O   UNL     1       0.278  10.338  18.347  0.00  0.00    +0.000 OA
ATOM     21  N   UNL     1       3.322   7.653  17.457  0.00  0.00    +0.000 N 
ATOM     22  H   UNL     1       0.160   7.980  17.823  0.00  0.00    +0.000 HD
ATOM     23  H   UNL     1       3.548   8.647  17.446  0.00  0.00    +0.000 HD
ENDROOT
BRANCH   8  24
ATOM     24  C   UNL     1       2.433   4.350  19.268  0.00  0.00    +0.000 A 
ATOM     25  C   UNL     1       2.652   5.121  20.424  0.00  0.00    +0.000 A 
ATOM     26  C   UNL     1       2.490   4.543  21.675  0.00  0.00    +0.000 A 
ATOM     27  N   UNL     1       2.135   3.258  21.868  0.00  0.00    +0.000 NA
ATOM     28  C   UNL     1       1.931   2.525  20.748  0.00  0.00    +0.000 A 
ATOM     29  C   UNL     1       2.066   3.008  19.449  0.00  0.00    +0.000 A 
ATOM     30 CL   UNL     1       1.754   1.894  18.170  0.00  0.00    +0.000 Cl
ENDBRANCH   8  24
TORSDOF 1
ENDMDL
MODEL 8
REMARK VINA RESULT:      -6.9      3.648      8.411
REMARK  Name = 
REMARK  1 active torsions:
REMARK  status: ('A' for Active; 'I' for Inactive)
REMARK    1  A    between atoms: C_8  and  C_9
REMARK                            x       y       z     vdW  Elec       q    Type
REMARK                         _______ _______ _______ _____ _____    ______ ____
ROOT
ATOM      1  O   UNL     1       2.560  12.581  18.170  0.00  0.00    +0.000 OA
ATOM      2  C   UNL     1       1.835  13.310  18.844  0.00  0.00    +0.000 C 
ATOM      3  C   UNL     1       2.349  14.616  19.408  0.00  0.00    +0.000 C 
ATOM      4  C   UNL     1       1.601  14.989  20.677  0.00  0.00    +0.000 C 
ATOM      5  C   UNL     1       0.098  15.062  20.419  0.00  0.00    +0.000 C 
ATOM      6  C   UNL     1      -0.401  13.844  19.693  0.00  0.00    +0.000 C 
ATOM      7  C   UNL     1       0.396  12.984  19.037  0.00  0.00    +0.000 C 
ATOM      8  C   UNL     1      -0.150  11.696  18.470  0.00  0.00    +0.000 C 
ATOM      9  N   UNL     1      -1.630  11.537  18.532  0.00  0.00    +0.000 NA
ATOM     10  C   UNL     1      -2.293  12.429  19.195  0.00  0.00    +0.000 C 
ATOM     11  N   UNL     1      -3.622  12.224  19.409  0.00  0.00    +0.000 N 
ATOM     12  C   UNL     1      -4.383  12.778  20.360  0.00  0.00    +0.000 A 
ATOM     13  N   UNL     1      -4.159  13.870  21.068  0.00  0.00    +0.000 NA
ATOM     14  C   UNL     1      -5.201  13.903  21.954  0.00  0.00    +0.000 A 
ATOM     15  C   UNL     1      -5.514  14.817  22.966  0.00  0.00    +0.000 A 
ATOM     16  C   UNL     1      -6.664  14.580  23.734  0.00  0.00    +0.000 A 
ATOM     17  C   UNL     1      -7.469  13.456  23.502  0.00  0.00    +0.000 A 
ATOM     18  C   UNL     1      -7.166  12.533  22.493  0.00  0.00    +0.000 A 
ATOM     19  C   UNL     1      -6.028  12.812  21.748  0.00  0.00    +0.000 A 
ATOM     20  O   UNL     1      -5.515  12.092  20.707  0.00  0.00    +0.000 OA
ATOM     21  N   UNL     1      -1.741  13.549  19.756  0.00  0.00    +0.000 N 
ATOM     22  H   UNL     1      -3.940  11.342  19.031  0.00  0.00    +0.000 HD
ATOM     23  H   UNL     1      -2.336  14.125  20.350  0.00  0.00    +0.000 HD
ENDROOT
BRANCH   8  24
ATOM     24  C   UNL     1       0.492  10.458  19.094  0.00  0.00    +0.000 A 
ATOM     25  C   UNL     1       1.185   9.573  18.249  0.00  0.00    +0.000 A 
ATOM     26  C   UNL     1       1.781   8.439  18.783  0.00  0.00    +0.000 A 
ATOM     27  N   UNL     1       1.737   8.112  20.089  0.00  0.00    +0.000 NA
ATOM     28  C   UNL     1       1.063   8.970  20.891  0.00  0.00    +0.000 A 
ATOM     29  C   UNL     1       0.431  10.132  20.457  0.00  0.00    +0.000 A 
ATOM     30 CL   UNL     1      -0.368  11.077  21.659  0.00  0.00    +0.000 Cl
ENDBRANCH   8  24
TORSDOF 1
ENDMDL
MODEL 9
REMARK VINA RESULT:      -6.9      1.552      1.954
REMARK  Name = 
REMARK  1 active torsions:
REMARK  status: ('A' for Active; 'I' for Inactive)
REMARK    1  A    between atoms: C_8  and  C_9
REMARK                            x       y       z     vdW  Elec       q    Type
REMARK                         _______ _______ _______ _____ _____    ______ ____
ROOT
ATOM      1  O   UNL     1      -1.224  11.392  21.116  0.00  0.00    +0.000 OA
ATOM      2  C   UNL     1      -0.446  10.476  21.375  0.00  0.00    +0.000 C 
ATOM      3  C   UNL     1      -0.363   9.894  22.770  0.00  0.00    +0.000 C 
ATOM      4  C   UNL     1       1.019   9.319  23.034  0.00  0.00    +0.000 C 
ATOM      5  C   UNL     1       1.381   8.271  21.985  0.00  0.00    +0.000 C 
ATOM      6  C   UNL     1       1.132   8.773  20.590  0.00  0.00    +0.000 C 
ATOM      7  C   UNL     1       0.363   9.837  20.302  0.00  0.00    +0.000 C 
ATOM      8  C   UNL     1       0.287  10.384  18.898  0.00  0.00    +0.000 C 
ATOM      9  N   UNL     1       0.966   9.573  17.849  0.00  0.00    +0.000 NA
ATOM     10  C   UNL     1       1.682   8.571  18.248  0.00  0.00    +0.000 C 
ATOM     11  N   UNL     1       2.444   7.912  17.332  0.00  0.00    +0.000 N 
ATOM     12  C   UNL     1       3.515   7.146  17.572  0.00  0.00    +0.000 A 
ATOM     13  N   UNL     1       3.880   6.563  18.699  0.00  0.00    +0.000 NA
ATOM     14  C   UNL     1       5.091   6.003  18.398  0.00  0.00    +0.000 A 
ATOM     15  C   UNL     1       5.976   5.258  19.185  0.00  0.00    +0.000 A 
ATOM     16  C   UNL     1       7.170   4.818  18.594  0.00  0.00    +0.000 A 
ATOM     17  C   UNL     1       7.474   5.125  17.260  0.00  0.00    +0.000 A 
ATOM     18  C   UNL     1       6.597   5.871  16.463  0.00  0.00    +0.000 A 
ATOM     19  C   UNL     1       5.421   6.275  17.081  0.00  0.00    +0.000 A 
ATOM     20  O   UNL     1       4.397   6.997  16.537  0.00  0.00    +0.000 OA
ATOM     21  N   UNL     1       1.778   8.153  19.548  0.00  0.00    +0.000 N 
ATOM     22  H   UNL     1       2.379   8.324  16.411  0.00  0.00    +0.000 HD
ATOM     23  H   UNL     1       2.456   7.424  19.764  0.00  0.00    +0.000 HD
ENDROOT
BRANCH   8  24
ATOM     24  C   UNL     1       0.796  11.821  18.797  0.00  0.00    +0.000 A 
ATOM     25  C   UNL     1       2.178  12.046  18.928  0.00  0.00    +0.000 A 
ATOM     26  C   UNL     1       2.675  13.338  18.840  0.00  0.00    +0.000 A 
ATOM     27  N   UNL     1       1.906  14.426  18.640  0.00  0.00    +0.000 NA
ATOM     28  C   UNL     1       0.577  14.197  18.520  0.00  0.00    +0.000 A 
ATOM     29  C   UNL     1      -0.022  12.942  18.592  0.00  0.00    +0.000 A 
ATOM     30 CL   UNL     1      -1.736  12.888  18.410  0.00  0.00    +0.000 Cl
ENDBRANCH   8  24
TORSDOF 1
ENDMDL
