MODEL 1
REMARK VINA RESULT:      -7.3      0.000      0.000
REMARK  Name = 
REMARK  12 active torsions:
REMARK  status: ('A' for Active; 'I' for Inactive)
REMARK    1  A    between atoms: C_1  and  O_2
REMARK    2  A    between atoms: O_2  and  C_3
REMARK    3  A    between atoms: C_6  and  C_7
REMARK    4  A    between atoms: C_7  and  C_8
REMARK    5  A    between atoms: C_8  and  C_9
REMARK    6  A    between atoms: C_19  and  O_21
REMARK    7  A    between atoms: O_21  and  C_22
REMARK    8  A    between atoms: C_22  and  C_23
REMARK    9  A    between atoms: C_22  and  C_24
REMARK   10  A    between atoms: C_22  and  C_25
REMARK   11  A    between atoms: C_29  and  O_30
REMARK   12  A    between atoms: O_30  and  C_31
REMARK                            x       y       z     vdW  Elec       q    Type
REMARK                         _______ _______ _______ _____ _____    ______ ____
ROOT
ATOM      1  C   UNL     1       0.349  10.555  19.419  0.00  0.00    +0.000 C 
ATOM      2  C   UNL     1      -0.552  10.275  20.646  0.00  0.00    +0.000 C 
ATOM      3  C   UNL     1      -0.651  11.586  21.372  0.00  0.00    +0.000 C 
ATOM      4  N   UNL     1       0.595  12.242  21.109  0.00  0.00    +0.000 N 
ATOM      5  C   UNL     1       0.868  13.407  21.805  0.00  0.00    +0.000 C 
ATOM      6  O   UNL     1       0.077  13.841  22.648  0.00  0.00    +0.000 OA
ATOM      7  C   UNL     1       1.236  11.700  19.982  0.00  0.00    +0.000 C 
ATOM      8  O   UNL     1       2.275  12.102  19.471  0.00  0.00    +0.000 OA
ENDROOT
BRANCH   1  12
ATOM      9  C   UNL     1       2.992   7.253  18.357  0.00  0.00    +0.000 A 
ATOM     10  C   UNL     1       2.647   8.243  17.420  0.00  0.00    +0.000 A 
ATOM     11  C   UNL     1       1.791   9.289  17.753  0.00  0.00    +0.000 A 
ATOM     12  C   UNL     1       1.178   9.331  19.006  0.00  0.00    +0.000 A 
ATOM     13  C   UNL     1       1.362   8.212  19.841  0.00  0.00    +0.000 A 
ATOM     14  C   UNL     1       2.277   7.186  19.551  0.00  0.00    +0.000 A 
BRANCH   9  16
ATOM     15  C   UNL     1       4.723   6.701  16.890  0.00  0.00    +0.000 C 
ATOM     16  O   UNL     1       4.018   6.387  18.099  0.00  0.00    +0.000 OA
ENDBRANCH   9  16
BRANCH  14  17
ATOM     17  O   UNL     1       2.303   6.250  20.543  0.00  0.00    +0.000 OA
BRANCH  17  18
ATOM     18  C   UNL     1       1.437   5.121  20.572  0.00  0.00    +0.000 C 
ATOM     19  C   UNL     1       1.371   4.422  19.220  0.00  0.00    +0.000 C 
ATOM     20  C   UNL     1       1.209   2.940  19.519  0.00  0.00    +0.000 C 
ATOM     21  C   UNL     1       1.810   2.706  20.896  0.00  0.00    +0.000 C 
ATOM     22  C   UNL     1       2.098   4.078  21.488  0.00  0.00    +0.000 C 
ENDBRANCH  17  18
ENDBRANCH  14  17
ENDBRANCH   1  12
BRANCH   1  23
ATOM     23  C   UNL     1      -0.425  11.178  18.217  0.00  0.00    +0.000 C 
BRANCH  23  24
ATOM     24  C   UNL     1      -1.930  11.009  18.247  0.00  0.00    +0.000 A 
ATOM     25  C   UNL     1      -2.527   9.877  17.687  0.00  0.00    +0.000 A 
ATOM     26  C   UNL     1      -3.916   9.771  17.650  0.00  0.00    +0.000 A 
ATOM     27  N   UNL     1      -4.734  10.758  18.173  0.00  0.00    +0.000 N 
ATOM     28  O   UNL     1      -5.996  10.650  18.115  0.00  0.00    +0.000 OA
ATOM     29  C   UNL     1      -4.139  11.855  18.763  0.00  0.00    +0.000 A 
ATOM     30  C   UNL     1      -2.752  11.989  18.814  0.00  0.00    +0.000 A 
ENDBRANCH  23  24
ENDBRANCH   1  23
BRANCH   5  31
ATOM     31  O   UNL     1       2.012  14.045  21.445  0.00  0.00    +0.000 OA
BRANCH  31  32
ATOM     32  C   UNL     1       1.930  15.361  20.827  0.00  0.00    +0.000 C 
ATOM     33  C   UNL     1       1.637  16.459  21.859  0.00  0.00    +0.000 C 
ATOM     34  C   UNL     1       3.313  15.634  20.216  0.00  0.00    +0.000 C 
ATOM     35  C   UNL     1       0.903  15.357  19.686  0.00  0.00    +0.000 C 
ENDBRANCH  31  32
ENDBRANCH   5  31
TORSDOF 8
ENDMDL
MODEL 2
REMARK VINA RESULT:      -7.2      0.417      1.146
REMARK  Name = 
REMARK  12 active torsions:
REMARK  status: ('A' for Active; 'I' for Inactive)
REMARK    1  A    between atoms: C_1  and  O_2
REMARK    2  A    between atoms: O_2  and  C_3
REMARK    3  A    between atoms: C_6  and  C_7
REMARK    4  A    between atoms: C_7  and  C_8
REMARK    5  A    between atoms: C_8  and  C_9
REMARK    6  A    between atoms: C_19  and  O_21
REMARK    7  A    between atoms: O_21  and  C_22
REMARK    8  A    between atoms: C_22  and  C_23
REMARK    9  A    between atoms: C_22  and  C_24
REMARK   10  A    between atoms: C_22  and  C_25
REMARK   11  A    between atoms: C_29  and  O_30
REMARK   12  A    between atoms: O_30  and  C_31
REMARK                            x       y       z     vdW  Elec       q    Type
REMARK                         _______ _______ _______ _____ _____    ______ ____
ROOT
ATOM      1  C   UNL     1       0.379  10.216  19.280  0.00  0.00    +0.000 C 
ATOM      2  C   UNL     1      -0.620   9.869  20.412  0.00  0.00    +0.000 C 
ATOM      3  C   UNL     1      -0.860  11.163  21.137  0.00  0.00    +0.000 C 
ATOM      4  N   UNL     1       0.367  11.888  21.002  0.00  0.00    +0.000 N 
ATOM      5  C   UNL     1       0.508  13.056  21.732  0.00  0.00    +0.000 C 
ATOM      6  O   UNL     1      -0.384  13.434  22.498  0.00  0.00    +0.000 OA
ATOM      7  C   UNL     1       1.143  11.399  19.938  0.00  0.00    +0.000 C 
ATOM      8  O   UNL     1       2.202  11.863  19.533  0.00  0.00    +0.000 OA
ENDROOT
BRANCH   1  12
ATOM      9  C   UNL     1       3.289   7.076  18.451  0.00  0.00    +0.000 A 
ATOM     10  C   UNL     1       2.985   8.062  17.494  0.00  0.00    +0.000 A 
ATOM     11  C   UNL     1       2.044   9.055  17.752  0.00  0.00    +0.000 A 
ATOM     12  C   UNL     1       1.310   9.044  18.939  0.00  0.00    +0.000 A 
ATOM     13  C   UNL     1       1.472   7.923  19.775  0.00  0.00    +0.000 A 
ATOM     14  C   UNL     1       2.465   6.952  19.567  0.00  0.00    +0.000 A 
BRANCH   9  16
ATOM     15  C   UNL     1       4.437   5.663  16.988  0.00  0.00    +0.000 C 
ATOM     16  O   UNL     1       4.382   6.271  18.286  0.00  0.00    +0.000 OA
ENDBRANCH   9  16
BRANCH  14  17
ATOM     17  O   UNL     1       2.445   6.003  20.546  0.00  0.00    +0.000 OA
BRANCH  17  18
ATOM     18  C   UNL     1       1.492   4.946  20.588  0.00  0.00    +0.000 C 
ATOM     19  C   UNL     1       1.387   4.225  19.249  0.00  0.00    +0.000 C 
ATOM     20  C   UNL     1       1.104   2.768  19.577  0.00  0.00    +0.000 C 
ATOM     21  C   UNL     1       1.670   2.517  20.966  0.00  0.00    +0.000 C 
ATOM     22  C   UNL     1       2.058   3.874  21.533  0.00  0.00    +0.000 C 
ENDBRANCH  17  18
ENDBRANCH  14  17
ENDBRANCH   1  12
BRANCH   1  23
ATOM     23  C   UNL     1      -0.310  10.813  18.015  0.00  0.00    +0.000 C 
BRANCH  23  24
ATOM     24  C   UNL     1      -1.824  10.788  18.018  0.00  0.00    +0.000 A 
ATOM     25  C   UNL     1      -2.550  11.874  18.512  0.00  0.00    +0.000 A 
ATOM     26  C   UNL     1      -3.940  11.807  18.583  0.00  0.00    +0.000 A 
ATOM     27  N   UNL     1      -4.635  10.686  18.161  0.00  0.00    +0.000 N 
ATOM     28  O   UNL     1      -5.898  10.637  18.250  0.00  0.00    +0.000 OA
ATOM     29  C   UNL     1      -3.916   9.630  17.636  0.00  0.00    +0.000 A 
ATOM     30  C   UNL     1      -2.525   9.670  17.552  0.00  0.00    +0.000 A 
ENDBRANCH  23  24
ENDBRANCH   1  23
BRANCH   5  31
ATOM     31  O   UNL     1       1.644  13.761  21.491  0.00  0.00    +0.000 OA
BRANCH  31  32
ATOM     32  C   UNL     1       1.562  15.015  20.755  0.00  0.00    +0.000 C 
ATOM     33  C   UNL     1       0.340  15.053  19.826  0.00  0.00    +0.000 C 
ATOM     34  C   UNL     1       1.398  16.120  21.809  0.00  0.00    +0.000 C 
ATOM     35  C   UNL     1       2.869  15.280  19.995  0.00  0.00    +0.000 C 
ENDBRANCH  31  32
ENDBRANCH   5  31
TORSDOF 8
ENDMDL
MODEL 3
REMARK VINA RESULT:      -7.0      2.359      7.495
REMARK  Name = 
REMARK  12 active torsions:
REMARK  status: ('A' for Active; 'I' for Inactive)
REMARK    1  A    between atoms: C_1  and  O_2
REMARK    2  A    between atoms: O_2  and  C_3
REMARK    3  A    between atoms: C_6  and  C_7
REMARK    4  A    between atoms: C_7  and  C_8
REMARK    5  A    between atoms: C_8  and  C_9
REMARK    6  A    between atoms: C_19  and  O_21
REMARK    7  A    between atoms: O_21  and  C_22
REMARK    8  A    between atoms: C_22  and  C_23
REMARK    9  A    between atoms: C_22  and  C_24
REMARK   10  A    between atoms: C_22  and  C_25
REMARK   11  A    between atoms: C_29  and  O_30
REMARK   12  A    between atoms: O_30  and  C_31
REMARK                            x       y       z     vdW  Elec       q    Type
REMARK                         _______ _______ _______ _____ _____    ______ ____
ROOT
ATOM      1  C   UNL     1       0.185  10.146  19.589  0.00  0.00    +0.000 C 
ATOM      2  C   UNL     1       0.929  10.614  18.313  0.00  0.00    +0.000 C 
ATOM      3  C   UNL     1       1.595   9.383  17.771  0.00  0.00    +0.000 C 
ATOM      4  N   UNL     1       1.884   8.587  18.926  0.00  0.00    +0.000 N 
ATOM      5  C   UNL     1       2.671   7.461  18.750  0.00  0.00    +0.000 C 
ATOM      6  O   UNL     1       3.132   7.178  17.641  0.00  0.00    +0.000 OA
ATOM      7  C   UNL     1       1.099   8.968  20.026  0.00  0.00    +0.000 C 
ATOM      8  O   UNL     1       1.068   8.425  21.124  0.00  0.00    +0.000 OA
ENDROOT
BRANCH   1  12
ATOM      9  C   UNL     1      -0.227  13.460  22.393  0.00  0.00    +0.000 A 
ATOM     10  C   UNL     1       0.895  13.350  21.551  0.00  0.00    +0.000 A 
ATOM     11  C   UNL     1       1.035  12.284  20.667  0.00  0.00    +0.000 A 
ATOM     12  C   UNL     1       0.104  11.245  20.659  0.00  0.00    +0.000 A 
ATOM     13  C   UNL     1      -0.881  11.266  21.663  0.00  0.00    +0.000 A 
ATOM     14  C   UNL     1      -1.080  12.366  22.514  0.00  0.00    +0.000 A 
BRANCH   9  16
ATOM     15  C   UNL     1      -0.479  15.774  22.203  0.00  0.00    +0.000 C 
ATOM     16  O   UNL     1      -0.474  14.626  23.063  0.00  0.00    +0.000 OA
ENDBRANCH   9  16
BRANCH  14  17
ATOM     17  O   UNL     1      -2.130  12.156  23.360  0.00  0.00    +0.000 OA
BRANCH  17  18
ATOM     18  C   UNL     1      -3.268  13.010  23.415  0.00  0.00    +0.000 C 
ATOM     19  C   UNL     1      -4.139  12.874  22.172  0.00  0.00    +0.000 C 
ATOM     20  C   UNL     1      -5.573  13.069  22.640  0.00  0.00    +0.000 C 
ATOM     21  C   UNL     1      -5.609  12.672  24.108  0.00  0.00    +0.000 C 
ATOM     22  C   UNL     1      -4.165  12.483  24.546  0.00  0.00    +0.000 C 
ENDBRANCH  17  18
ENDBRANCH  14  17
ENDBRANCH   1  12
BRANCH   1  23
ATOM     23  C   UNL     1      -1.207   9.508  19.289  0.00  0.00    +0.000 C 
BRANCH  23  24
ATOM     24  C   UNL     1      -1.973  10.118  18.134  0.00  0.00    +0.000 A 
ATOM     25  C   UNL     1      -2.881  11.156  18.356  0.00  0.00    +0.000 A 
ATOM     26  C   UNL     1      -3.638  11.655  17.297  0.00  0.00    +0.000 A 
ATOM     27  N   UNL     1      -3.506  11.157  16.012  0.00  0.00    +0.000 N 
ATOM     28  O   UNL     1      -4.216  11.613  15.066  0.00  0.00    +0.000 OA
ATOM     29  C   UNL     1      -2.578  10.160  15.790  0.00  0.00    +0.000 A 
ATOM     30  C   UNL     1      -1.806   9.641  16.829  0.00  0.00    +0.000 A 
ENDBRANCH  23  24
ENDBRANCH   1  23
BRANCH   5  31
ATOM     31  O   UNL     1       2.829   6.684  19.854  0.00  0.00    +0.000 OA
BRANCH  31  32
ATOM     32  C   UNL     1       2.819   5.235  19.713  0.00  0.00    +0.000 C 
ATOM     33  C   UNL     1       4.229   4.675  19.476  0.00  0.00    +0.000 C 
ATOM     34  C   UNL     1       2.299   4.678  21.047  0.00  0.00    +0.000 C 
ATOM     35  C   UNL     1       1.840   4.807  18.611  0.00  0.00    +0.000 C 
ENDBRANCH  31  32
ENDBRANCH   5  31
TORSDOF 8
ENDMDL
MODEL 4
REMARK VINA RESULT:      -6.9      1.568      3.022
REMARK  Name = 
REMARK  12 active torsions:
REMARK  status: ('A' for Active; 'I' for Inactive)
REMARK    1  A    between atoms: C_1  and  O_2
REMARK    2  A    between atoms: O_2  and  C_3
REMARK    3  A    between atoms: C_6  and  C_7
REMARK    4  A    between atoms: C_7  and  C_8
REMARK    5  A    between atoms: C_8  and  C_9
REMARK    6  A    between atoms: C_19  and  O_21
REMARK    7  A    between atoms: O_21  and  C_22
REMARK    8  A    between atoms: C_22  and  C_23
REMARK    9  A    between atoms: C_22  and  C_24
REMARK   10  A    between atoms: C_22  and  C_25
REMARK   11  A    between atoms: C_29  and  O_30
REMARK   12  A    between atoms: O_30  and  C_31
REMARK                            x       y       z     vdW  Elec       q    Type
REMARK                         _______ _______ _______ _____ _____    ______ ____
ROOT
ATOM      1  C   UNL     1       0.501  10.542  18.857  0.00  0.00    +0.000 C 
ATOM      2  C   UNL     1      -0.307  11.200  20.003  0.00  0.00    +0.000 C 
ATOM      3  C   UNL     1      -0.227  12.677  19.745  0.00  0.00    +0.000 C 
ATOM      4  N   UNL     1       1.042  12.867  19.108  0.00  0.00    +0.000 N 
ATOM      5  C   UNL     1       1.476  14.167  18.913  0.00  0.00    +0.000 C 
ATOM      6  O   UNL     1       0.804  15.124  19.309  0.00  0.00    +0.000 OA
ATOM      7  C   UNL     1       1.530  11.669  18.561  0.00  0.00    +0.000 C 
ATOM      8  O   UNL     1       2.548  11.533  17.894  0.00  0.00    +0.000 OA
ENDROOT
BRANCH   1  12
ATOM      9  C   UNL     1       2.116   6.675  20.063  0.00  0.00    +0.000 A 
ATOM     10  C   UNL     1       1.660   7.606  21.015  0.00  0.00    +0.000 A 
ATOM     11  C   UNL     1       1.159   8.847  20.631  0.00  0.00    +0.000 A 
ATOM     12  C   UNL     1       1.181   9.236  19.291  0.00  0.00    +0.000 A 
ATOM     13  C   UNL     1       1.848   8.382  18.392  0.00  0.00    +0.000 A 
ATOM     14  C   UNL     1       2.294   7.098  18.747  0.00  0.00    +0.000 A 
BRANCH   9  16
ATOM     15  C   UNL     1       1.184   4.565  20.427  0.00  0.00    +0.000 C 
ATOM     16  O   UNL     1       2.364   5.382  20.428  0.00  0.00    +0.000 OA
ENDBRANCH   9  16
BRANCH  14  17
ATOM     17  O   UNL     1       2.856   6.456  17.684  0.00  0.00    +0.000 OA
BRANCH  17  18
ATOM     18  C   UNL     1       4.208   6.011  17.669  0.00  0.00    +0.000 C 
ATOM     19  C   UNL     1       4.312   4.523  17.360  0.00  0.00    +0.000 C 
ATOM     20  C   UNL     1       5.593   4.346  16.560  0.00  0.00    +0.000 C 
ATOM     21  C   UNL     1       5.863   5.676  15.872  0.00  0.00    +0.000 C 
ATOM     22  C   UNL     1       4.882   6.680  16.460  0.00  0.00    +0.000 C 
ENDBRANCH  17  18
ENDBRANCH  14  17
ENDBRANCH   1  12
BRANCH   1  23
ATOM     23  C   UNL     1      -0.323  10.372  17.543  0.00  0.00    +0.000 C 
BRANCH  23  24
ATOM     24  C   UNL     1      -1.825  10.497  17.691  0.00  0.00    +0.000 A 
ATOM     25  C   UNL     1      -2.582   9.422  18.163  0.00  0.00    +0.000 A 
ATOM     26  C   UNL     1      -3.972   9.523  18.219  0.00  0.00    +0.000 A 
ATOM     27  N   UNL     1      -4.632  10.675  17.829  0.00  0.00    +0.000 N 
ATOM     28  O   UNL     1      -5.898  10.740  17.871  0.00  0.00    +0.000 OA
ATOM     29  C   UNL     1      -3.877  11.749  17.401  0.00  0.00    +0.000 A 
ATOM     30  C   UNL     1      -2.486  11.678  17.335  0.00  0.00    +0.000 A 
ENDBRANCH  23  24
ENDBRANCH   1  23
BRANCH   5  31
ATOM     31  O   UNL     1       2.633  14.296  18.213  0.00  0.00    +0.000 OA
BRANCH  31  32
ATOM     32  C   UNL     1       3.745  15.030  18.802  0.00  0.00    +0.000 C 
ATOM     33  C   UNL     1       3.957  14.657  20.276  0.00  0.00    +0.000 C 
ATOM     34  C   UNL     1       4.997  14.614  18.015  0.00  0.00    +0.000 C 
ATOM     35  C   UNL     1       3.552  16.541  18.615  0.00  0.00    +0.000 C 
ENDBRANCH  31  32
ENDBRANCH   5  31
TORSDOF 8
ENDMDL
MODEL 5
REMARK VINA RESULT:      -6.8      1.597      3.060
REMARK  Name = 
REMARK  12 active torsions:
REMARK  status: ('A' for Active; 'I' for Inactive)
REMARK    1  A    between atoms: C_1  and  O_2
REMARK    2  A    between atoms: O_2  and  C_3
REMARK    3  A    between atoms: C_6  and  C_7
REMARK    4  A    between atoms: C_7  and  C_8
REMARK    5  A    between atoms: C_8  and  C_9
REMARK    6  A    between atoms: C_19  and  O_21
REMARK    7  A    between atoms: O_21  and  C_22
REMARK    8  A    between atoms: C_22  and  C_23
REMARK    9  A    between atoms: C_22  and  C_24
REMARK   10  A    between atoms: C_22  and  C_25
REMARK   11  A    between atoms: C_29  and  O_30
REMARK   12  A    between atoms: O_30  and  C_31
REMARK                            x       y       z     vdW  Elec       q    Type
REMARK                         _______ _______ _______ _____ _____    ______ ____
ROOT
ATOM      1  C   UNL     1       0.400  10.494  18.830  0.00  0.00    +0.000 C 
ATOM      2  C   UNL     1      -0.493  11.136  19.920  0.00  0.00    +0.000 C 
ATOM      3  C   UNL     1      -0.451  12.612  19.647  0.00  0.00    +0.000 C 
ATOM      4  N   UNL     1       0.844  12.839  19.078  0.00  0.00    +0.000 N 
ATOM      5  C   UNL     1       1.242  14.152  18.889  0.00  0.00    +0.000 C 
ATOM      6  O   UNL     1       0.516  15.089  19.234  0.00  0.00    +0.000 OA
ATOM      7  C   UNL     1       1.403  11.653  18.575  0.00  0.00    +0.000 C 
ATOM      8  O   UNL     1       2.461  11.546  17.967  0.00  0.00    +0.000 OA
ENDROOT
BRANCH   1  12
ATOM      9  C   UNL     1       2.073   6.711  20.209  0.00  0.00    +0.000 A 
ATOM     10  C   UNL     1       1.634   7.690  21.119  0.00  0.00    +0.000 A 
ATOM     11  C   UNL     1       1.114   8.904  20.679  0.00  0.00    +0.000 A 
ATOM     12  C   UNL     1       1.101   9.218  19.319  0.00  0.00    +0.000 A 
ATOM     13  C   UNL     1       1.751   8.320  18.453  0.00  0.00    +0.000 A 
ATOM     14  C   UNL     1       2.216   7.060  18.868  0.00  0.00    +0.000 A 
BRANCH   9  16
ATOM     15  C   UNL     1       1.248   4.537  20.424  0.00  0.00    +0.000 C 
ATOM     16  O   UNL     1       2.340   5.441  20.640  0.00  0.00    +0.000 OA
ENDBRANCH   9  16
BRANCH  14  17
ATOM     17  O   UNL     1       2.757   6.363  17.828  0.00  0.00    +0.000 OA
BRANCH  17  18
ATOM     18  C   UNL     1       4.118   5.949  17.793  0.00  0.00    +0.000 C 
ATOM     19  C   UNL     1       4.254   4.477  17.424  0.00  0.00    +0.000 C 
ATOM     20  C   UNL     1       5.537   4.361  16.616  0.00  0.00    +0.000 C 
ATOM     21  C   UNL     1       5.775   5.723  15.981  0.00  0.00    +0.000 C 
ATOM     22  C   UNL     1       4.774   6.681  16.611  0.00  0.00    +0.000 C 
ENDBRANCH  17  18
ENDBRANCH  14  17
ENDBRANCH   1  12
BRANCH   1  23
ATOM     23  C   UNL     1      -0.344  10.278  17.476  0.00  0.00    +0.000 C 
BRANCH  23  24
ATOM     24  C   UNL     1      -1.852  10.404  17.528  0.00  0.00    +0.000 A 
ATOM     25  C   UNL     1      -2.488  11.531  17.002  0.00  0.00    +0.000 A 
ATOM     26  C   UNL     1      -3.869  11.672  17.127  0.00  0.00    +0.000 A 
ATOM     27  N   UNL     1      -4.643  10.709  17.754  0.00  0.00    +0.000 N 
ATOM     28  O   UNL     1      -5.895  10.864  17.873  0.00  0.00    +0.000 OA
ATOM     29  C   UNL     1      -4.015   9.578  18.236  0.00  0.00    +0.000 A 
ATOM     30  C   UNL     1      -2.636   9.410  18.125  0.00  0.00    +0.000 A 
ENDBRANCH  23  24
ENDBRANCH   1  23
BRANCH   5  31
ATOM     31  O   UNL     1       2.431  14.314  18.251  0.00  0.00    +0.000 OA
BRANCH  31  32
ATOM     32  C   UNL     1       3.519  14.997  18.936  0.00  0.00    +0.000 C 
ATOM     33  C   UNL     1       3.226  16.493  19.121  0.00  0.00    +0.000 C 
ATOM     34  C   UNL     1       3.622  14.352  20.326  0.00  0.00    +0.000 C 
ATOM     35  C   UNL     1       4.848  14.759  18.206  0.00  0.00    +0.000 C 
ENDBRANCH  31  32
ENDBRANCH   5  31
TORSDOF 8
ENDMDL
MODEL 6
REMARK VINA RESULT:      -6.7      2.099      7.380
REMARK  Name = 
REMARK  12 active torsions:
REMARK  status: ('A' for Active; 'I' for Inactive)
REMARK    1  A    between atoms: C_1  and  O_2
REMARK    2  A    between atoms: O_2  and  C_3
REMARK    3  A    between atoms: C_6  and  C_7
REMARK    4  A    between atoms: C_7  and  C_8
REMARK    5  A    between atoms: C_8  and  C_9
REMARK    6  A    between atoms: C_19  and  O_21
REMARK    7  A    between atoms: O_21  and  C_22
REMARK    8  A    between atoms: C_22  and  C_23
REMARK    9  A    between atoms: C_22  and  C_24
REMARK   10  A    between atoms: C_22  and  C_25
REMARK   11  A    between atoms: C_29  and  O_30
REMARK   12  A    between atoms: O_30  and  C_31
REMARK                            x       y       z     vdW  Elec       q    Type
REMARK                         _______ _______ _______ _____ _____    ______ ____
ROOT
ATOM      1  C   UNL     1       0.531   9.941  19.407  0.00  0.00    +0.000 C 
ATOM      2  C   UNL     1       1.221  10.286  18.064  0.00  0.00    +0.000 C 
ATOM      3  C   UNL     1       1.828   8.998  17.588  0.00  0.00    +0.000 C 
ATOM      4  N   UNL     1       2.155   8.286  18.787  0.00  0.00    +0.000 N 
ATOM      5  C   UNL     1       2.903   7.127  18.663  0.00  0.00    +0.000 C 
ATOM      6  O   UNL     1       3.300   6.746  17.558  0.00  0.00    +0.000 OA
ATOM      7  C   UNL     1       1.436   8.774  19.891  0.00  0.00    +0.000 C 
ATOM      8  O   UNL     1       1.447   8.318  21.028  0.00  0.00    +0.000 OA
ENDROOT
BRANCH   1  12
ATOM      9  C   UNL     1       0.300  13.450  21.985  0.00  0.00    +0.000 A 
ATOM     10  C   UNL     1       1.272  13.349  20.973  0.00  0.00    +0.000 A 
ATOM     11  C   UNL     1       1.356  12.223  20.160  0.00  0.00    +0.000 A 
ATOM     12  C   UNL     1       0.533  11.120  20.390  0.00  0.00    +0.000 A 
ATOM     13  C   UNL     1      -0.270  11.157  21.545  0.00  0.00    +0.000 A 
ATOM     14  C   UNL     1      -0.421  12.310  22.334  0.00  0.00    +0.000 A 
BRANCH   9  16
ATOM     15  C   UNL     1      -0.770  15.519  21.824  0.00  0.00    +0.000 C 
ATOM     16  O   UNL     1       0.066  14.648  22.599  0.00  0.00    +0.000 OA
ENDBRANCH   9  16
BRANCH  14  17
ATOM     17  O   UNL     1      -1.294  12.099  23.361  0.00  0.00    +0.000 OA
BRANCH  17  18
ATOM     18  C   UNL     1      -2.694  11.928  23.171  0.00  0.00    +0.000 C 
ATOM     19  C   UNL     1      -3.503  12.632  24.253  0.00  0.00    +0.000 C 
ATOM     20  C   UNL     1      -4.773  13.124  23.577  0.00  0.00    +0.000 C 
ATOM     21  C   UNL     1      -4.440  13.303  22.104  0.00  0.00    +0.000 C 
ATOM     22  C   UNL     1      -3.064  12.690  21.888  0.00  0.00    +0.000 C 
ENDBRANCH  17  18
ENDBRANCH  14  17
ENDBRANCH   1  12
BRANCH   1  23
ATOM     23  C   UNL     1      -0.889   9.322  19.226  0.00  0.00    +0.000 C 
BRANCH  23  24
ATOM     24  C   UNL     1      -1.813  10.064  18.282  0.00  0.00    +0.000 A 
ATOM     25  C   UNL     1      -2.644  11.080  18.757  0.00  0.00    +0.000 A 
ATOM     26  C   UNL     1      -3.546  11.700  17.894  0.00  0.00    +0.000 A 
ATOM     27  N   UNL     1      -3.634  11.345  16.558  0.00  0.00    +0.000 N 
ATOM     28  O   UNL     1      -4.473  11.910  15.794  0.00  0.00    +0.000 OA
ATOM     29  C   UNL     1      -2.782  10.369  16.084  0.00  0.00    +0.000 A 
ATOM     30  C   UNL     1      -1.869   9.731  16.924  0.00  0.00    +0.000 A 
ENDBRANCH  23  24
ENDBRANCH   1  23
BRANCH   5  31
ATOM     31  O   UNL     1       3.098   6.434  19.815  0.00  0.00    +0.000 OA
BRANCH  31  32
ATOM     32  C   UNL     1       2.811   5.006  19.845  0.00  0.00    +0.000 C 
ATOM     33  C   UNL     1       2.196   4.576  21.184  0.00  0.00    +0.000 C 
ATOM     34  C   UNL     1       1.776   4.754  18.738  0.00  0.00    +0.000 C 
ATOM     35  C   UNL     1       4.070   4.197  19.505  0.00  0.00    +0.000 C 
ENDBRANCH  31  32
ENDBRANCH   5  31
TORSDOF 8
ENDMDL
MODEL 7
REMARK VINA RESULT:      -6.7      3.450      6.654
REMARK  Name = 
REMARK  12 active torsions:
REMARK  status: ('A' for Active; 'I' for Inactive)
REMARK    1  A    between atoms: C_1  and  O_2
REMARK    2  A    between atoms: O_2  and  C_3
REMARK    3  A    between atoms: C_6  and  C_7
REMARK    4  A    between atoms: C_7  and  C_8
REMARK    5  A    between atoms: C_8  and  C_9
REMARK    6  A    between atoms: C_19  and  O_21
REMARK    7  A    between atoms: O_21  and  C_22
REMARK    8  A    between atoms: C_22  and  C_23
REMARK    9  A    between atoms: C_22  and  C_24
REMARK   10  A    between atoms: C_22  and  C_25
REMARK   11  A    between atoms: C_29  and  O_30
REMARK   12  A    between atoms: O_30  and  C_31
REMARK                            x       y       z     vdW  Elec       q    Type
REMARK                         _______ _______ _______ _____ _____    ______ ____
ROOT
ATOM      1  C   UNL     1       2.667   6.840  18.596  0.00  0.00    +0.000 C 
ATOM      2  C   UNL     1       2.569   6.797  20.141  0.00  0.00    +0.000 C 
ATOM      3  C   UNL     1       1.495   7.785  20.497  0.00  0.00    +0.000 C 
ATOM      4  N   UNL     1       1.569   8.785  19.475  0.00  0.00    +0.000 N 
ATOM      5  C   UNL     1       0.811   9.932  19.641  0.00  0.00    +0.000 C 
ATOM      6  O   UNL     1       0.126  10.096  20.655  0.00  0.00    +0.000 OA
ATOM      7  C   UNL     1       2.234   8.309  18.333  0.00  0.00    +0.000 C 
ATOM      8  O   UNL     1       2.383   8.907  17.274  0.00  0.00    +0.000 OA
ENDROOT
BRANCH   1  12
ATOM      9  C   UNL     1       6.646   5.689  17.234  0.00  0.00    +0.000 A 
ATOM     10  C   UNL     1       6.420   6.111  18.556  0.00  0.00    +0.000 A 
ATOM     11  C   UNL     1       5.153   6.494  18.988  0.00  0.00    +0.000 A 
ATOM     12  C   UNL     1       4.087   6.555  18.089  0.00  0.00    +0.000 A 
ATOM     13  C   UNL     1       4.390   6.348  16.730  0.00  0.00    +0.000 A 
ATOM     14  C   UNL     1       5.643   5.892  16.288  0.00  0.00    +0.000 A 
BRANCH   9  16
ATOM     15  C   UNL     1       8.353   4.266  17.948  0.00  0.00    +0.000 C 
ATOM     16  O   UNL     1       7.823   5.082  16.895  0.00  0.00    +0.000 OA
ENDBRANCH   9  16
BRANCH  14  17
ATOM     17  O   UNL     1       5.660   5.721  14.935  0.00  0.00    +0.000 OA
BRANCH  17  18
ATOM     18  C   UNL     1       6.168   4.550  14.304  0.00  0.00    +0.000 C 
ATOM     19  C   UNL     1       5.137   3.909  13.383  0.00  0.00    +0.000 C 
ATOM     20  C   UNL     1       5.920   3.317  12.222  0.00  0.00    +0.000 C 
ATOM     21  C   UNL     1       7.206   4.120  12.110  0.00  0.00    +0.000 C 
ATOM     22  C   UNL     1       7.277   5.008  13.344  0.00  0.00    +0.000 C 
ENDBRANCH  17  18
ENDBRANCH  14  17
ENDBRANCH   1  12
BRANCH   1  23
ATOM     23  C   UNL     1       1.596   5.954  17.888  0.00  0.00    +0.000 C 
BRANCH  23  24
ATOM     24  C   UNL     1       1.623   4.482  18.244  0.00  0.00    +0.000 A 
ATOM     25  C   UNL     1       1.026   4.027  19.421  0.00  0.00    +0.000 A 
ATOM     26  C   UNL     1       1.127   2.683  19.777  0.00  0.00    +0.000 A 
ATOM     27  N   UNL     1       1.797   1.770  18.980  0.00  0.00    +0.000 N 
ATOM     28  O   UNL     1       1.892   0.555  19.330  0.00  0.00    +0.000 OA
ATOM     29  C   UNL     1       2.350   2.216  17.797  0.00  0.00    +0.000 A 
ATOM     30  C   UNL     1       2.266   3.555  17.416  0.00  0.00    +0.000 A 
ENDBRANCH  23  24
ENDBRANCH   1  23
BRANCH   5  31
ATOM     31  O   UNL     1       0.834  10.802  18.598  0.00  0.00    +0.000 OA
BRANCH  31  32
ATOM     32  C   UNL     1       1.158  12.200  18.842  0.00  0.00    +0.000 C 
ATOM     33  C   UNL     1       1.614  12.436  20.289  0.00  0.00    +0.000 C 
ATOM     34  C   UNL     1       2.330  12.538  17.909  0.00  0.00    +0.000 C 
ATOM     35  C   UNL     1      -0.024  13.102  18.459  0.00  0.00    +0.000 C 
ENDBRANCH  31  32
ENDBRANCH   5  31
TORSDOF 8
ENDMDL
MODEL 8
REMARK VINA RESULT:      -6.6      1.014      2.793
REMARK  Name = 
REMARK  12 active torsions:
REMARK  status: ('A' for Active; 'I' for Inactive)
REMARK    1  A    between atoms: C_1  and  O_2
REMARK    2  A    between atoms: O_2  and  C_3
REMARK    3  A    between atoms: C_6  and  C_7
REMARK    4  A    between atoms: C_7  and  C_8
REMARK    5  A    between atoms: C_8  and  C_9
REMARK    6  A    between atoms: C_19  and  O_21
REMARK    7  A    between atoms: O_21  and  C_22
REMARK    8  A    between atoms: C_22  and  C_23
REMARK    9  A    between atoms: C_22  and  C_24
REMARK   10  A    between atoms: C_22  and  C_25
REMARK   11  A    between atoms: C_29  and  O_30
REMARK   12  A    between atoms: O_30  and  C_31
REMARK                            x       y       z     vdW  Elec       q    Type
REMARK                         _______ _______ _______ _____ _____    ______ ____
ROOT
ATOM      1  C   UNL     1       0.243  10.851  19.871  0.00  0.00    +0.000 C 
ATOM      2  C   UNL     1      -0.855  11.020  20.950  0.00  0.00    +0.000 C 
ATOM      3  C   UNL     1      -0.919  12.496  21.221  0.00  0.00    +0.000 C 
ATOM      4  N   UNL     1       0.414  12.965  20.994  0.00  0.00    +0.000 N 
ATOM      5  C   UNL     1       0.705  14.273  21.346  0.00  0.00    +0.000 C 
ATOM      6  O   UNL     1      -0.152  14.992  21.869  0.00  0.00    +0.000 OA
ATOM      7  C   UNL     1       1.154  12.063  20.211  0.00  0.00    +0.000 C 
ATOM      8  O   UNL     1       2.293  12.226  19.791  0.00  0.00    +0.000 OA
ENDROOT
BRANCH   1  12
ATOM      9  C   UNL     1       2.049   6.893  20.165  0.00  0.00    +0.000 A 
ATOM     10  C   UNL     1       1.576   7.566  21.305  0.00  0.00    +0.000 A 
ATOM     11  C   UNL     1       1.013   8.837  21.214  0.00  0.00    +0.000 A 
ATOM     12  C   UNL     1       0.989   9.514  19.995  0.00  0.00    +0.000 A 
ATOM     13  C   UNL     1       1.670   8.914  18.920  0.00  0.00    +0.000 A 
ATOM     14  C   UNL     1       2.179   7.605  18.974  0.00  0.00    +0.000 A 
BRANCH   9  16
ATOM     15  C   UNL     1       1.215   4.732  20.458  0.00  0.00    +0.000 C 
ATOM     16  O   UNL     1       2.361   5.564  20.229  0.00  0.00    +0.000 OA
ENDBRANCH   9  16
BRANCH  14  17
ATOM     17  O   UNL     1       2.744   7.243  17.787  0.00  0.00    +0.000 OA
BRANCH  17  18
ATOM     18  C   UNL     1       3.961   6.510  17.696  0.00  0.00    +0.000 C 
ATOM     19  C   UNL     1       3.715   5.038  17.391  0.00  0.00    +0.000 C 
ATOM     20  C   UNL     1       4.876   4.588  16.519  0.00  0.00    +0.000 C 
ATOM     21  C   UNL     1       5.393   5.829  15.808  0.00  0.00    +0.000 C 
ATOM     22  C   UNL     1       4.695   7.022  16.445  0.00  0.00    +0.000 C 
ENDBRANCH  17  18
ENDBRANCH  14  17
ENDBRANCH   1  12
BRANCH   1  23
ATOM     23  C   UNL     1      -0.274  11.109  18.423  0.00  0.00    +0.000 C 
BRANCH  23  24
ATOM     24  C   UNL     1      -1.769  10.961  18.224  0.00  0.00    +0.000 A 
ATOM     25  C   UNL     1      -2.621  12.048  18.427  0.00  0.00    +0.000 A 
ATOM     26  C   UNL     1      -4.001  11.879  18.319  0.00  0.00    +0.000 A 
ATOM     27  N   UNL     1      -4.559  10.654  17.997  0.00  0.00    +0.000 N 
ATOM     28  O   UNL     1      -5.816  10.517  17.919  0.00  0.00    +0.000 OA
ATOM     29  C   UNL     1      -3.710   9.592  17.756  0.00  0.00    +0.000 A 
ATOM     30  C   UNL     1      -2.326   9.731  17.857  0.00  0.00    +0.000 A 
ENDBRANCH  23  24
ENDBRANCH   1  23
BRANCH   5  31
ATOM     31  O   UNL     1       1.951  14.702  21.016  0.00  0.00    +0.000 OA
BRANCH  31  32
ATOM     32  C   UNL     1       2.111  15.658  19.929  0.00  0.00    +0.000 C 
ATOM     33  C   UNL     1       0.931  15.608  18.948  0.00  0.00    +0.000 C 
ATOM     34  C   UNL     1       2.134  17.048  20.582  0.00  0.00    +0.000 C 
ATOM     35  C   UNL     1       3.456  15.448  19.220  0.00  0.00    +0.000 C 
ENDBRANCH  31  32
ENDBRANCH   5  31
TORSDOF 8
ENDMDL
MODEL 9
REMARK VINA RESULT:      -6.6      1.049      2.589
REMARK  Name = 
REMARK  12 active torsions:
REMARK  status: ('A' for Active; 'I' for Inactive)
REMARK    1  A    between atoms: C_1  and  O_2
REMARK    2  A    between atoms: O_2  and  C_3
REMARK    3  A    between atoms: C_6  and  C_7
REMARK    4  A    between atoms: C_7  and  C_8
REMARK    5  A    between atoms: C_8  and  C_9
REMARK    6  A    between atoms: C_19  and  O_21
REMARK    7  A    between atoms: O_21  and  C_22
REMARK    8  A    between atoms: C_22  and  C_23
REMARK    9  A    between atoms: C_22  and  C_24
REMARK   10  A    between atoms: C_22  and  C_25
REMARK   11  A    between atoms: C_29  and  O_30
REMARK   12  A    between atoms: O_30  and  C_31
REMARK                            x       y       z     vdW  Elec       q    Type
REMARK                         _______ _______ _______ _____ _____    ______ ____
ROOT
ATOM      1  C   UNL     1       0.260  10.788  19.830  0.00  0.00    +0.000 C 
ATOM      2  C   UNL     1      -0.779  10.998  20.959  0.00  0.00    +0.000 C 
ATOM      3  C   UNL     1      -0.834  12.483  21.175  0.00  0.00    +0.000 C 
ATOM      4  N   UNL     1       0.484  12.946  20.858  0.00  0.00    +0.000 N 
ATOM      5  C   UNL     1       0.788  14.266  21.142  0.00  0.00    +0.000 C 
ATOM      6  O   UNL     1      -0.042  15.004  21.682  0.00  0.00    +0.000 OA
ATOM      7  C   UNL     1       1.183  12.015  20.072  0.00  0.00    +0.000 C 
ATOM      8  O   UNL     1       2.298  12.162  19.586  0.00  0.00    +0.000 OA
ENDROOT
BRANCH   1  12
ATOM      9  C   UNL     1       2.096   6.847  20.166  0.00  0.00    +0.000 A 
ATOM     10  C   UNL     1       1.635   7.537  21.301  0.00  0.00    +0.000 A 
ATOM     11  C   UNL     1       1.063   8.802  21.197  0.00  0.00    +0.000 A 
ATOM     12  C   UNL     1       1.016   9.459  19.966  0.00  0.00    +0.000 A 
ATOM     13  C   UNL     1       1.686   8.844  18.892  0.00  0.00    +0.000 A 
ATOM     14  C   UNL     1       2.204   7.540  18.961  0.00  0.00    +0.000 A 
BRANCH   9  16
ATOM     15  C   UNL     1       1.265   4.666  20.239  0.00  0.00    +0.000 C 
ATOM     16  O   UNL     1       2.417   5.521  20.248  0.00  0.00    +0.000 OA
ENDBRANCH   9  16
BRANCH  14  17
ATOM     17  O   UNL     1       2.755   7.160  17.772  0.00  0.00    +0.000 OA
BRANCH  17  18
ATOM     18  C   UNL     1       3.963   6.415  17.677  0.00  0.00    +0.000 C 
ATOM     19  C   UNL     1       3.702   4.954  17.332  0.00  0.00    +0.000 C 
ATOM     20  C   UNL     1       4.869   4.511  16.463  0.00  0.00    +0.000 C 
ATOM     21  C   UNL     1       5.409   5.763  15.790  0.00  0.00    +0.000 C 
ATOM     22  C   UNL     1       4.718   6.948  16.449  0.00  0.00    +0.000 C 
ENDBRANCH  17  18
ENDBRANCH  14  17
ENDBRANCH   1  12
BRANCH   1  23
ATOM     23  C   UNL     1      -0.336  10.988  18.403  0.00  0.00    +0.000 C 
BRANCH  23  24
ATOM     24  C   UNL     1      -1.844  10.891  18.302  0.00  0.00    +0.000 A 
ATOM     25  C   UNL     1      -2.449   9.723  17.834  0.00  0.00    +0.000 A 
ATOM     26  C   UNL     1      -3.833   9.675  17.670  0.00  0.00    +0.000 A 
ATOM     27  N   UNL     1      -4.638  10.759  17.976  0.00  0.00    +0.000 N 
ATOM     28  O   UNL     1      -5.892  10.701  17.804  0.00  0.00    +0.000 OA
ATOM     29  C   UNL     1      -4.039  11.897  18.476  0.00  0.00    +0.000 A 
ATOM     30  C   UNL     1      -2.658  11.975  18.651  0.00  0.00    +0.000 A 
ENDBRANCH  23  24
ENDBRANCH   1  23
BRANCH   5  31
ATOM     31  O   UNL     1       2.013  14.684  20.728  0.00  0.00    +0.000 OA
BRANCH  31  32
ATOM     32  C   UNL     1       2.106  15.730  19.719  0.00  0.00    +0.000 C 
ATOM     33  C   UNL     1       2.263  17.120  20.352  0.00  0.00    +0.000 C 
ATOM     34  C   UNL     1       3.373  15.427  18.905  0.00  0.00    +0.000 C 
ATOM     35  C   UNL     1       0.906  15.666  18.764  0.00  0.00    +0.000 C 
ENDBRANCH  31  32
ENDBRANCH   5  31
TORSDOF 8
ENDMDL
