MODEL 1
REMARK VINA RESULT:      -7.4      0.000      0.000
REMARK  Name = 
REMARK  14 active torsions:
REMARK  status: ('A' for Active; 'I' for Inactive)
REMARK    1  A    between atoms: C_1  and  C_2
REMARK    2  A    between atoms: C_6  and  C_7
REMARK    3  A    between atoms: C_7  and  N_8
REMARK    4  A    between atoms: C_7  and  C_16
REMARK    5  A    between atoms: C_9  and  O_11
REMARK    6  A    between atoms: O_11  and  C_12
REMARK    7  A    between atoms: C_12  and  C_13
REMARK    8  A    between atoms: C_12  and  C_14
REMARK    9  A    between atoms: C_12  and  C_15
REMARK   10  A    between atoms: C_16  and  O_18
REMARK   11  A    between atoms: O_18  and  C_19
REMARK   12  A    between atoms: C_19  and  C_20
REMARK   13  A    between atoms: C_19  and  C_21
REMARK   14  A    between atoms: C_19  and  C_22
REMARK                            x       y       z     vdW  Elec       q    Type
REMARK                         _______ _______ _______ _____ _____    ______ ____
ROOT
ATOM      1  C   UNL     1       6.125   4.681  15.794  0.00  0.00    +0.000 C 
ENDROOT
BRANCH   1   7
ATOM      2  C   UNL     1       5.013   2.366  11.446  0.00  0.00    +0.000 C 
ATOM      3  C   UNL     1       5.864   3.341  12.205  0.00  0.00    +0.000 A 
ATOM      4  C   UNL     1       6.926   4.004  11.583  0.00  0.00    +0.000 A 
ATOM      5  C   UNL     1       7.726   4.887  12.311  0.00  0.00    +0.000 A 
ATOM      6  C   UNL     1       7.480   5.113  13.667  0.00  0.00    +0.000 A 
ATOM      7  C   UNL     1       6.421   4.457  14.313  0.00  0.00    +0.000 A 
ATOM      8  C   UNL     1       5.619   3.575  13.565  0.00  0.00    +0.000 A 
ENDBRANCH   1   7
BRANCH   1   9
ATOM      9  N   UNL     1       5.235   3.645  16.303  0.00  0.00    +0.000 N 
ATOM     10  C   UNL     1       4.057   4.001  16.899  0.00  0.00    +0.000 C 
ATOM     11  O   UNL     1       3.737   5.160  17.128  0.00  0.00    +0.000 OA
ATOM     12  H   UNL     1       5.380   2.673  16.075  0.00  0.00    +0.000 HD
BRANCH  10  13
ATOM     13  O   UNL     1       3.319   2.909  17.216  0.00  0.00    +0.000 OA
BRANCH  13  14
ATOM     14  C   UNL     1       3.258   2.473  18.607  0.00  0.00    +0.000 C 
ATOM     15  C   UNL     1       1.810   2.381  19.106  0.00  0.00    +0.000 C 
ATOM     16  C   UNL     1       3.862   1.058  18.631  0.00  0.00    +0.000 C 
ATOM     17  C   UNL     1       4.117   3.365  19.516  0.00  0.00    +0.000 C 
ENDBRANCH  13  14
ENDBRANCH  10  13
ENDBRANCH   1   9
BRANCH   1  18
ATOM     18  C   UNL     1       7.412   5.015  16.577  0.00  0.00    +0.000 C 
ATOM     19  O   UNL     1       8.094   4.134  17.096  0.00  0.00    +0.000 OA
BRANCH  18  20
ATOM     20  O   UNL     1       7.726   6.347  16.607  0.00  0.00    +0.000 OA
BRANCH  20  21
ATOM     21  C   UNL     1       7.369   7.110  17.802  0.00  0.00    +0.000 C 
ATOM     22  C   UNL     1       7.866   6.393  19.068  0.00  0.00    +0.000 C 
ATOM     23  C   UNL     1       8.103   8.462  17.720  0.00  0.00    +0.000 C 
ATOM     24  C   UNL     1       5.864   7.421  17.861  0.00  0.00    +0.000 C 
ENDBRANCH  20  21
ENDBRANCH  18  20
ENDBRANCH   1  18
TORSDOF 7
ENDMDL
MODEL 2
REMARK VINA RESULT:      -7.4      0.218      1.294
REMARK  Name = 
REMARK  14 active torsions:
REMARK  status: ('A' for Active; 'I' for Inactive)
REMARK    1  A    between atoms: C_1  and  C_2
REMARK    2  A    between atoms: C_6  and  C_7
REMARK    3  A    between atoms: C_7  and  N_8
REMARK    4  A    between atoms: C_7  and  C_16
REMARK    5  A    between atoms: C_9  and  O_11
REMARK    6  A    between atoms: O_11  and  C_12
REMARK    7  A    between atoms: C_12  and  C_13
REMARK    8  A    between atoms: C_12  and  C_14
REMARK    9  A    between atoms: C_12  and  C_15
REMARK   10  A    between atoms: C_16  and  O_18
REMARK   11  A    between atoms: O_18  and  C_19
REMARK   12  A    between atoms: C_19  and  C_20
REMARK   13  A    between atoms: C_19  and  C_21
REMARK   14  A    between atoms: C_19  and  C_22
REMARK                            x       y       z     vdW  Elec       q    Type
REMARK                         _______ _______ _______ _____ _____    ______ ____
ROOT
ATOM      1  C   UNL     1       6.035   4.676  15.784  0.00  0.00    +0.000 C 
ENDROOT
BRANCH   1   7
ATOM      2  C   UNL     1       4.476   2.759  11.380  0.00  0.00    +0.000 C 
ATOM      3  C   UNL     1       5.508   3.518  12.161  0.00  0.00    +0.000 A 
ATOM      4  C   UNL     1       6.684   3.967  11.552  0.00  0.00    +0.000 A 
ATOM      5  C   UNL     1       7.647   4.648  12.300  0.00  0.00    +0.000 A 
ATOM      6  C   UNL     1       7.451   4.881  13.663  0.00  0.00    +0.000 A 
ATOM      7  C   UNL     1       6.280   4.437  14.296  0.00  0.00    +0.000 A 
ATOM      8  C   UNL     1       5.315   3.760  13.528  0.00  0.00    +0.000 A 
ENDBRANCH   1   7
BRANCH   1   9
ATOM      9  N   UNL     1       5.155   3.650  16.331  0.00  0.00    +0.000 N 
ATOM     10  C   UNL     1       3.991   4.019  16.944  0.00  0.00    +0.000 C 
ATOM     11  O   UNL     1       3.675   5.182  17.157  0.00  0.00    +0.000 OA
ATOM     12  H   UNL     1       5.296   2.675  16.119  0.00  0.00    +0.000 HD
BRANCH  10  13
ATOM     13  O   UNL     1       3.259   2.933  17.298  0.00  0.00    +0.000 OA
BRANCH  13  14
ATOM     14  C   UNL     1       3.371   2.414  18.657  0.00  0.00    +0.000 C 
ATOM     15  C   UNL     1       4.149   3.375  19.566  0.00  0.00    +0.000 C 
ATOM     16  C   UNL     1       1.931   2.315  19.189  0.00  0.00    +0.000 C 
ATOM     17  C   UNL     1       3.976   1.002  18.674  0.00  0.00    +0.000 C 
ENDBRANCH  13  14
ENDBRANCH  10  13
ENDBRANCH   1   9
BRANCH   1  18
ATOM     18  C   UNL     1       7.350   5.008  16.520  0.00  0.00    +0.000 C 
ATOM     19  O   UNL     1       8.046   4.127  17.019  0.00  0.00    +0.000 OA
BRANCH  18  20
ATOM     20  O   UNL     1       7.669   6.339  16.534  0.00  0.00    +0.000 OA
BRANCH  20  21
ATOM     21  C   UNL     1       7.416   7.093  17.761  0.00  0.00    +0.000 C 
ATOM     22  C   UNL     1       8.090   8.474  17.694  0.00  0.00    +0.000 C 
ATOM     23  C   UNL     1       5.896   7.327  17.852  0.00  0.00    +0.000 C 
ATOM     24  C   UNL     1       7.823   6.306  19.018  0.00  0.00    +0.000 C 
ENDBRANCH  20  21
ENDBRANCH  18  20
ENDBRANCH   1  18
TORSDOF 7
ENDMDL
MODEL 3
REMARK VINA RESULT:      -7.3      1.388      6.115
REMARK  Name = 
REMARK  14 active torsions:
REMARK  status: ('A' for Active; 'I' for Inactive)
REMARK    1  A    between atoms: C_1  and  C_2
REMARK    2  A    between atoms: C_6  and  C_7
REMARK    3  A    between atoms: C_7  and  N_8
REMARK    4  A    between atoms: C_7  and  C_16
REMARK    5  A    between atoms: C_9  and  O_11
REMARK    6  A    between atoms: O_11  and  C_12
REMARK    7  A    between atoms: C_12  and  C_13
REMARK    8  A    between atoms: C_12  and  C_14
REMARK    9  A    between atoms: C_12  and  C_15
REMARK   10  A    between atoms: C_16  and  O_18
REMARK   11  A    between atoms: O_18  and  C_19
REMARK   12  A    between atoms: C_19  and  C_20
REMARK   13  A    between atoms: C_19  and  C_21
REMARK   14  A    between atoms: C_19  and  C_22
REMARK                            x       y       z     vdW  Elec       q    Type
REMARK                         _______ _______ _______ _____ _____    ______ ____
ROOT
ATOM      1  C   UNL     1       4.835   5.211  16.441  0.00  0.00    +0.000 C 
ENDROOT
BRANCH   1   7
ATOM      2  C   UNL     1       8.001   8.910  17.778  0.00  0.00    +0.000 C 
ATOM      3  C   UNL     1       7.542   7.490  17.931  0.00  0.00    +0.000 A 
ATOM      4  C   UNL     1       8.204   6.609  18.791  0.00  0.00    +0.000 A 
ATOM      5  C   UNL     1       7.781   5.283  18.901  0.00  0.00    +0.000 A 
ATOM      6  C   UNL     1       6.699   4.820  18.149  0.00  0.00    +0.000 A 
ATOM      7  C   UNL     1       6.021   5.685  17.277  0.00  0.00    +0.000 A 
ATOM      8  C   UNL     1       6.453   7.020  17.183  0.00  0.00    +0.000 A 
ENDBRANCH   1   7
BRANCH   1   9
ATOM      9  N   UNL     1       5.247   4.169  15.508  0.00  0.00    +0.000 N 
ATOM     10  C   UNL     1       6.077   4.484  14.469  0.00  0.00    +0.000 C 
ATOM     11  O   UNL     1       6.428   5.627  14.204  0.00  0.00    +0.000 OA
ATOM     12  H   UNL     1       5.078   3.195  15.706  0.00  0.00    +0.000 HD
BRANCH  10  13
ATOM     13  O   UNL     1       6.430   3.376  13.771  0.00  0.00    +0.000 OA
BRANCH  13  14
ATOM     14  C   UNL     1       6.179   3.331  12.335  0.00  0.00    +0.000 C 
ATOM     15  C   UNL     1       4.739   3.744  12.001  0.00  0.00    +0.000 C 
ATOM     16  C   UNL     1       7.130   4.365  11.709  0.00  0.00    +0.000 C 
ATOM     17  C   UNL     1       6.526   1.956  11.744  0.00  0.00    +0.000 C 
ENDBRANCH  13  14
ENDBRANCH  10  13
ENDBRANCH   1   9
BRANCH   1  18
ATOM     18  C   UNL     1       3.588   4.981  17.320  0.00  0.00    +0.000 C 
ATOM     19  O   UNL     1       3.066   5.900  17.946  0.00  0.00    +0.000 OA
BRANCH  18  20
ATOM     20  O   UNL     1       3.116   3.696  17.306  0.00  0.00    +0.000 OA
BRANCH  20  21
ATOM     21  C   UNL     1       2.901   3.029  18.590  0.00  0.00    +0.000 C 
ATOM     22  C   UNL     1       1.402   2.980  18.928  0.00  0.00    +0.000 C 
ATOM     23  C   UNL     1       3.388   1.575  18.441  0.00  0.00    +0.000 C 
ATOM     24  C   UNL     1       3.733   3.665  19.717  0.00  0.00    +0.000 C 
ENDBRANCH  20  21
ENDBRANCH  18  20
ENDBRANCH   1  18
TORSDOF 7
ENDMDL
MODEL 4
REMARK VINA RESULT:      -7.2      4.224      7.036
REMARK  Name = 
REMARK  14 active torsions:
REMARK  status: ('A' for Active; 'I' for Inactive)
REMARK    1  A    between atoms: C_1  and  C_2
REMARK    2  A    between atoms: C_6  and  C_7
REMARK    3  A    between atoms: C_7  and  N_8
REMARK    4  A    between atoms: C_7  and  C_16
REMARK    5  A    between atoms: C_9  and  O_11
REMARK    6  A    between atoms: O_11  and  C_12
REMARK    7  A    between atoms: C_12  and  C_13
REMARK    8  A    between atoms: C_12  and  C_14
REMARK    9  A    between atoms: C_12  and  C_15
REMARK   10  A    between atoms: C_16  and  O_18
REMARK   11  A    between atoms: O_18  and  C_19
REMARK   12  A    between atoms: C_19  and  C_20
REMARK   13  A    between atoms: C_19  and  C_21
REMARK   14  A    between atoms: C_19  and  C_22
REMARK                            x       y       z     vdW  Elec       q    Type
REMARK                         _______ _______ _______ _____ _____    ______ ____
ROOT
ATOM      1  C   UNL     1       2.480   6.557  18.849  0.00  0.00    +0.000 C 
ENDROOT
BRANCH   1   7
ATOM      2  C   UNL     1       1.490   2.684  21.935  0.00  0.00    +0.000 C 
ATOM      3  C   UNL     1       1.500   3.256  20.547  0.00  0.00    +0.000 A 
ATOM      4  C   UNL     1       1.107   2.485  19.449  0.00  0.00    +0.000 A 
ATOM      5  C   UNL     1       1.148   3.022  18.161  0.00  0.00    +0.000 A 
ATOM      6  C   UNL     1       1.590   4.331  17.954  0.00  0.00    +0.000 A 
ATOM      7  C   UNL     1       1.992   5.123  19.040  0.00  0.00    +0.000 A 
ATOM      8  C   UNL     1       1.938   4.570  20.333  0.00  0.00    +0.000 A 
ENDBRANCH   1   7
BRANCH   1   9
ATOM      9  N   UNL     1       2.303   7.328  20.073  0.00  0.00    +0.000 N 
ATOM     10  C   UNL     1       1.701   8.554  20.015  0.00  0.00    +0.000 C 
ATOM     11  O   UNL     1       1.381   9.105  18.970  0.00  0.00    +0.000 OA
ATOM     12  H   UNL     1       2.454   6.912  20.979  0.00  0.00    +0.000 HD
BRANCH  10  13
ATOM     13  O   UNL     1       1.534   9.076  21.256  0.00  0.00    +0.000 OA
BRANCH  13  14
ATOM     14  C   UNL     1       0.183   9.352  21.734  0.00  0.00    +0.000 C 
ATOM     15  C   UNL     1      -0.777   8.200  21.407  0.00  0.00    +0.000 C 
ATOM     16  C   UNL     1       0.293   9.462  23.264  0.00  0.00    +0.000 C 
ATOM     17  C   UNL     1      -0.340  10.695  21.202  0.00  0.00    +0.000 C 
ENDBRANCH  13  14
ENDBRANCH  10  13
ENDBRANCH   1   9
BRANCH   1  18
ATOM     18  C   UNL     1       3.846   6.591  18.131  0.00  0.00    +0.000 C 
ATOM     19  O   UNL     1       4.009   7.226  17.091  0.00  0.00    +0.000 OA
BRANCH  18  20
ATOM     20  O   UNL     1       4.836   5.892  18.767  0.00  0.00    +0.000 OA
BRANCH  20  21
ATOM     21  C   UNL     1       5.359   4.693  18.113  0.00  0.00    +0.000 C 
ATOM     22  C   UNL     1       4.843   4.600  16.667  0.00  0.00    +0.000 C 
ATOM     23  C   UNL     1       6.892   4.836  18.047  0.00  0.00    +0.000 C 
ATOM     24  C   UNL     1       5.063   3.418  18.921  0.00  0.00    +0.000 C 
ENDBRANCH  20  21
ENDBRANCH  18  20
ENDBRANCH   1  18
TORSDOF 7
ENDMDL
MODEL 5
REMARK VINA RESULT:      -7.2      3.405      7.363
REMARK  Name = 
REMARK  14 active torsions:
REMARK  status: ('A' for Active; 'I' for Inactive)
REMARK    1  A    between atoms: C_1  and  C_2
REMARK    2  A    between atoms: C_6  and  C_7
REMARK    3  A    between atoms: C_7  and  N_8
REMARK    4  A    between atoms: C_7  and  C_16
REMARK    5  A    between atoms: C_9  and  O_11
REMARK    6  A    between atoms: O_11  and  C_12
REMARK    7  A    between atoms: C_12  and  C_13
REMARK    8  A    between atoms: C_12  and  C_14
REMARK    9  A    between atoms: C_12  and  C_15
REMARK   10  A    between atoms: C_16  and  O_18
REMARK   11  A    between atoms: O_18  and  C_19
REMARK   12  A    between atoms: C_19  and  C_20
REMARK   13  A    between atoms: C_19  and  C_21
REMARK   14  A    between atoms: C_19  and  C_22
REMARK                            x       y       z     vdW  Elec       q    Type
REMARK                         _______ _______ _______ _____ _____    ______ ____
ROOT
ATOM      1  C   UNL     1       2.788   5.890  18.268  0.00  0.00    +0.000 C 
ENDROOT
BRANCH   1   7
ATOM      2  C   UNL     1       0.959   8.966  21.831  0.00  0.00    +0.000 C 
ATOM      3  C   UNL     1       1.332   8.736  20.396  0.00  0.00    +0.000 A 
ATOM      4  C   UNL     1       1.118   9.723  19.430  0.00  0.00    +0.000 A 
ATOM      5  C   UNL     1       1.445   9.482  18.094  0.00  0.00    +0.000 A 
ATOM      6  C   UNL     1       1.982   8.252  17.707  0.00  0.00    +0.000 A 
ATOM      7  C   UNL     1       2.203   7.245  18.658  0.00  0.00    +0.000 A 
ATOM      8  C   UNL     1       1.876   7.505  20.002  0.00  0.00    +0.000 A 
ENDBRANCH   1   7
BRANCH   1   9
ATOM      9  N   UNL     1       4.067   5.671  18.933  0.00  0.00    +0.000 N 
ATOM     10  C   UNL     1       4.997   4.854  18.354  0.00  0.00    +0.000 C 
ATOM     11  O   UNL     1       4.788   4.201  17.340  0.00  0.00    +0.000 OA
ATOM     12  H   UNL     1       4.351   6.237  19.718  0.00  0.00    +0.000 HD
BRANCH  10  13
ATOM     13  O   UNL     1       6.154   4.851  19.061  0.00  0.00    +0.000 OA
BRANCH  13  14
ATOM     14  C   UNL     1       7.331   5.505  18.499  0.00  0.00    +0.000 C 
ATOM     15  C   UNL     1       8.342   5.880  19.590  0.00  0.00    +0.000 C 
ATOM     16  C   UNL     1       7.989   4.465  17.576  0.00  0.00    +0.000 C 
ATOM     17  C   UNL     1       6.946   6.719  17.640  0.00  0.00    +0.000 C 
ENDBRANCH  13  14
ENDBRANCH  10  13
ENDBRANCH   1   9
BRANCH   1  18
ATOM     18  C   UNL     1       1.715   4.782  18.322  0.00  0.00    +0.000 C 
ATOM     19  O   UNL     1       1.213   4.325  17.298  0.00  0.00    +0.000 OA
BRANCH  18  20
ATOM     20  O   UNL     1       1.412   4.349  19.586  0.00  0.00    +0.000 OA
BRANCH  20  21
ATOM     21  C   UNL     1       1.548   2.922  19.873  0.00  0.00    +0.000 C 
ATOM     22  C   UNL     1       2.998   2.461  19.645  0.00  0.00    +0.000 C 
ATOM     23  C   UNL     1       1.231   2.721  21.368  0.00  0.00    +0.000 C 
ATOM     24  C   UNL     1       0.536   2.074  19.085  0.00  0.00    +0.000 C 
ENDBRANCH  20  21
ENDBRANCH  18  20
ENDBRANCH   1  18
TORSDOF 7
ENDMDL
MODEL 6
REMARK VINA RESULT:      -7.2      0.834      1.229
REMARK  Name = 
REMARK  14 active torsions:
REMARK  status: ('A' for Active; 'I' for Inactive)
REMARK    1  A    between atoms: C_1  and  C_2
REMARK    2  A    between atoms: C_6  and  C_7
REMARK    3  A    between atoms: C_7  and  N_8
REMARK    4  A    between atoms: C_7  and  C_16
REMARK    5  A    between atoms: C_9  and  O_11
REMARK    6  A    between atoms: O_11  and  C_12
REMARK    7  A    between atoms: C_12  and  C_13
REMARK    8  A    between atoms: C_12  and  C_14
REMARK    9  A    between atoms: C_12  and  C_15
REMARK   10  A    between atoms: C_16  and  O_18
REMARK   11  A    between atoms: O_18  and  C_19
REMARK   12  A    between atoms: C_19  and  C_20
REMARK   13  A    between atoms: C_19  and  C_21
REMARK   14  A    between atoms: C_19  and  C_22
REMARK                            x       y       z     vdW  Elec       q    Type
REMARK                         _______ _______ _______ _____ _____    ______ ____
ROOT
ATOM      1  C   UNL     1       6.030   4.664  15.831  0.00  0.00    +0.000 C 
ENDROOT
BRANCH   1   7
ATOM      2  C   UNL     1       4.332   2.863  11.429  0.00  0.00    +0.000 C 
ATOM      3  C   UNL     1       5.406   3.570  12.204  0.00  0.00    +0.000 A 
ATOM      4  C   UNL     1       6.591   3.976  11.584  0.00  0.00    +0.000 A 
ATOM      5  C   UNL     1       7.591   4.608  12.325  0.00  0.00    +0.000 A 
ATOM      6  C   UNL     1       7.424   4.834  13.693  0.00  0.00    +0.000 A 
ATOM      7  C   UNL     1       6.245   4.432  14.338  0.00  0.00    +0.000 A 
ATOM      8  C   UNL     1       5.242   3.804  13.577  0.00  0.00    +0.000 A 
ENDBRANCH   1   7
BRANCH   1   9
ATOM      9  N   UNL     1       5.168   3.631  16.393  0.00  0.00    +0.000 N 
ATOM     10  C   UNL     1       4.604   3.820  17.623  0.00  0.00    +0.000 C 
ATOM     11  O   UNL     1       4.855   4.777  18.345  0.00  0.00    +0.000 OA
ATOM     12  H   UNL     1       4.840   2.861  15.830  0.00  0.00    +0.000 HD
BRANCH  10  13
ATOM     13  O   UNL     1       3.759   2.806  17.936  0.00  0.00    +0.000 OA
BRANCH  13  14
ATOM     14  C   UNL     1       2.484   3.115  18.574  0.00  0.00    +0.000 C 
ATOM     15  C   UNL     1       2.685   3.713  19.973  0.00  0.00    +0.000 C 
ATOM     16  C   UNL     1       1.818   4.183  17.690  0.00  0.00    +0.000 C 
ATOM     17  C   UNL     1       1.559   1.889  18.608  0.00  0.00    +0.000 C 
ENDBRANCH  13  14
ENDBRANCH  10  13
ENDBRANCH   1   9
BRANCH   1  18
ATOM     18  C   UNL     1       7.358   5.000  16.541  0.00  0.00    +0.000 C 
ATOM     19  O   UNL     1       8.057   4.124  17.045  0.00  0.00    +0.000 OA
BRANCH  18  20
ATOM     20  O   UNL     1       7.687   6.330  16.525  0.00  0.00    +0.000 OA
BRANCH  20  21
ATOM     21  C   UNL     1       7.341   7.136  17.695  0.00  0.00    +0.000 C 
ATOM     22  C   UNL     1       7.783   6.430  18.987  0.00  0.00    +0.000 C 
ATOM     23  C   UNL     1       8.134   8.454  17.595  0.00  0.00    +0.000 C 
ATOM     24  C   UNL     1       5.850   7.513  17.717  0.00  0.00    +0.000 C 
ENDBRANCH  20  21
ENDBRANCH  18  20
ENDBRANCH   1  18
TORSDOF 7
ENDMDL
MODEL 7
REMARK VINA RESULT:      -7.1      3.688      6.476
REMARK  Name = 
REMARK  14 active torsions:
REMARK  status: ('A' for Active; 'I' for Inactive)
REMARK    1  A    between atoms: C_1  and  C_2
REMARK    2  A    between atoms: C_6  and  C_7
REMARK    3  A    between atoms: C_7  and  N_8
REMARK    4  A    between atoms: C_7  and  C_16
REMARK    5  A    between atoms: C_9  and  O_11
REMARK    6  A    between atoms: O_11  and  C_12
REMARK    7  A    between atoms: C_12  and  C_13
REMARK    8  A    between atoms: C_12  and  C_14
REMARK    9  A    between atoms: C_12  and  C_15
REMARK   10  A    between atoms: C_16  and  O_18
REMARK   11  A    between atoms: O_18  and  C_19
REMARK   12  A    between atoms: C_19  and  C_20
REMARK   13  A    between atoms: C_19  and  C_21
REMARK   14  A    between atoms: C_19  and  C_22
REMARK                            x       y       z     vdW  Elec       q    Type
REMARK                         _______ _______ _______ _____ _____    ______ ____
ROOT
ATOM      1  C   UNL     1       2.893   6.320  17.811  0.00  0.00    +0.000 C 
ENDROOT
BRANCH   1   7
ATOM      2  C   UNL     1       1.508   2.951  21.310  0.00  0.00    +0.000 C 
ATOM      3  C   UNL     1       1.909   3.248  19.894  0.00  0.00    +0.000 A 
ATOM      4  C   UNL     1       2.043   2.221  18.955  0.00  0.00    +0.000 A 
ATOM      5  C   UNL     1       2.443   2.510  17.649  0.00  0.00    +0.000 A 
ATOM      6  C   UNL     1       2.721   3.825  17.268  0.00  0.00    +0.000 A 
ATOM      7  C   UNL     1       2.596   4.872  18.194  0.00  0.00    +0.000 A 
ATOM      8  C   UNL     1       2.184   4.566  19.505  0.00  0.00    +0.000 A 
ENDBRANCH   1   7
BRANCH   1   9
ATOM      9  N   UNL     1       2.317   7.238  18.786  0.00  0.00    +0.000 N 
ATOM     10  C   UNL     1       2.001   8.512  18.407  0.00  0.00    +0.000 C 
ATOM     11  O   UNL     1       2.264   8.977  17.305  0.00  0.00    +0.000 OA
ATOM     12  H   UNL     1       1.987   6.910  19.680  0.00  0.00    +0.000 HD
BRANCH  10  13
ATOM     13  O   UNL     1       1.387   9.184  19.412  0.00  0.00    +0.000 OA
BRANCH  13  14
ATOM     14  C   UNL     1       0.459  10.261  19.084  0.00  0.00    +0.000 C 
ATOM     15  C   UNL     1      -0.441   9.888  17.898  0.00  0.00    +0.000 C 
ATOM     16  C   UNL     1      -0.434  10.439  20.323  0.00  0.00    +0.000 C 
ATOM     17  C   UNL     1       1.196  11.587  18.841  0.00  0.00    +0.000 C 
ENDBRANCH  13  14
ENDBRANCH  10  13
ENDBRANCH   1   9
BRANCH   1  18
ATOM     18  C   UNL     1       4.368   6.497  17.394  0.00  0.00    +0.000 C 
ATOM     19  O   UNL     1       4.680   6.756  16.234  0.00  0.00    +0.000 OA
BRANCH  18  20
ATOM     20  O   UNL     1       5.265   6.372  18.421  0.00  0.00    +0.000 OA
BRANCH  20  21
ATOM     21  C   UNL     1       6.600   5.864  18.108  0.00  0.00    +0.000 C 
ATOM     22  C   UNL     1       7.445   6.954  17.428  0.00  0.00    +0.000 C 
ATOM     23  C   UNL     1       7.284   5.518  19.444  0.00  0.00    +0.000 C 
ATOM     24  C   UNL     1       6.547   4.567  17.284  0.00  0.00    +0.000 C 
ENDBRANCH  20  21
ENDBRANCH  18  20
ENDBRANCH   1  18
TORSDOF 7
ENDMDL
MODEL 8
REMARK VINA RESULT:      -7.1      4.221      6.879
REMARK  Name = 
REMARK  14 active torsions:
REMARK  status: ('A' for Active; 'I' for Inactive)
REMARK    1  A    between atoms: C_1  and  C_2
REMARK    2  A    between atoms: C_6  and  C_7
REMARK    3  A    between atoms: C_7  and  N_8
REMARK    4  A    between atoms: C_7  and  C_16
REMARK    5  A    between atoms: C_9  and  O_11
REMARK    6  A    between atoms: O_11  and  C_12
REMARK    7  A    between atoms: C_12  and  C_13
REMARK    8  A    between atoms: C_12  and  C_14
REMARK    9  A    between atoms: C_12  and  C_15
REMARK   10  A    between atoms: C_16  and  O_18
REMARK   11  A    between atoms: O_18  and  C_19
REMARK   12  A    between atoms: C_19  and  C_20
REMARK   13  A    between atoms: C_19  and  C_21
REMARK   14  A    between atoms: C_19  and  C_22
REMARK                            x       y       z     vdW  Elec       q    Type
REMARK                         _______ _______ _______ _____ _____    ______ ____
ROOT
ATOM      1  C   UNL     1       2.424   6.558  18.814  0.00  0.00    +0.000 C 
ENDROOT
BRANCH   1   7
ATOM      2  C   UNL     1       1.529   2.597  21.817  0.00  0.00    +0.000 C 
ATOM      3  C   UNL     1       1.677   3.156  20.432  0.00  0.00    +0.000 A 
ATOM      4  C   UNL     1       1.580   2.330  19.309  0.00  0.00    +0.000 A 
ATOM      5  C   UNL     1       1.748   2.861  18.029  0.00  0.00    +0.000 A 
ATOM      6  C   UNL     1       2.021   4.220  17.856  0.00  0.00    +0.000 A 
ATOM      7  C   UNL     1       2.126   5.068  18.968  0.00  0.00    +0.000 A 
ATOM      8  C   UNL     1       1.947   4.520  20.252  0.00  0.00    +0.000 A 
ENDBRANCH   1   7
BRANCH   1   9
ATOM      9  N   UNL     1       2.257   7.250  20.086  0.00  0.00    +0.000 N 
ATOM     10  C   UNL     1       1.696   8.496  20.107  0.00  0.00    +0.000 C 
ATOM     11  O   UNL     1       1.407   9.126  19.098  0.00  0.00    +0.000 OA
ATOM     12  H   UNL     1       2.384   6.769  20.963  0.00  0.00    +0.000 HD
BRANCH  10  13
ATOM     13  O   UNL     1       1.531   8.937  21.378  0.00  0.00    +0.000 OA
BRANCH  13  14
ATOM     14  C   UNL     1       0.201   9.343  21.822  0.00  0.00    +0.000 C 
ATOM     15  C   UNL     1      -0.855   8.286  21.475  0.00  0.00    +0.000 C 
ATOM     16  C   UNL     1       0.284   9.452  23.354  0.00  0.00    +0.000 C 
ATOM     17  C   UNL     1      -0.179  10.726  21.272  0.00  0.00    +0.000 C 
ENDBRANCH  13  14
ENDBRANCH  10  13
ENDBRANCH   1   9
BRANCH   1  18
ATOM     18  C   UNL     1       3.713   6.788  17.998  0.00  0.00    +0.000 C 
ATOM     19  O   UNL     1       3.754   7.603  17.080  0.00  0.00    +0.000 OA
BRANCH  18  20
ATOM     20  O   UNL     1       4.784   6.039  18.409  0.00  0.00    +0.000 OA
BRANCH  20  21
ATOM     21  C   UNL     1       5.842   5.764  17.437  0.00  0.00    +0.000 C 
ATOM     22  C   UNL     1       6.757   6.989  17.276  0.00  0.00    +0.000 C 
ATOM     23  C   UNL     1       6.702   4.619  18.006  0.00  0.00    +0.000 C 
ATOM     24  C   UNL     1       5.279   5.274  16.092  0.00  0.00    +0.000 C 
ENDBRANCH  20  21
ENDBRANCH  18  20
ENDBRANCH   1  18
TORSDOF 7
ENDMDL
MODEL 9
REMARK VINA RESULT:      -7.0      4.065      7.073
REMARK  Name = 
REMARK  14 active torsions:
REMARK  status: ('A' for Active; 'I' for Inactive)
REMARK    1  A    between atoms: C_1  and  C_2
REMARK    2  A    between atoms: C_6  and  C_7
REMARK    3  A    between atoms: C_7  and  N_8
REMARK    4  A    between atoms: C_7  and  C_16
REMARK    5  A    between atoms: C_9  and  O_11
REMARK    6  A    between atoms: O_11  and  C_12
REMARK    7  A    between atoms: C_12  and  C_13
REMARK    8  A    between atoms: C_12  and  C_14
REMARK    9  A    between atoms: C_12  and  C_15
REMARK   10  A    between atoms: C_16  and  O_18
REMARK   11  A    between atoms: O_18  and  C_19
REMARK   12  A    between atoms: C_19  and  C_20
REMARK   13  A    between atoms: C_19  and  C_21
REMARK   14  A    between atoms: C_19  and  C_22
REMARK                            x       y       z     vdW  Elec       q    Type
REMARK                         _______ _______ _______ _____ _____    ______ ____
ROOT
ATOM      1  C   UNL     1       2.562   6.765  18.338  0.00  0.00    +0.000 C 
ENDROOT
BRANCH   1   7
ATOM      2  C   UNL     1       0.618   2.110  18.556  0.00  0.00    +0.000 C 
ATOM      3  C   UNL     1       1.216   3.291  19.263  0.00  0.00    +0.000 A 
ATOM      4  C   UNL     1       1.356   3.300  20.654  0.00  0.00    +0.000 A 
ATOM      5  C   UNL     1       1.888   4.417  21.299  0.00  0.00    +0.000 A 
ATOM      6  C   UNL     1       2.279   5.540  20.566  0.00  0.00    +0.000 A 
ATOM      7  C   UNL     1       2.145   5.555  19.170  0.00  0.00    +0.000 A 
ATOM      8  C   UNL     1       1.614   4.418  18.532  0.00  0.00    +0.000 A 
ENDBRANCH   1   7
BRANCH   1   9
ATOM      9  N   UNL     1       2.230   8.004  19.031  0.00  0.00    +0.000 N 
ATOM     10  C   UNL     1       1.895   9.113  18.305  0.00  0.00    +0.000 C 
ATOM     11  O   UNL     1       1.949   9.166  17.084  0.00  0.00    +0.000 OA
ATOM     12  H   UNL     1       2.075   8.020  20.027  0.00  0.00    +0.000 HD
BRANCH  10  13
ATOM     13  O   UNL     1       1.523  10.134  19.116  0.00  0.00    +0.000 OA
BRANCH  13  14
ATOM     14  C   UNL     1       0.102  10.385  19.337  0.00  0.00    +0.000 C 
ATOM     15  C   UNL     1      -0.393   9.721  20.629  0.00  0.00    +0.000 C 
ATOM     16  C   UNL     1      -0.036  11.908  19.500  0.00  0.00    +0.000 C 
ATOM     17  C   UNL     1      -0.740   9.963  18.124  0.00  0.00    +0.000 C 
ENDBRANCH  13  14
ENDBRANCH  10  13
ENDBRANCH   1   9
BRANCH   1  18
ATOM     18  C   UNL     1       3.982   6.585  17.762  0.00  0.00    +0.000 C 
ATOM     19  O   UNL     1       4.302   7.071  16.680  0.00  0.00    +0.000 OA
BRANCH  18  20
ATOM     20  O   UNL     1       4.834   5.878  18.568  0.00  0.00    +0.000 OA
BRANCH  20  21
ATOM     21  C   UNL     1       5.403   4.637  18.044  0.00  0.00    +0.000 C 
ATOM     22  C   UNL     1       6.926   4.770  17.878  0.00  0.00    +0.000 C 
ATOM     23  C   UNL     1       5.149   3.536  19.091  0.00  0.00    +0.000 C 
ATOM     24  C   UNL     1       4.712   4.186  16.746  0.00  0.00    +0.000 C 
ENDBRANCH  20  21
ENDBRANCH  18  20
ENDBRANCH   1  18
TORSDOF 7
ENDMDL
