MODEL 1
REMARK VINA RESULT:      -8.0      0.000      0.000
REMARK  Name = 
REMARK  5 active torsions:
REMARK  status: ('A' for Active; 'I' for Inactive)
REMARK    1  A    between atoms: C_1  and  C_2
REMARK    2  A    between atoms: C_7  and  N_8
REMARK    3  A    between atoms: C_9  and  O_11
REMARK    4  A    between atoms: O_11  and  C_12
REMARK    5  A    between atoms: C_18  and  C_19
REMARK                            x       y       z     vdW  Elec       q    Type
REMARK                         _______ _______ _______ _____ _____    ______ ____
ROOT
ATOM      1  C   UNL     1       1.997   7.319  20.424  0.00  0.00    +0.000 A 
ATOM      2  C   UNL     1       2.193   7.779  19.112  0.00  0.00    +0.000 A 
ATOM      3  C   UNL     1       2.336   6.853  18.068  0.00  0.00    +0.000 A 
ATOM      4  C   UNL     1       2.255   5.507  18.380  0.00  0.00    +0.000 A 
ATOM      5  C   UNL     1       2.353   5.060  19.694  0.00  0.00    +0.000 A 
ATOM      6  C   UNL     1       2.136   5.961  20.730  0.00  0.00    +0.000 A 
ATOM      7  C   UNL     1       2.378   3.558  19.689  0.00  0.00    +0.000 C 
ATOM      8  C   UNL     1       1.880   2.966  21.008  0.00  0.00    +0.000 C 
ATOM      9  C   UNL     1       3.654   2.804  19.257  0.00  0.00    +0.000 C 
ATOM     10  C   UNL     1       3.068   1.553  18.593  0.00  0.00    +0.000 C 
ATOM     11  N   UNL     1       1.841   1.986  17.924  0.00  0.00    +0.000 NA
ATOM     12  C   UNL     1       1.565   3.346  18.377  0.00  0.00    +0.000 C 
ATOM     13  N   UNL     1       1.970   4.452  17.460  0.00  0.00    +0.000 N 
ATOM     14  H   UNL     1       1.964   2.030  16.916  0.00  0.00    +0.000 HD
ATOM     15  H   UNL     1       2.820   4.237  16.947  0.00  0.00    +0.000 HD
ENDROOT
BRANCH   1  16
ATOM     16  O   UNL     1       1.443   8.121  21.472  0.00  0.00    +0.000 OA
BRANCH  16  18
ATOM     17  N   UNL     1       0.303  10.033  20.970  0.00  0.00    +0.000 N 
ATOM     18  C   UNL     1       0.178   8.719  21.396  0.00  0.00    +0.000 C 
ATOM     19  O   UNL     1      -0.846   8.117  21.688  0.00  0.00    +0.000 OA
ATOM     20  H   UNL     1       1.255  10.343  20.836  0.00  0.00    +0.000 HD
BRANCH  17  27
ATOM     21  C   UNL     1      -0.727  10.259  18.185  0.00  0.00    +0.000 C 
ATOM     22  C   UNL     1      -1.259  11.044  19.356  0.00  0.00    +0.000 A 
ATOM     23  C   UNL     1      -2.327  11.932  19.099  0.00  0.00    +0.000 A 
ATOM     24  C   UNL     1      -2.886  12.705  20.113  0.00  0.00    +0.000 A 
ATOM     25  C   UNL     1      -2.379  12.614  21.397  0.00  0.00    +0.000 A 
ATOM     26  C   UNL     1      -1.322  11.742  21.669  0.00  0.00    +0.000 A 
ATOM     27  C   UNL     1      -0.745  10.942  20.670  0.00  0.00    +0.000 A 
ENDBRANCH  17  27
ENDBRANCH  16  18
ENDBRANCH   1  16
TORSDOF 3
ENDMDL
MODEL 2
REMARK VINA RESULT:      -8.0      1.499      2.068
REMARK  Name = 
REMARK  5 active torsions:
REMARK  status: ('A' for Active; 'I' for Inactive)
REMARK    1  A    between atoms: C_1  and  C_2
REMARK    2  A    between atoms: C_7  and  N_8
REMARK    3  A    between atoms: C_9  and  O_11
REMARK    4  A    between atoms: O_11  and  C_12
REMARK    5  A    between atoms: C_18  and  C_19
REMARK                            x       y       z     vdW  Elec       q    Type
REMARK                         _______ _______ _______ _____ _____    ______ ____
ROOT
ATOM      1  C   UNL     1       1.700   7.104  20.405  0.00  0.00    +0.000 A 
ATOM      2  C   UNL     1       2.260   7.643  19.236  0.00  0.00    +0.000 A 
ATOM      3  C   UNL     1       2.733   6.782  18.234  0.00  0.00    +0.000 A 
ATOM      4  C   UNL     1       2.602   5.418  18.437  0.00  0.00    +0.000 A 
ATOM      5  C   UNL     1       2.320   4.897  19.696  0.00  0.00    +0.000 A 
ATOM      6  C   UNL     1       1.781   5.732  20.667  0.00  0.00    +0.000 A 
ATOM      7  C   UNL     1       2.389   3.398  19.618  0.00  0.00    +0.000 C 
ATOM      8  C   UNL     1       1.540   2.724  20.698  0.00  0.00    +0.000 C 
ATOM      9  C   UNL     1       3.756   2.686  19.546  0.00  0.00    +0.000 C 
ATOM     10  C   UNL     1       3.429   1.470  18.673  0.00  0.00    +0.000 C 
ATOM     11  N   UNL     1       2.442   1.926  17.694  0.00  0.00    +0.000 NA
ATOM     12  C   UNL     1       2.006   3.254  18.115  0.00  0.00    +0.000 C 
ATOM     13  N   UNL     1       2.632   4.416  17.419  0.00  0.00    +0.000 N 
ATOM     14  H   UNL     1       2.857   2.031  16.771  0.00  0.00    +0.000 HD
ATOM     15  H   UNL     1       3.602   4.243  17.171  0.00  0.00    +0.000 HD
ENDROOT
BRANCH   1  16
ATOM     16  O   UNL     1       0.837   7.836  21.282  0.00  0.00    +0.000 OA
BRANCH  16  18
ATOM     17  N   UNL     1       0.409  10.057  20.980  0.00  0.00    +0.000 N 
ATOM     18  C   UNL     1       1.118   9.133  21.732  0.00  0.00    +0.000 C 
ATOM     19  O   UNL     1       1.894   9.349  22.653  0.00  0.00    +0.000 OA
ATOM     20  H   UNL     1      -0.136   9.659  20.229  0.00  0.00    +0.000 HD
BRANCH  17  27
ATOM     21  C   UNL     1      -1.437  11.179  23.030  0.00  0.00    +0.000 C 
ATOM     22  C   UNL     1      -0.516  12.005  22.171  0.00  0.00    +0.000 A 
ATOM     23  C   UNL     1      -0.532  13.403  22.375  0.00  0.00    +0.000 A 
ATOM     24  C   UNL     1       0.279  14.253  21.629  0.00  0.00    +0.000 A 
ATOM     25  C   UNL     1       1.110  13.723  20.658  0.00  0.00    +0.000 A 
ATOM     26  C   UNL     1       1.139  12.343  20.442  0.00  0.00    +0.000 A 
ATOM     27  C   UNL     1       0.341  11.460  21.186  0.00  0.00    +0.000 A 
ENDBRANCH  17  27
ENDBRANCH  16  18
ENDBRANCH   1  16
TORSDOF 3
ENDMDL
MODEL 3
REMARK VINA RESULT:      -8.0      1.511      1.664
REMARK  Name = 
REMARK  5 active torsions:
REMARK  status: ('A' for Active; 'I' for Inactive)
REMARK    1  A    between atoms: C_1  and  C_2
REMARK    2  A    between atoms: C_7  and  N_8
REMARK    3  A    between atoms: C_9  and  O_11
REMARK    4  A    between atoms: O_11  and  C_12
REMARK    5  A    between atoms: C_18  and  C_19
REMARK                            x       y       z     vdW  Elec       q    Type
REMARK                         _______ _______ _______ _____ _____    ______ ____
ROOT
ATOM      1  C   UNL     1       1.572   7.118  20.516  0.00  0.00    +0.000 A 
ATOM      2  C   UNL     1       2.163   7.694  19.380  0.00  0.00    +0.000 A 
ATOM      3  C   UNL     1       2.683   6.864  18.375  0.00  0.00    +0.000 A 
ATOM      4  C   UNL     1       2.569   5.494  18.541  0.00  0.00    +0.000 A 
ATOM      5  C   UNL     1       2.253   4.939  19.778  0.00  0.00    +0.000 A 
ATOM      6  C   UNL     1       1.667   5.742  20.749  0.00  0.00    +0.000 A 
ATOM      7  C   UNL     1       2.350   3.444  19.669  0.00  0.00    +0.000 C 
ATOM      8  C   UNL     1       1.477   2.731  20.703  0.00  0.00    +0.000 C 
ATOM      9  C   UNL     1       3.731   2.756  19.626  0.00  0.00    +0.000 C 
ATOM     10  C   UNL     1       3.454   1.555  18.716  0.00  0.00    +0.000 C 
ATOM     11  N   UNL     1       2.493   2.018  17.715  0.00  0.00    +0.000 NA
ATOM     12  C   UNL     1       2.021   3.328  18.151  0.00  0.00    +0.000 C 
ATOM     13  N   UNL     1       2.650   4.517  17.503  0.00  0.00    +0.000 N 
ATOM     14  H   UNL     1       2.937   2.152  16.809  0.00  0.00    +0.000 HD
ATOM     15  H   UNL     1       3.630   4.365  17.284  0.00  0.00    +0.000 HD
ENDROOT
BRANCH   1  16
ATOM     16  O   UNL     1       0.668   7.816  21.379  0.00  0.00    +0.000 OA
BRANCH  16  18
ATOM     17  N   UNL     1      -0.055   9.980  21.393  0.00  0.00    +0.000 N 
ATOM     18  C   UNL     1       0.911   9.106  21.868  0.00  0.00    +0.000 C 
ATOM     19  O   UNL     1       1.862   9.359  22.595  0.00  0.00    +0.000 OA
ATOM     20  H   UNL     1      -0.722   9.565  20.758  0.00  0.00    +0.000 HD
BRANCH  17  27
ATOM     21  C   UNL     1       1.361  12.092  19.842  0.00  0.00    +0.000 C 
ATOM     22  C   UNL     1       0.431  12.362  20.995  0.00  0.00    +0.000 A 
ATOM     23  C   UNL     1       0.216  13.715  21.342  0.00  0.00    +0.000 A 
ATOM     24  C   UNL     1      -0.623  14.069  22.394  0.00  0.00    +0.000 A 
ATOM     25  C   UNL     1      -1.252  13.078  23.127  0.00  0.00    +0.000 A 
ATOM     26  C   UNL     1      -1.051  11.735  22.799  0.00  0.00    +0.000 A 
ATOM     27  C   UNL     1      -0.220  11.348  21.737  0.00  0.00    +0.000 A 
ENDBRANCH  17  27
ENDBRANCH  16  18
ENDBRANCH   1  16
TORSDOF 3
ENDMDL
MODEL 4
REMARK VINA RESULT:      -7.8      2.555      3.492
REMARK  Name = 
REMARK  5 active torsions:
REMARK  status: ('A' for Active; 'I' for Inactive)
REMARK    1  A    between atoms: C_1  and  C_2
REMARK    2  A    between atoms: C_7  and  N_8
REMARK    3  A    between atoms: C_9  and  O_11
REMARK    4  A    between atoms: O_11  and  C_12
REMARK    5  A    between atoms: C_18  and  C_19
REMARK                            x       y       z     vdW  Elec       q    Type
REMARK                         _______ _______ _______ _____ _____    ______ ____
ROOT
ATOM      1  C   UNL     1       2.245   8.095  18.567  0.00  0.00    +0.000 A 
ATOM      2  C   UNL     1       2.033   7.342  19.733  0.00  0.00    +0.000 A 
ATOM      3  C   UNL     1       2.783   6.176  19.949  0.00  0.00    +0.000 A 
ATOM      4  C   UNL     1       3.727   5.827  18.999  0.00  0.00    +0.000 A 
ATOM      5  C   UNL     1       3.727   6.403  17.732  0.00  0.00    +0.000 A 
ATOM      6  C   UNL     1       3.048   7.599  17.535  0.00  0.00    +0.000 A 
ATOM      7  C   UNL     1       4.768   5.716  16.894  0.00  0.00    +0.000 C 
ATOM      8  C   UNL     1       5.278   6.606  15.760  0.00  0.00    +0.000 C 
ATOM      9  C   UNL     1       4.505   4.302  16.335  0.00  0.00    +0.000 C 
ATOM     10  C   UNL     1       5.911   3.693  16.351  0.00  0.00    +0.000 C 
ATOM     11  N   UNL     1       6.574   4.233  17.538  0.00  0.00    +0.000 NA
ATOM     12  C   UNL     1       5.721   5.299  18.054  0.00  0.00    +0.000 C 
ATOM     13  N   UNL     1       4.837   4.952  19.206  0.00  0.00    +0.000 N 
ATOM     14  H   UNL     1       6.648   3.534  18.273  0.00  0.00    +0.000 HD
ATOM     15  H   UNL     1       4.502   3.995  19.161  0.00  0.00    +0.000 HD
ENDROOT
BRANCH   1  16
ATOM     16  O   UNL     1       1.864   9.469  18.430  0.00  0.00    +0.000 OA
BRANCH  16  18
ATOM     17  N   UNL     1       1.070  10.469  20.321  0.00  0.00    +0.000 N 
ATOM     18  C   UNL     1       0.736  10.021  19.051  0.00  0.00    +0.000 C 
ATOM     19  O   UNL     1      -0.356  10.059  18.502  0.00  0.00    +0.000 OA
ATOM     20  H   UNL     1       2.025  10.287  20.594  0.00  0.00    +0.000 HD
BRANCH  17  27
ATOM     21  C   UNL     1      -0.490   8.994  22.384  0.00  0.00    +0.000 C 
ATOM     22  C   UNL     1      -0.492  10.492  22.225  0.00  0.00    +0.000 A 
ATOM     23  C   UNL     1      -1.283  11.231  23.133  0.00  0.00    +0.000 A 
ATOM     24  C   UNL     1      -1.354  12.620  23.067  0.00  0.00    +0.000 A 
ATOM     25  C   UNL     1      -0.649  13.292  22.085  0.00  0.00    +0.000 A 
ATOM     26  C   UNL     1       0.137  12.577  21.177  0.00  0.00    +0.000 A 
ATOM     27  C   UNL     1       0.238  11.178  21.226  0.00  0.00    +0.000 A 
ENDBRANCH  17  27
ENDBRANCH  16  18
ENDBRANCH   1  16
TORSDOF 3
ENDMDL
MODEL 5
REMARK VINA RESULT:      -7.8      2.805      3.805
REMARK  Name = 
REMARK  5 active torsions:
REMARK  status: ('A' for Active; 'I' for Inactive)
REMARK    1  A    between atoms: C_1  and  C_2
REMARK    2  A    between atoms: C_7  and  N_8
REMARK    3  A    between atoms: C_9  and  O_11
REMARK    4  A    between atoms: O_11  and  C_12
REMARK    5  A    between atoms: C_18  and  C_19
REMARK                            x       y       z     vdW  Elec       q    Type
REMARK                         _______ _______ _______ _____ _____    ______ ____
ROOT
ATOM      1  C   UNL     1       2.567   7.991  17.918  0.00  0.00    +0.000 A 
ATOM      2  C   UNL     1       1.792   6.854  18.196  0.00  0.00    +0.000 A 
ATOM      3  C   UNL     1       2.408   5.595  18.261  0.00  0.00    +0.000 A 
ATOM      4  C   UNL     1       3.778   5.533  18.066  0.00  0.00    +0.000 A 
ATOM      5  C   UNL     1       4.480   6.600  17.512  0.00  0.00    +0.000 A 
ATOM      6  C   UNL     1       3.901   7.863  17.516  0.00  0.00    +0.000 A 
ATOM      7  C   UNL     1       5.903   6.173  17.294  0.00  0.00    +0.000 C 
ATOM      8  C   UNL     1       6.868   7.361  17.281  0.00  0.00    +0.000 C 
ATOM      9  C   UNL     1       6.262   5.231  16.126  0.00  0.00    +0.000 C 
ATOM     10  C   UNL     1       7.423   4.426  16.718  0.00  0.00    +0.000 C 
ATOM     11  N   UNL     1       7.113   4.249  18.137  0.00  0.00    +0.000 NA
ATOM     12  C   UNL     1       5.976   5.115  18.435  0.00  0.00    +0.000 C 
ATOM     13  N   UNL     1       4.633   4.466  18.479  0.00  0.00    +0.000 N 
ATOM     14  H   UNL     1       6.817   3.296  18.336  0.00  0.00    +0.000 HD
ATOM     15  H   UNL     1       4.547   3.710  17.807  0.00  0.00    +0.000 HD
ENDROOT
BRANCH   1  16
ATOM     16  O   UNL     1       2.154   9.327  18.224  0.00  0.00    +0.000 OA
BRANCH  16  18
ATOM     17  N   UNL     1       0.079  10.197  17.844  0.00  0.00    +0.000 N 
ATOM     18  C   UNL     1       0.914   9.637  18.799  0.00  0.00    +0.000 C 
ATOM     19  O   UNL     1       0.673   9.428  19.980  0.00  0.00    +0.000 OA
ATOM     20  H   UNL     1       0.505  10.328  16.937  0.00  0.00    +0.000 HD
BRANCH  17  27
ATOM     21  C   UNL     1      -0.661  12.677  19.317  0.00  0.00    +0.000 C 
ATOM     22  C   UNL     1      -1.652  11.739  18.679  0.00  0.00    +0.000 A 
ATOM     23  C   UNL     1      -3.018  12.081  18.785  0.00  0.00    +0.000 A 
ATOM     24  C   UNL     1      -4.011  11.276  18.233  0.00  0.00    +0.000 A 
ATOM     25  C   UNL     1      -3.656  10.111  17.577  0.00  0.00    +0.000 A 
ATOM     26  C   UNL     1      -2.310   9.756  17.463  0.00  0.00    +0.000 A 
ATOM     27  C   UNL     1      -1.287  10.552  18.000  0.00  0.00    +0.000 A 
ENDBRANCH  17  27
ENDBRANCH  16  18
ENDBRANCH   1  16
TORSDOF 3
ENDMDL
MODEL 6
REMARK VINA RESULT:      -7.8      1.934      2.434
REMARK  Name = 
REMARK  5 active torsions:
REMARK  status: ('A' for Active; 'I' for Inactive)
REMARK    1  A    between atoms: C_1  and  C_2
REMARK    2  A    between atoms: C_7  and  N_8
REMARK    3  A    between atoms: C_9  and  O_11
REMARK    4  A    between atoms: O_11  and  C_12
REMARK    5  A    between atoms: C_18  and  C_19
REMARK                            x       y       z     vdW  Elec       q    Type
REMARK                         _______ _______ _______ _____ _____    ______ ____
ROOT
ATOM      1  C   UNL     1       3.108   7.453  17.757  0.00  0.00    +0.000 A 
ATOM      2  C   UNL     1       4.474   7.505  17.438  0.00  0.00    +0.000 A 
ATOM      3  C   UNL     1       5.225   6.320  17.411  0.00  0.00    +0.000 A 
ATOM      4  C   UNL     1       4.568   5.131  17.682  0.00  0.00    +0.000 A 
ATOM      5  C   UNL     1       3.308   5.118  18.272  0.00  0.00    +0.000 A 
ATOM      6  C   UNL     1       2.532   6.270  18.233  0.00  0.00    +0.000 A 
ATOM      7  C   UNL     1       2.935   3.693  18.569  0.00  0.00    +0.000 C 
ATOM      8  C   UNL     1       1.420   3.493  18.634  0.00  0.00    +0.000 C 
ATOM      9  C   UNL     1       3.583   2.952  19.758  0.00  0.00    +0.000 C 
ATOM     10  C   UNL     1       3.648   1.515  19.233  0.00  0.00    +0.000 C 
ATOM     11  N   UNL     1       3.922   1.618  17.800  0.00  0.00    +0.000 NA
ATOM     12  C   UNL     1       3.768   3.023  17.436  0.00  0.00    +0.000 C 
ATOM     13  N   UNL     1       5.021   3.826  17.319  0.00  0.00    +0.000 N 
ATOM     14  H   UNL     1       4.883   1.362  17.586  0.00  0.00    +0.000 HD
ATOM     15  H   UNL     1       5.729   3.537  17.987  0.00  0.00    +0.000 HD
ENDROOT
BRANCH   1  16
ATOM     16  O   UNL     1       2.176   8.488  17.425  0.00  0.00    +0.000 OA
BRANCH  16  18
ATOM     17  N   UNL     1       0.503  10.008  17.741  0.00  0.00    +0.000 N 
ATOM     18  C   UNL     1       1.383   9.144  18.376  0.00  0.00    +0.000 C 
ATOM     19  O   UNL     1       1.509   8.946  19.577  0.00  0.00    +0.000 OA
ATOM     20  H   UNL     1       0.609  10.053  16.738  0.00  0.00    +0.000 HD
BRANCH  17  27
ATOM     21  C   UNL     1      -2.274   9.870  16.675  0.00  0.00    +0.000 C 
ATOM     22  C   UNL     1      -1.857  10.703  17.858  0.00  0.00    +0.000 A 
ATOM     23  C   UNL     1      -2.867  11.453  18.502  0.00  0.00    +0.000 A 
ATOM     24  C   UNL     1      -2.582  12.256  19.602  0.00  0.00    +0.000 A 
ATOM     25  C   UNL     1      -1.283  12.336  20.069  0.00  0.00    +0.000 A 
ATOM     26  C   UNL     1      -0.271  11.603  19.445  0.00  0.00    +0.000 A 
ATOM     27  C   UNL     1      -0.529  10.775  18.341  0.00  0.00    +0.000 A 
ENDBRANCH  17  27
ENDBRANCH  16  18
ENDBRANCH   1  16
TORSDOF 3
ENDMDL
MODEL 7
REMARK VINA RESULT:      -7.8      5.673      7.429
REMARK  Name = 
REMARK  5 active torsions:
REMARK  status: ('A' for Active; 'I' for Inactive)
REMARK    1  A    between atoms: C_1  and  C_2
REMARK    2  A    between atoms: C_7  and  N_8
REMARK    3  A    between atoms: C_9  and  O_11
REMARK    4  A    between atoms: O_11  and  C_12
REMARK    5  A    between atoms: C_18  and  C_19
REMARK                            x       y       z     vdW  Elec       q    Type
REMARK                         _______ _______ _______ _____ _____    ______ ____
ROOT
ATOM      1  C   UNL     1       6.398   6.476  17.194  0.00  0.00    +0.000 A 
ATOM      2  C   UNL     1       6.755   5.335  16.459  0.00  0.00    +0.000 A 
ATOM      3  C   UNL     1       5.876   4.242  16.408  0.00  0.00    +0.000 A 
ATOM      4  C   UNL     1       4.669   4.349  17.077  0.00  0.00    +0.000 A 
ATOM      5  C   UNL     1       4.452   5.344  18.025  0.00  0.00    +0.000 A 
ATOM      6  C   UNL     1       5.275   6.464  18.029  0.00  0.00    +0.000 A 
ATOM      7  C   UNL     1       3.117   5.106  18.672  0.00  0.00    +0.000 C 
ATOM      8  C   UNL     1       2.513   6.390  19.243  0.00  0.00    +0.000 C 
ATOM      9  C   UNL     1       2.948   3.975  19.709  0.00  0.00    +0.000 C 
ATOM     10  C   UNL     1       1.504   3.530  19.453  0.00  0.00    +0.000 C 
ATOM     11  N   UNL     1       1.289   3.659  18.012  0.00  0.00    +0.000 NA
ATOM     12  C   UNL     1       2.435   4.383  17.472  0.00  0.00    +0.000 C 
ATOM     13  N   UNL     1       3.503   3.563  16.828  0.00  0.00    +0.000 N 
ATOM     14  H   UNL     1       1.274   2.750  17.556  0.00  0.00    +0.000 HD
ATOM     15  H   UNL     1       3.624   2.661  17.279  0.00  0.00    +0.000 HD
ENDROOT
BRANCH   1  16
ATOM     16  O   UNL     1       6.989   7.765  16.995  0.00  0.00    +0.000 OA
BRANCH  16  18
ATOM     17  N   UNL     1       8.013   9.697  17.645  0.00  0.00    +0.000 N 
ATOM     18  C   UNL     1       7.912   8.334  17.880  0.00  0.00    +0.000 C 
ATOM     19  O   UNL     1       8.517   7.667  18.709  0.00  0.00    +0.000 OA
ATOM     20  H   UNL     1       7.458  10.032  16.871  0.00  0.00    +0.000 HD
BRANCH  17  27
ATOM     21  C   UNL     1       7.777  12.603  17.037  0.00  0.00    +0.000 C 
ATOM     22  C   UNL     1       8.642  12.030  18.128  0.00  0.00    +0.000 A 
ATOM     23  C   UNL     1       9.373  12.948  18.915  0.00  0.00    +0.000 A 
ATOM     24  C   UNL     1      10.203  12.517  19.946  0.00  0.00    +0.000 A 
ATOM     25  C   UNL     1      10.328  11.163  20.199  0.00  0.00    +0.000 A 
ATOM     26  C   UNL     1       9.614  10.240  19.431  0.00  0.00    +0.000 A 
ATOM     27  C   UNL     1       8.760  10.645  18.393  0.00  0.00    +0.000 A 
ENDBRANCH  17  27
ENDBRANCH  16  18
ENDBRANCH   1  16
TORSDOF 3
ENDMDL
MODEL 8
REMARK VINA RESULT:      -7.8      2.503      3.222
REMARK  Name = 
REMARK  5 active torsions:
REMARK  status: ('A' for Active; 'I' for Inactive)
REMARK    1  A    between atoms: C_1  and  C_2
REMARK    2  A    between atoms: C_7  and  N_8
REMARK    3  A    between atoms: C_9  and  O_11
REMARK    4  A    between atoms: O_11  and  C_12
REMARK    5  A    between atoms: C_18  and  C_19
REMARK                            x       y       z     vdW  Elec       q    Type
REMARK                         _______ _______ _______ _____ _____    ______ ____
ROOT
ATOM      1  C   UNL     1       1.948   8.733  18.596  0.00  0.00    +0.000 A 
ATOM      2  C   UNL     1       1.506   8.201  19.818  0.00  0.00    +0.000 A 
ATOM      3  C   UNL     1       2.021   6.975  20.266  0.00  0.00    +0.000 A 
ATOM      4  C   UNL     1       2.973   6.346  19.481  0.00  0.00    +0.000 A 
ATOM      5  C   UNL     1       3.185   6.725  18.158  0.00  0.00    +0.000 A 
ATOM      6  C   UNL     1       2.742   7.971  17.733  0.00  0.00    +0.000 A 
ATOM      7  C   UNL     1       4.163   5.767  17.539  0.00  0.00    +0.000 C 
ATOM      8  C   UNL     1       4.918   6.390  16.363  0.00  0.00    +0.000 C 
ATOM      9  C   UNL     1       3.712   4.346  17.140  0.00  0.00    +0.000 C 
ATOM     10  C   UNL     1       4.984   3.531  17.393  0.00  0.00    +0.000 C 
ATOM     11  N   UNL     1       5.621   4.128  18.568  0.00  0.00    +0.000 NA
ATOM     12  C   UNL     1       4.922   5.379  18.842  0.00  0.00    +0.000 C 
ATOM     13  N   UNL     1       3.893   5.348  19.923  0.00  0.00    +0.000 N 
ATOM     14  H   UNL     1       5.508   3.540  19.390  0.00  0.00    +0.000 HD
ATOM     15  H   UNL     1       3.403   4.459  19.965  0.00  0.00    +0.000 HD
ENDROOT
BRANCH   1  16
ATOM     16  O   UNL     1       1.823  10.115  18.241  0.00  0.00    +0.000 OA
BRANCH  16  18
ATOM     17  N   UNL     1      -0.409  10.539  18.022  0.00  0.00    +0.000 N 
ATOM     18  C   UNL     1       0.760  10.925  18.662  0.00  0.00    +0.000 C 
ATOM     19  O   UNL     1       0.912  11.830  19.471  0.00  0.00    +0.000 OA
ATOM     20  H   UNL     1      -0.293   9.796  17.348  0.00  0.00    +0.000 HD
BRANCH  17  27
ATOM     21  C   UNL     1      -2.599   9.925  16.100  0.00  0.00    +0.000 C 
ATOM     22  C   UNL     1      -2.771  10.739  17.355  0.00  0.00    +0.000 A 
ATOM     23  C   UNL     1      -4.070  11.225  17.630  0.00  0.00    +0.000 A 
ATOM     24  C   UNL     1      -4.331  11.990  18.763  0.00  0.00    +0.000 A 
ATOM     25  C   UNL     1      -3.299  12.295  19.633  0.00  0.00    +0.000 A 
ATOM     26  C   UNL     1      -2.009  11.824  19.377  0.00  0.00    +0.000 A 
ATOM     27  C   UNL     1      -1.717  11.041  18.249  0.00  0.00    +0.000 A 
ENDBRANCH  17  27
ENDBRANCH  16  18
ENDBRANCH   1  16
TORSDOF 3
ENDMDL
MODEL 9
REMARK VINA RESULT:      -7.8      2.014      2.983
REMARK  Name = 
REMARK  5 active torsions:
REMARK  status: ('A' for Active; 'I' for Inactive)
REMARK    1  A    between atoms: C_1  and  C_2
REMARK    2  A    between atoms: C_7  and  N_8
REMARK    3  A    between atoms: C_9  and  O_11
REMARK    4  A    between atoms: O_11  and  C_12
REMARK    5  A    between atoms: C_18  and  C_19
REMARK                            x       y       z     vdW  Elec       q    Type
REMARK                         _______ _______ _______ _____ _____    ______ ____
ROOT
ATOM      1  C   UNL     1       2.472   7.509  18.644  0.00  0.00    +0.000 A 
ATOM      2  C   UNL     1       1.946   7.317  19.931  0.00  0.00    +0.000 A 
ATOM      3  C   UNL     1       2.040   6.055  20.536  0.00  0.00    +0.000 A 
ATOM      4  C   UNL     1       2.677   5.045  19.834  0.00  0.00    +0.000 A 
ATOM      5  C   UNL     1       2.931   5.160  18.470  0.00  0.00    +0.000 A 
ATOM      6  C   UNL     1       2.912   6.420  17.884  0.00  0.00    +0.000 A 
ATOM      7  C   UNL     1       3.491   3.856  17.977  0.00  0.00    +0.000 C 
ATOM      8  C   UNL     1       4.345   4.032  16.720  0.00  0.00    +0.000 C 
ATOM      9  C   UNL     1       2.564   2.638  17.780  0.00  0.00    +0.000 C 
ATOM     10  C   UNL     1       3.499   1.475  18.128  0.00  0.00    +0.000 C 
ATOM     11  N   UNL     1       4.364   1.958  19.204  0.00  0.00    +0.000 NA
ATOM     12  C   UNL     1       4.146   3.397  19.314  0.00  0.00    +0.000 C 
ATOM     13  N   UNL     1       3.229   3.855  20.399  0.00  0.00    +0.000 N 
ATOM     14  H   UNL     1       4.105   1.552  20.100  0.00  0.00    +0.000 HD
ATOM     15  H   UNL     1       2.470   3.200  20.566  0.00  0.00    +0.000 HD
ENDROOT
BRANCH   1  16
ATOM     16  O   UNL     1       2.801   8.794  18.105  0.00  0.00    +0.000 OA
BRANCH  16  18
ATOM     17  N   UNL     1       0.598   9.382  18.199  0.00  0.00    +0.000 N 
ATOM     18  C   UNL     1       1.892   9.857  18.039  0.00  0.00    +0.000 C 
ATOM     19  O   UNL     1       2.252  11.012  17.854  0.00  0.00    +0.000 OA
ATOM     20  H   UNL     1       0.527   8.379  18.285  0.00  0.00    +0.000 HD
BRANCH  17  27
ATOM     21  C   UNL     1       0.036  10.967  20.657  0.00  0.00    +0.000 C 
ATOM     22  C   UNL     1      -0.862  10.924  19.448  0.00  0.00    +0.000 A 
ATOM     23  C   UNL     1      -2.039  11.704  19.495  0.00  0.00    +0.000 A 
ATOM     24  C   UNL     1      -2.934  11.729  18.430  0.00  0.00    +0.000 A 
ATOM     25  C   UNL     1      -2.678  10.964  17.306  0.00  0.00    +0.000 A 
ATOM     26  C   UNL     1      -1.519  10.186  17.242  0.00  0.00    +0.000 A 
ATOM     27  C   UNL     1      -0.592  10.149  18.294  0.00  0.00    +0.000 A 
ENDBRANCH  17  27
ENDBRANCH  16  18
ENDBRANCH   1  16
TORSDOF 3
ENDMDL
