MODEL 1
REMARK VINA RESULT:      -8.3      0.000      0.000
REMARK  Name = 
REMARK  5 active torsions:
REMARK  status: ('A' for Active; 'I' for Inactive)
REMARK    1  A    between atoms: C_2  and  C_20
REMARK    2  A    between atoms: N_3  and  C_4
REMARK    3  A    between atoms: C_4  and  C_5
REMARK    4  A    between atoms: C_5  and  C_6
REMARK    5  A    between atoms: C_9  and  C_10
REMARK                            x       y       z     vdW  Elec       q    Type
REMARK                         _______ _______ _______ _____ _____    ______ ____
ROOT
ATOM      1  C   UNL     1       2.934   5.625  19.120  0.00  0.00    +0.000 A 
ATOM      2  C   UNL     1       2.236   5.457  20.317  0.00  0.00    +0.000 A 
ATOM      3  C   UNL     1       1.496   6.501  20.869  0.00  0.00    +0.000 A 
ATOM      4  C   UNL     1       1.463   7.774  20.285  0.00  0.00    +0.000 A 
ATOM      5  C   UNL     1       2.181   7.945  19.087  0.00  0.00    +0.000 A 
ATOM      6  C   UNL     1       2.905   6.886  18.512  0.00  0.00    +0.000 A 
ENDROOT
BRANCH   4   7
ATOM      7  C   UNL     1       0.724   8.874  20.939  0.00  0.00    +0.000 A 
ATOM      8  C   UNL     1       0.531   8.876  22.336  0.00  0.00    +0.000 A 
ATOM      9  C   UNL     1      -0.189   9.883  22.978  0.00  0.00    +0.000 A 
ATOM     10  C   UNL     1      -0.720  10.938  22.241  0.00  0.00    +0.000 A 
ATOM     11 CL   UNL     1      -1.592  12.158  23.096  0.00  0.00    +0.000 Cl
ATOM     12  C   UNL     1      -0.531  10.972  20.855  0.00  0.00    +0.000 A 
ATOM     13 CL   UNL     1      -1.149  12.256  19.875  0.00  0.00    +0.000 Cl
ATOM     14  C   UNL     1       0.178   9.947  20.214  0.00  0.00    +0.000 A 
ENDBRANCH   4   7
BRANCH   1  15
ATOM     15  C   UNL     1       3.764   4.507  18.527  0.00  0.00    +0.000 C 
BRANCH  15  16
ATOM     16  C   UNL     1       5.177   4.937  18.110  0.00  0.00    +0.000 C 
BRANCH  16  19
ATOM     17  O   UNL     1       7.594   4.687  16.666  0.00  0.00    +0.000 OA
ATOM     18  C   UNL     1       6.541   4.863  16.062  0.00  0.00    +0.000 C 
ATOM     19  N   UNL     1       5.324   5.058  16.684  0.00  0.00    +0.000 N 
ATOM     20  H   UNL     1       4.512   5.093  16.070  0.00  0.00    +0.000 HD
BRANCH  18  21
ATOM     21  C   UNL     1       6.470   4.956  14.531  0.00  0.00    +0.000 C 
ATOM     22  C   UNL     1       5.986   3.610  13.989  0.00  0.00    +0.000 C 
ATOM     23  C   UNL     1       5.980   3.602  12.466  0.00  0.00    +0.000 C 
ATOM     24  C   UNL     1       7.340   4.030  11.925  0.00  0.00    +0.000 C 
ATOM     25  C   UNL     1       7.783   5.361  12.529  0.00  0.00    +0.000 C 
ATOM     26  N   UNL     1       7.815   5.301  13.992  0.00  0.00    +0.000 NA
ATOM     27  H   UNL     1       8.068   6.225  14.350  0.00  0.00    +0.000 HD
ENDBRANCH  18  21
ENDBRANCH  16  19
ENDBRANCH  15  16
ENDBRANCH   1  15
TORSDOF 5
ENDMDL
MODEL 2
REMARK VINA RESULT:      -8.2      5.789      8.105
REMARK  Name = 
REMARK  5 active torsions:
REMARK  status: ('A' for Active; 'I' for Inactive)
REMARK    1  A    between atoms: C_2  and  C_20
REMARK    2  A    between atoms: N_3  and  C_4
REMARK    3  A    between atoms: C_4  and  C_5
REMARK    4  A    between atoms: C_5  and  C_6
REMARK    5  A    between atoms: C_9  and  C_10
REMARK                            x       y       z     vdW  Elec       q    Type
REMARK                         _______ _______ _______ _____ _____    ______ ____
ROOT
ATOM      1  C   UNL     1       7.208   6.383  17.687  0.00  0.00    +0.000 A 
ATOM      2  C   UNL     1       8.062   6.452  18.789  0.00  0.00    +0.000 A 
ATOM      3  C   UNL     1       8.629   7.662  19.181  0.00  0.00    +0.000 A 
ATOM      4  C   UNL     1       8.420   8.846  18.462  0.00  0.00    +0.000 A 
ATOM      5  C   UNL     1       7.572   8.769  17.341  0.00  0.00    +0.000 A 
ATOM      6  C   UNL     1       6.974   7.556  16.959  0.00  0.00    +0.000 A 
ENDROOT
BRANCH   4   7
ATOM      7  C   UNL     1       9.098  10.095  18.869  0.00  0.00    +0.000 A 
ATOM      8  C   UNL     1       9.286  10.395  20.233  0.00  0.00    +0.000 A 
ATOM      9  C   UNL     1       9.893  11.580  20.649  0.00  0.00    +0.000 A 
ATOM     10  C   UNL     1      10.354  12.495  19.706  0.00  0.00    +0.000 A 
ATOM     11 CL   UNL     1      11.106  13.937  20.285  0.00  0.00    +0.000 Cl
ATOM     12  C   UNL     1      10.195  12.217  18.344  0.00  0.00    +0.000 A 
ATOM     13 CL   UNL     1      10.754  13.298  17.115  0.00  0.00    +0.000 Cl
ATOM     14  C   UNL     1       9.568  11.032  17.934  0.00  0.00    +0.000 A 
ENDBRANCH   4   7
BRANCH   1  15
ATOM     15  C   UNL     1       6.608   5.068  17.235  0.00  0.00    +0.000 C 
BRANCH  15  16
ATOM     16  C   UNL     1       5.297   5.222  16.453  0.00  0.00    +0.000 C 
BRANCH  16  19
ATOM     17  O   UNL     1       3.368   6.763  17.829  0.00  0.00    +0.000 OA
ATOM     18  C   UNL     1       3.237   5.544  17.763  0.00  0.00    +0.000 C 
ATOM     19  N   UNL     1       4.158   4.707  17.167  0.00  0.00    +0.000 N 
ATOM     20  H   UNL     1       3.885   3.729  17.090  0.00  0.00    +0.000 HD
BRANCH  18  21
ATOM     21  C   UNL     1       2.055   4.803  18.403  0.00  0.00    +0.000 C 
ATOM     22  C   UNL     1       2.134   4.989  19.919  0.00  0.00    +0.000 C 
ATOM     23  C   UNL     1       1.041   4.199  20.627  0.00  0.00    +0.000 C 
ATOM     24  C   UNL     1       1.063   2.741  20.183  0.00  0.00    +0.000 C 
ATOM     25  C   UNL     1       1.016   2.624  18.662  0.00  0.00    +0.000 C 
ATOM     26  N   UNL     1       2.114   3.361  18.033  0.00  0.00    +0.000 NA
ATOM     27  H   UNL     1       2.013   3.294  17.018  0.00  0.00    +0.000 HD
ENDBRANCH  18  21
ENDBRANCH  16  19
ENDBRANCH  15  16
ENDBRANCH   1  15
TORSDOF 5
ENDMDL
MODEL 3
REMARK VINA RESULT:      -8.2      0.371      1.026
REMARK  Name = 
REMARK  5 active torsions:
REMARK  status: ('A' for Active; 'I' for Inactive)
REMARK    1  A    between atoms: C_2  and  C_20
REMARK    2  A    between atoms: N_3  and  C_4
REMARK    3  A    between atoms: C_4  and  C_5
REMARK    4  A    between atoms: C_5  and  C_6
REMARK    5  A    between atoms: C_9  and  C_10
REMARK                            x       y       z     vdW  Elec       q    Type
REMARK                         _______ _______ _______ _____ _____    ______ ____
ROOT
ATOM      1  C   UNL     1       2.959   5.384  19.064  0.00  0.00    +0.000 A 
ATOM      2  C   UNL     1       2.884   6.617  18.414  0.00  0.00    +0.000 A 
ATOM      3  C   UNL     1       2.277   7.713  19.022  0.00  0.00    +0.000 A 
ATOM      4  C   UNL     1       1.666   7.618  20.279  0.00  0.00    +0.000 A 
ATOM      5  C   UNL     1       1.728   6.369  20.925  0.00  0.00    +0.000 A 
ATOM      6  C   UNL     1       2.366   5.268  20.328  0.00  0.00    +0.000 A 
ENDROOT
BRANCH   4   7
ATOM      7  C   UNL     1       0.969   8.786  20.859  0.00  0.00    +0.000 A 
ATOM      8  C   UNL     1       0.585   8.788  22.215  0.00  0.00    +0.000 A 
ATOM      9  C   UNL     1      -0.102   9.861  22.783  0.00  0.00    +0.000 A 
ATOM     10  C   UNL     1      -0.405  10.981  22.012  0.00  0.00    +0.000 A 
ATOM     11 CL   UNL     1      -1.248  12.279  22.777  0.00  0.00    +0.000 Cl
ATOM     12  C   UNL     1      -0.022  11.014  20.667  0.00  0.00    +0.000 A 
ATOM     13 CL   UNL     1      -0.351  12.374  19.651  0.00  0.00    +0.000 Cl
ATOM     14  C   UNL     1       0.652   9.924  20.099  0.00  0.00    +0.000 A 
ENDBRANCH   4   7
BRANCH   1  15
ATOM     15  C   UNL     1       3.592   4.179  18.401  0.00  0.00    +0.000 C 
BRANCH  15  16
ATOM     16  C   UNL     1       5.056   4.394  17.993  0.00  0.00    +0.000 C 
BRANCH  16  19
ATOM     17  O   UNL     1       7.380   5.343  16.695  0.00  0.00    +0.000 OA
ATOM     18  C   UNL     1       6.414   4.987  16.027  0.00  0.00    +0.000 C 
ATOM     19  N   UNL     1       5.218   4.569  16.574  0.00  0.00    +0.000 N 
ATOM     20  H   UNL     1       4.531   4.205  15.915  0.00  0.00    +0.000 HD
BRANCH  18  21
ATOM     21  C   UNL     1       6.407   5.032  14.493  0.00  0.00    +0.000 C 
ATOM     22  C   UNL     1       5.915   3.679  13.974  0.00  0.00    +0.000 C 
ATOM     23  C   UNL     1       5.970   3.621  12.453  0.00  0.00    +0.000 C 
ATOM     24  C   UNL     1       7.359   4.004  11.955  0.00  0.00    +0.000 C 
ATOM     25  C   UNL     1       7.806   5.345  12.533  0.00  0.00    +0.000 C 
ATOM     26  N   UNL     1       7.779   5.332  13.998  0.00  0.00    +0.000 NA
ATOM     27  H   UNL     1       8.038   6.262  14.336  0.00  0.00    +0.000 HD
ENDBRANCH  18  21
ENDBRANCH  16  19
ENDBRANCH  15  16
ENDBRANCH   1  15
TORSDOF 5
ENDMDL
MODEL 4
REMARK VINA RESULT:      -8.0      5.730      8.135
REMARK  Name = 
REMARK  5 active torsions:
REMARK  status: ('A' for Active; 'I' for Inactive)
REMARK    1  A    between atoms: C_2  and  C_20
REMARK    2  A    between atoms: N_3  and  C_4
REMARK    3  A    between atoms: C_4  and  C_5
REMARK    4  A    between atoms: C_5  and  C_6
REMARK    5  A    between atoms: C_9  and  C_10
REMARK                            x       y       z     vdW  Elec       q    Type
REMARK                         _______ _______ _______ _____ _____    ______ ____
ROOT
ATOM      1  C   UNL     1       7.320   6.296  17.671  0.00  0.00    +0.000 A 
ATOM      2  C   UNL     1       8.100   6.399  18.824  0.00  0.00    +0.000 A 
ATOM      3  C   UNL     1       8.629   7.623  19.225  0.00  0.00    +0.000 A 
ATOM      4  C   UNL     1       8.455   8.789  18.467  0.00  0.00    +0.000 A 
ATOM      5  C   UNL     1       7.682   8.678  17.297  0.00  0.00    +0.000 A 
ATOM      6  C   UNL     1       7.121   7.450  16.905  0.00  0.00    +0.000 A 
ENDROOT
BRANCH   4   7
ATOM      7  C   UNL     1       9.093  10.054  18.889  0.00  0.00    +0.000 A 
ATOM      8  C   UNL     1       9.281  10.339  20.256  0.00  0.00    +0.000 A 
ATOM      9  C   UNL     1       9.850  11.538  20.687  0.00  0.00    +0.000 A 
ATOM     10  C   UNL     1      10.273  12.482  19.754  0.00  0.00    +0.000 A 
ATOM     11 CL   UNL     1      10.979  13.940  20.350  0.00  0.00    +0.000 Cl
ATOM     12  C   UNL     1      10.114  12.220  18.389  0.00  0.00    +0.000 A 
ATOM     13 CL   UNL     1      10.627  13.337  17.173  0.00  0.00    +0.000 Cl
ATOM     14  C   UNL     1       9.524  11.020  17.966  0.00  0.00    +0.000 A 
ENDBRANCH   4   7
BRANCH   1  15
ATOM     15  C   UNL     1       6.762   4.965  17.212  0.00  0.00    +0.000 C 
BRANCH  15  16
ATOM     16  C   UNL     1       5.455   5.082  16.417  0.00  0.00    +0.000 C 
BRANCH  16  19
ATOM     17  O   UNL     1       4.105   2.730  17.217  0.00  0.00    +0.000 OA
ATOM     18  C   UNL     1       3.730   3.819  17.639  0.00  0.00    +0.000 C 
ATOM     19  N   UNL     1       4.287   5.023  17.256  0.00  0.00    +0.000 N 
ATOM     20  H   UNL     1       3.953   5.846  17.754  0.00  0.00    +0.000 HD
BRANCH  18  21
ATOM     21  C   UNL     1       2.541   3.970  18.599  0.00  0.00    +0.000 C 
ATOM     22  C   UNL     1       3.056   4.558  19.914  0.00  0.00    +0.000 C 
ATOM     23  C   UNL     1       1.942   4.649  20.948  0.00  0.00    +0.000 C 
ATOM     24  C   UNL     1       1.249   3.300  21.106  0.00  0.00    +0.000 C 
ATOM     25  C   UNL     1       0.790   2.752  19.758  0.00  0.00    +0.000 C 
ATOM     26  N   UNL     1       1.906   2.641  18.816  0.00  0.00    +0.000 NA
ATOM     27  H   UNL     1       1.542   2.317  17.916  0.00  0.00    +0.000 HD
ENDBRANCH  18  21
ENDBRANCH  16  19
ENDBRANCH  15  16
ENDBRANCH   1  15
TORSDOF 5
ENDMDL
MODEL 5
REMARK VINA RESULT:      -7.9      5.648      9.314
REMARK  Name = 
REMARK  5 active torsions:
REMARK  status: ('A' for Active; 'I' for Inactive)
REMARK    1  A    between atoms: C_2  and  C_20
REMARK    2  A    between atoms: N_3  and  C_4
REMARK    3  A    between atoms: C_4  and  C_5
REMARK    4  A    between atoms: C_5  and  C_6
REMARK    5  A    between atoms: C_9  and  C_10
REMARK                            x       y       z     vdW  Elec       q    Type
REMARK                         _______ _______ _______ _____ _____    ______ ____
ROOT
ATOM      1  C   UNL     1       1.036   8.924  20.660  0.00  0.00    +0.000 A 
ATOM      2  C   UNL     1       1.446   9.311  19.383  0.00  0.00    +0.000 A 
ATOM      3  C   UNL     1       2.150   8.434  18.560  0.00  0.00    +0.000 A 
ATOM      4  C   UNL     1       2.527   7.156  18.990  0.00  0.00    +0.000 A 
ATOM      5  C   UNL     1       2.127   6.776  20.285  0.00  0.00    +0.000 A 
ATOM      6  C   UNL     1       1.391   7.646  21.108  0.00  0.00    +0.000 A 
ENDROOT
BRANCH   4   7
ATOM      7  C   UNL     1       3.335   6.282  18.113  0.00  0.00    +0.000 A 
ATOM      8  C   UNL     1       4.253   6.838  17.199  0.00  0.00    +0.000 A 
ATOM      9  C   UNL     1       5.006   6.043  16.336  0.00  0.00    +0.000 A 
ATOM     10  C   UNL     1       4.879   4.656  16.379  0.00  0.00    +0.000 A 
ATOM     11 CL   UNL     1       5.847   3.727  15.292  0.00  0.00    +0.000 Cl
ATOM     12  C   UNL     1       3.988   4.075  17.287  0.00  0.00    +0.000 A 
ATOM     13 CL   UNL     1       3.787   2.361  17.408  0.00  0.00    +0.000 Cl
ATOM     14  C   UNL     1       3.222   4.882  18.139  0.00  0.00    +0.000 A 
ENDBRANCH   4   7
BRANCH   1  15
ATOM     15  C   UNL     1       0.296   9.878  21.573  0.00  0.00    +0.000 C 
BRANCH  15  16
ATOM     16  C   UNL     1      -0.334  11.072  20.844  0.00  0.00    +0.000 C 
BRANCH  16  19
ATOM     17  O   UNL     1      -1.470  12.735  18.860  0.00  0.00    +0.000 OA
ATOM     18  C   UNL     1      -1.772  11.547  18.902  0.00  0.00    +0.000 C 
ATOM     19  N   UNL     1      -1.317  10.675  19.870  0.00  0.00    +0.000 N 
ATOM     20  H   UNL     1      -1.560   9.695  19.736  0.00  0.00    +0.000 HD
BRANCH  18  21
ATOM     21  C   UNL     1      -2.755  10.907  17.912  0.00  0.00    +0.000 C 
ATOM     22  C   UNL     1      -1.950  10.119  16.877  0.00  0.00    +0.000 C 
ATOM     23  C   UNL     1      -2.860   9.531  15.805  0.00  0.00    +0.000 C 
ATOM     24  C   UNL     1      -3.744  10.617  15.202  0.00  0.00    +0.000 C 
ATOM     25  C   UNL     1      -4.493  11.388  16.286  0.00  0.00    +0.000 C 
ATOM     26  N   UNL     1      -3.571  11.971  17.263  0.00  0.00    +0.000 NA
ATOM     27  H   UNL     1      -4.119  12.433  17.993  0.00  0.00    +0.000 HD
ENDBRANCH  18  21
ENDBRANCH  16  19
ENDBRANCH  15  16
ENDBRANCH   1  15
TORSDOF 5
ENDMDL
MODEL 6
REMARK VINA RESULT:      -7.9      6.073     10.557
REMARK  Name = 
REMARK  5 active torsions:
REMARK  status: ('A' for Active; 'I' for Inactive)
REMARK    1  A    between atoms: C_2  and  C_20
REMARK    2  A    between atoms: N_3  and  C_4
REMARK    3  A    between atoms: C_4  and  C_5
REMARK    4  A    between atoms: C_5  and  C_6
REMARK    5  A    between atoms: C_9  and  C_10
REMARK                            x       y       z     vdW  Elec       q    Type
REMARK                         _______ _______ _______ _____ _____    ______ ____
ROOT
ATOM      1  C   UNL     1       0.731   9.640  19.753  0.00  0.00    +0.000 A 
ATOM      2  C   UNL     1       1.242   8.548  20.456  0.00  0.00    +0.000 A 
ATOM      3  C   UNL     1       2.088   7.630  19.839  0.00  0.00    +0.000 A 
ATOM      4  C   UNL     1       2.417   7.725  18.480  0.00  0.00    +0.000 A 
ATOM      5  C   UNL     1       1.886   8.817  17.770  0.00  0.00    +0.000 A 
ATOM      6  C   UNL     1       1.056   9.763  18.397  0.00  0.00    +0.000 A 
ENDROOT
BRANCH   4   7
ATOM      7  C   UNL     1       3.260   6.690  17.844  0.00  0.00    +0.000 A 
ATOM      8  C   UNL     1       4.376   7.056  17.065  0.00  0.00    +0.000 A 
ATOM      9  C   UNL     1       5.172   6.105  16.426  0.00  0.00    +0.000 A 
ATOM     10  C   UNL     1       4.887   4.750  16.569  0.00  0.00    +0.000 A 
ATOM     11 CL   UNL     1       5.916   3.622  15.762  0.00  0.00    +0.000 Cl
ATOM     12  C   UNL     1       3.795   4.355  17.350  0.00  0.00    +0.000 A 
ATOM     13 CL   UNL     1       3.387   2.691  17.585  0.00  0.00    +0.000 Cl
ATOM     14  C   UNL     1       2.990   5.318  17.974  0.00  0.00    +0.000 A 
ENDBRANCH   4   7
BRANCH   1  15
ATOM     15  C   UNL     1      -0.212  10.629  20.407  0.00  0.00    +0.000 C 
BRANCH  15  16
ATOM     16  C   UNL     1      -0.715  11.726  19.460  0.00  0.00    +0.000 C 
BRANCH  16  19
ATOM     17  O   UNL     1      -2.496  11.441  17.283  0.00  0.00    +0.000 OA
ATOM     18  C   UNL     1      -2.938  11.676  18.402  0.00  0.00    +0.000 C 
ATOM     19  N   UNL     1      -2.144  11.892  19.510  0.00  0.00    +0.000 N 
ATOM     20  H   UNL     1      -2.634  11.977  20.399  0.00  0.00    +0.000 HD
BRANCH  18  21
ATOM     21  C   UNL     1      -4.440  11.825  18.684  0.00  0.00    +0.000 C 
ATOM     22  C   UNL     1      -5.180  11.850  17.346  0.00  0.00    +0.000 C 
ATOM     23  C   UNL     1      -6.671  12.089  17.548  0.00  0.00    +0.000 C 
ATOM     24  C   UNL     1      -6.901  13.331  18.402  0.00  0.00    +0.000 C 
ATOM     25  C   UNL     1      -6.110  13.261  19.706  0.00  0.00    +0.000 C 
ATOM     26  N   UNL     1      -4.679  13.077  19.455  0.00  0.00    +0.000 NA
ATOM     27  H   UNL     1      -4.200  12.987  20.354  0.00  0.00    +0.000 HD
ENDBRANCH  18  21
ENDBRANCH  16  19
ENDBRANCH  15  16
ENDBRANCH   1  15
TORSDOF 5
ENDMDL
MODEL 7
REMARK VINA RESULT:      -7.9      5.839     10.499
REMARK  Name = 
REMARK  5 active torsions:
REMARK  status: ('A' for Active; 'I' for Inactive)
REMARK    1  A    between atoms: C_2  and  C_20
REMARK    2  A    between atoms: N_3  and  C_4
REMARK    3  A    between atoms: C_4  and  C_5
REMARK    4  A    between atoms: C_5  and  C_6
REMARK    5  A    between atoms: C_9  and  C_10
REMARK                            x       y       z     vdW  Elec       q    Type
REMARK                         _______ _______ _______ _____ _____    ______ ____
ROOT
ATOM      1  C   UNL     1       0.523  10.113  19.727  0.00  0.00    +0.000 A 
ATOM      2  C   UNL     1       0.947   9.025  20.493  0.00  0.00    +0.000 A 
ATOM      3  C   UNL     1       1.754   8.032  19.943  0.00  0.00    +0.000 A 
ATOM      4  C   UNL     1       2.128   8.046  18.593  0.00  0.00    +0.000 A 
ATOM      5  C   UNL     1       1.685   9.135  17.820  0.00  0.00    +0.000 A 
ATOM      6  C   UNL     1       0.895  10.154  18.378  0.00  0.00    +0.000 A 
ENDROOT
BRANCH   4   7
ATOM      7  C   UNL     1       2.926   6.936  18.029  0.00  0.00    +0.000 A 
ATOM      8  C   UNL     1       4.166   7.189  17.409  0.00  0.00    +0.000 A 
ATOM      9  C   UNL     1       4.926   6.168  16.839  0.00  0.00    +0.000 A 
ATOM     10  C   UNL     1       4.477   4.851  16.896  0.00  0.00    +0.000 A 
ATOM     11 CL   UNL     1       5.469   3.631  16.183  0.00  0.00    +0.000 Cl
ATOM     12  C   UNL     1       3.258   4.566  17.520  0.00  0.00    +0.000 A 
ATOM     13 CL   UNL     1       2.641   2.955  17.642  0.00  0.00    +0.000 Cl
ATOM     14  C   UNL     1       2.490   5.601  18.074  0.00  0.00    +0.000 A 
ENDBRANCH   4   7
BRANCH   1  15
ATOM     15  C   UNL     1      -0.377  11.183  20.308  0.00  0.00    +0.000 C 
BRANCH  15  16
ATOM     16  C   UNL     1      -0.845  12.223  19.281  0.00  0.00    +0.000 C 
BRANCH  16  19
ATOM     17  O   UNL     1      -2.631  10.960  17.491  0.00  0.00    +0.000 OA
ATOM     18  C   UNL     1      -3.072  11.678  18.383  0.00  0.00    +0.000 C 
ATOM     19  N   UNL     1      -2.275  12.383  19.263  0.00  0.00    +0.000 N 
ATOM     20  H   UNL     1      -2.763  12.861  20.019  0.00  0.00    +0.000 HD
BRANCH  18  21
ATOM     21  C   UNL     1      -4.574  11.927  18.579  0.00  0.00    +0.000 C 
ATOM     22  C   UNL     1      -4.808  12.337  20.034  0.00  0.00    +0.000 C 
ATOM     23  C   UNL     1      -6.293  12.511  20.323  0.00  0.00    +0.000 C 
ATOM     24  C   UNL     1      -7.068  11.269  19.900  0.00  0.00    +0.000 C 
ATOM     25  C   UNL     1      -6.766  10.893  18.452  0.00  0.00    +0.000 C 
ATOM     26  N   UNL     1      -5.332  10.691  18.239  0.00  0.00    +0.000 NA
ATOM     27  H   UNL     1      -5.174  10.491  17.248  0.00  0.00    +0.000 HD
ENDBRANCH  18  21
ENDBRANCH  16  19
ENDBRANCH  15  16
ENDBRANCH   1  15
TORSDOF 5
ENDMDL
MODEL 8
REMARK VINA RESULT:      -7.9      5.905     10.197
REMARK  Name = 
REMARK  5 active torsions:
REMARK  status: ('A' for Active; 'I' for Inactive)
REMARK    1  A    between atoms: C_2  and  C_20
REMARK    2  A    between atoms: N_3  and  C_4
REMARK    3  A    between atoms: C_4  and  C_5
REMARK    4  A    between atoms: C_5  and  C_6
REMARK    5  A    between atoms: C_9  and  C_10
REMARK                            x       y       z     vdW  Elec       q    Type
REMARK                         _______ _______ _______ _____ _____    ______ ____
ROOT
ATOM      1  C   UNL     1       0.620  10.333  19.831  0.00  0.00    +0.000 A 
ATOM      2  C   UNL     1       0.580   9.513  20.959  0.00  0.00    +0.000 A 
ATOM      3  C   UNL     1       1.186   8.259  20.957  0.00  0.00    +0.000 A 
ATOM      4  C   UNL     1       1.810   7.741  19.815  0.00  0.00    +0.000 A 
ATOM      5  C   UNL     1       1.835   8.563  18.673  0.00  0.00    +0.000 A 
ATOM      6  C   UNL     1       1.250   9.841  18.681  0.00  0.00    +0.000 A 
ENDROOT
BRANCH   4   7
ATOM      7  C   UNL     1       2.380   6.376  19.831  0.00  0.00    +0.000 A 
ATOM      8  C   UNL     1       3.491   6.055  19.025  0.00  0.00    +0.000 A 
ATOM      9  C   UNL     1       4.030   4.769  18.994  0.00  0.00    +0.000 A 
ATOM     10  C   UNL     1       3.485   3.767  19.792  0.00  0.00    +0.000 A 
ATOM     11 CL   UNL     1       4.206   2.199  19.716  0.00  0.00    +0.000 Cl
ATOM     12  C   UNL     1       2.393   4.059  20.614  0.00  0.00    +0.000 A 
ATOM     13 CL   UNL     1       1.671   2.870  21.642  0.00  0.00    +0.000 Cl
ATOM     14  C   UNL     1       1.844   5.350  20.626  0.00  0.00    +0.000 A 
ENDBRANCH   4   7
BRANCH   1  15
ATOM     15  C   UNL     1      -0.059  11.686  19.814  0.00  0.00    +0.000 C 
BRANCH  15  16
ATOM     16  C   UNL     1      -0.669  12.056  18.455  0.00  0.00    +0.000 C 
BRANCH  16  19
ATOM     17  O   UNL     1      -2.680  10.132  17.962  0.00  0.00    +0.000 OA
ATOM     18  C   UNL     1      -2.996  11.262  18.322  0.00  0.00    +0.000 C 
ATOM     19  N   UNL     1      -2.089  12.283  18.525  0.00  0.00    +0.000 N 
ATOM     20  H   UNL     1      -2.467  13.142  18.919  0.00  0.00    +0.000 HD
BRANCH  18  21
ATOM     21  C   UNL     1      -4.456  11.690  18.521  0.00  0.00    +0.000 C 
ATOM     22  C   UNL     1      -5.089  11.899  17.144  0.00  0.00    +0.000 C 
ATOM     23  C   UNL     1      -6.516  12.415  17.269  0.00  0.00    +0.000 C 
ATOM     24  C   UNL     1      -6.561  13.650  18.161  0.00  0.00    +0.000 C 
ATOM     25  C   UNL     1      -5.886  13.388  19.505  0.00  0.00    +0.000 C 
ATOM     26  N   UNL     1      -4.503  12.940  19.330  0.00  0.00    +0.000 NA
ATOM     27  H   UNL     1      -4.110  12.731  20.251  0.00  0.00    +0.000 HD
ENDBRANCH  18  21
ENDBRANCH  16  19
ENDBRANCH  15  16
ENDBRANCH   1  15
TORSDOF 5
ENDMDL
MODEL 9
REMARK VINA RESULT:      -7.9      5.874      8.183
REMARK  Name = 
REMARK  5 active torsions:
REMARK  status: ('A' for Active; 'I' for Inactive)
REMARK    1  A    between atoms: C_2  and  C_20
REMARK    2  A    between atoms: N_3  and  C_4
REMARK    3  A    between atoms: C_4  and  C_5
REMARK    4  A    between atoms: C_5  and  C_6
REMARK    5  A    between atoms: C_9  and  C_10
REMARK                            x       y       z     vdW  Elec       q    Type
REMARK                         _______ _______ _______ _____ _____    ______ ____
ROOT
ATOM      1  C   UNL     1       7.281   6.634  17.693  0.00  0.00    +0.000 A 
ATOM      2  C   UNL     1       7.080   7.836  17.012  0.00  0.00    +0.000 A 
ATOM      3  C   UNL     1       7.733   9.002  17.407  0.00  0.00    +0.000 A 
ATOM      4  C   UNL     1       8.569   9.037  18.531  0.00  0.00    +0.000 A 
ATOM      5  C   UNL     1       8.755   7.828  19.225  0.00  0.00    +0.000 A 
ATOM      6  C   UNL     1       8.122   6.643  18.812  0.00  0.00    +0.000 A 
ENDROOT
BRANCH   4   7
ATOM      7  C   UNL     1       9.187  10.310  18.959  0.00  0.00    +0.000 A 
ATOM      8  C   UNL     1       9.349  10.601  20.329  0.00  0.00    +0.000 A 
ATOM      9  C   UNL     1       9.899  11.806  20.765  0.00  0.00    +0.000 A 
ATOM     10  C   UNL     1      10.327  12.752  19.837  0.00  0.00    +0.000 A 
ATOM     11 CL   UNL     1      11.009  14.219  20.442  0.00  0.00    +0.000 Cl
ATOM     12  C   UNL     1      10.194  12.485  18.471  0.00  0.00    +0.000 A 
ATOM     13 CL   UNL     1      10.715  13.605  17.260  0.00  0.00    +0.000 Cl
ATOM     14  C   UNL     1       9.623  11.279  18.041  0.00  0.00    +0.000 A 
ENDBRANCH   4   7
BRANCH   1  15
ATOM     15  C   UNL     1       6.555   5.368  17.289  0.00  0.00    +0.000 C 
BRANCH  15  16
ATOM     16  C   UNL     1       5.305   5.616  16.434  0.00  0.00    +0.000 C 
BRANCH  16  19
ATOM     17  O   UNL     1       4.183   3.090  17.028  0.00  0.00    +0.000 OA
ATOM     18  C   UNL     1       3.642   4.109  17.447  0.00  0.00    +0.000 C 
ATOM     19  N   UNL     1       4.082   5.385  17.156  0.00  0.00    +0.000 N 
ATOM     20  H   UNL     1       3.607   6.141  17.646  0.00  0.00    +0.000 HD
BRANCH  18  21
ATOM     21  C   UNL     1       2.363   4.078  18.294  0.00  0.00    +0.000 C 
ATOM     22  C   UNL     1       2.653   4.763  19.630  0.00  0.00    +0.000 C 
ATOM     23  C   UNL     1       1.449   4.687  20.560  0.00  0.00    +0.000 C 
ATOM     24  C   UNL     1       0.972   3.246  20.698  0.00  0.00    +0.000 C 
ATOM     25  C   UNL     1       0.733   2.608  19.332  0.00  0.00    +0.000 C 
ATOM     26  N   UNL     1       1.934   2.666  18.496  0.00  0.00    +0.000 NA
ATOM     27  H   UNL     1       1.710   2.273  17.578  0.00  0.00    +0.000 HD
ENDBRANCH  18  21
ENDBRANCH  16  19
ENDBRANCH  15  16
ENDBRANCH   1  15
TORSDOF 5
ENDMDL
