MODEL 1
REMARK VINA RESULT:      -7.9      0.000      0.000
REMARK  Name = 
REMARK  7 active torsions:
REMARK  status: ('A' for Active; 'I' for Inactive)
REMARK    1  A    between atoms: C_1  and  C_2
REMARK    2  A    between atoms: C_2  and  C_3
REMARK    3  A    between atoms: C_2  and  O_4
REMARK    4  A    between atoms: O_4  and  C_5
REMARK    5  A    between atoms: N_7  and  C_8
REMARK    6  A    between atoms: C_15  and  C_17
REMARK    7  A    between atoms: C_17  and  N_18
REMARK                            x       y       z     vdW  Elec       q    Type
REMARK                         _______ _______ _______ _____ _____    ______ ____
ROOT
ATOM      1  C   UNL     1      -3.592  11.585  17.583  0.00  0.00    +0.000 A 
ATOM      2  C   UNL     1      -3.086  10.526  16.833  0.00  0.00    +0.000 A 
ATOM      3  C   UNL     1      -1.856   9.953  17.134  0.00  0.00    +0.000 A 
ATOM      4  C   UNL     1      -1.062  10.427  18.187  0.00  0.00    +0.000 A 
ATOM      5  C   UNL     1      -1.527  11.521  18.941  0.00  0.00    +0.000 A 
ATOM      6  C   UNL     1      -2.794  12.091  18.620  0.00  0.00    +0.000 A 
ATOM      7  N   UNL     1      -0.830  12.023  20.089  0.00  0.00    +0.000 N 
ATOM      8  C   UNL     1      -0.616  13.380  20.357  0.00  0.00    +0.000 C 
ATOM      9  O   UNL     1      -0.466  13.851  21.489  0.00  0.00    +0.000 OA
ATOM     10  C   UNL     1      -0.460  11.054  21.063  0.00  0.00    +0.000 A 
ATOM     11  C   UNL     1      -1.064  11.036  22.324  0.00  0.00    +0.000 A 
ATOM     12  C   UNL     1      -0.674  10.087  23.272  0.00  0.00    +0.000 A 
ATOM     13  C   UNL     1       0.339   9.176  22.976  0.00  0.00    +0.000 A 
ATOM     14  C   UNL     1       0.965   9.207  21.731  0.00  0.00    +0.000 A 
ATOM     15  C   UNL     1       0.568  10.145  20.770  0.00  0.00    +0.000 A 
ATOM     16  C   UNL     1       1.221  10.194  19.419  0.00  0.00    +0.000 C 
ATOM     17  C   UNL     1       0.251   9.693  18.362  0.00  0.00    +0.000 C 
ENDROOT
BRANCH   1  20
ATOM     18  C   UNL     1      -6.057  11.582  17.803  0.00  0.00    +0.000 C 
ATOM     19  O   UNL     1      -6.156  10.591  18.519  0.00  0.00    +0.000 OA
ATOM     20  N   UNL     1      -4.877  12.126  17.334  0.00  0.00    +0.000 N 
ATOM     21  H   UNL     1      -4.956  13.027  16.881  0.00  0.00    +0.000 HD
BRANCH  18  22
ATOM     22  O   UNL     1      -7.152  12.308  17.419  0.00  0.00    +0.000 OA
BRANCH  22  24
ATOM     23  C   UNL     1      -7.333  14.517  16.421  0.00  0.00    +0.000 C 
ATOM     24  C   UNL     1      -6.999  13.724  17.684  0.00  0.00    +0.000 C 
ATOM     25  C   UNL     1      -7.915  14.150  18.825  0.00  0.00    +0.000 C 
ENDBRANCH  22  24
ENDBRANCH  18  22
ENDBRANCH   1  20
BRANCH   8  26
ATOM     26  C   UNL     1      -0.350  14.266  19.126  0.00  0.00    +0.000 C 
BRANCH  26  27
ATOM     27  N   UNL     1       1.058  14.681  19.006  0.00  0.00    +0.000 NA
ATOM     28  C   UNL     1       1.849  13.742  18.200  0.00  0.00    +0.000 C 
ATOM     29  C   UNL     1       3.319  14.154  18.228  0.00  0.00    +0.000 C 
ATOM     30  C   UNL     1       3.505  15.582  17.728  0.00  0.00    +0.000 C 
ATOM     31  C   UNL     1       2.580  16.539  18.473  0.00  0.00    +0.000 C 
ATOM     32  C   UNL     1       1.136  16.041  18.455  0.00  0.00    +0.000 C 
ENDBRANCH  26  27
ENDBRANCH   8  26
TORSDOF 5
ENDMDL
MODEL 2
REMARK VINA RESULT:      -7.5      2.890      6.607
REMARK  Name = 
REMARK  7 active torsions:
REMARK  status: ('A' for Active; 'I' for Inactive)
REMARK    1  A    between atoms: C_1  and  C_2
REMARK    2  A    between atoms: C_2  and  C_3
REMARK    3  A    between atoms: C_2  and  O_4
REMARK    4  A    between atoms: O_4  and  C_5
REMARK    5  A    between atoms: N_7  and  C_8
REMARK    6  A    between atoms: C_15  and  C_17
REMARK    7  A    between atoms: C_17  and  N_18
REMARK                            x       y       z     vdW  Elec       q    Type
REMARK                         _______ _______ _______ _____ _____    ______ ____
ROOT
ATOM      1  C   UNL     1       0.708   9.110  21.433  0.00  0.00    +0.000 A 
ATOM      2  C   UNL     1       0.294   9.218  22.758  0.00  0.00    +0.000 A 
ATOM      3  C   UNL     1      -0.561  10.235  23.165  0.00  0.00    +0.000 A 
ATOM      4  C   UNL     1      -1.025  11.208  22.269  0.00  0.00    +0.000 A 
ATOM      5  C   UNL     1      -0.595  11.149  20.930  0.00  0.00    +0.000 A 
ATOM      6  C   UNL     1       0.278  10.094  20.531  0.00  0.00    +0.000 A 
ATOM      7  N   UNL     1      -1.080  12.044  19.921  0.00  0.00    +0.000 N 
ATOM      8  C   UNL     1      -0.274  12.676  18.966  0.00  0.00    +0.000 C 
ATOM      9  O   UNL     1      -0.667  13.041  17.853  0.00  0.00    +0.000 OA
ATOM     10  C   UNL     1      -2.494  12.172  19.832  0.00  0.00    +0.000 A 
ATOM     11  C   UNL     1      -3.192  11.682  18.724  0.00  0.00    +0.000 A 
ATOM     12  C   UNL     1      -4.578  11.832  18.649  0.00  0.00    +0.000 A 
ATOM     13  C   UNL     1      -5.267  12.500  19.660  0.00  0.00    +0.000 A 
ATOM     14  C   UNL     1      -4.574  13.016  20.754  0.00  0.00    +0.000 A 
ATOM     15  C   UNL     1      -3.186  12.854  20.845  0.00  0.00    +0.000 A 
ATOM     16  C   UNL     1      -2.417  13.395  22.015  0.00  0.00    +0.000 C 
ATOM     17  C   UNL     1      -1.936  12.246  22.888  0.00  0.00    +0.000 C 
ENDROOT
BRANCH   1  20
ATOM     18  C   UNL     1       1.969   7.878  19.696  0.00  0.00    +0.000 C 
ATOM     19  O   UNL     1       1.770   8.655  18.767  0.00  0.00    +0.000 OA
ATOM     20  N   UNL     1       1.517   8.034  20.992  0.00  0.00    +0.000 N 
ATOM     21  H   UNL     1       1.892   7.385  21.671  0.00  0.00    +0.000 HD
BRANCH  18  22
ATOM     22  O   UNL     1       2.736   6.753  19.545  0.00  0.00    +0.000 OA
BRANCH  22  24
ATOM     23  C   UNL     1       4.200   6.230  17.677  0.00  0.00    +0.000 C 
ATOM     24  C   UNL     1       2.756   6.277  18.176  0.00  0.00    +0.000 C 
ATOM     25  C   UNL     1       2.128   4.892  18.090  0.00  0.00    +0.000 C 
ENDBRANCH  22  24
ENDBRANCH  18  22
ENDBRANCH   1  20
BRANCH   8  26
ATOM     26  C   UNL     1       1.120  13.110  19.458  0.00  0.00    +0.000 C 
BRANCH  26  27
ATOM     27  N   UNL     1       1.676  14.240  18.694  0.00  0.00    +0.000 NA
ATOM     28  C   UNL     1       1.339  15.537  19.297  0.00  0.00    +0.000 C 
ATOM     29  C   UNL     1       1.825  16.665  18.389  0.00  0.00    +0.000 C 
ATOM     30  C   UNL     1       3.324  16.563  18.132  0.00  0.00    +0.000 C 
ATOM     31  C   UNL     1       3.694  15.169  17.638  0.00  0.00    +0.000 C 
ATOM     32  C   UNL     1       3.131  14.087  18.558  0.00  0.00    +0.000 C 
ENDBRANCH  26  27
ENDBRANCH   8  26
TORSDOF 5
ENDMDL
MODEL 3
REMARK VINA RESULT:      -7.3      3.371      6.757
REMARK  Name = 
REMARK  7 active torsions:
REMARK  status: ('A' for Active; 'I' for Inactive)
REMARK    1  A    between atoms: C_1  and  C_2
REMARK    2  A    between atoms: C_2  and  C_3
REMARK    3  A    between atoms: C_2  and  O_4
REMARK    4  A    between atoms: O_4  and  C_5
REMARK    5  A    between atoms: N_7  and  C_8
REMARK    6  A    between atoms: C_15  and  C_17
REMARK    7  A    between atoms: C_17  and  N_18
REMARK                            x       y       z     vdW  Elec       q    Type
REMARK                         _______ _______ _______ _____ _____    ______ ____
ROOT
ATOM      1  C   UNL     1       1.274   8.818  20.417  0.00  0.00    +0.000 A 
ATOM      2  C   UNL     1       1.026   8.590  21.769  0.00  0.00    +0.000 A 
ATOM      3  C   UNL     1       0.240   9.460  22.514  0.00  0.00    +0.000 A 
ATOM      4  C   UNL     1      -0.316  10.616  21.949  0.00  0.00    +0.000 A 
ATOM      5  C   UNL     1      -0.053  10.896  20.594  0.00  0.00    +0.000 A 
ATOM      6  C   UNL     1       0.751   9.986  19.845  0.00  0.00    +0.000 A 
ATOM      7  N   UNL     1      -0.645  12.004  19.904  0.00  0.00    +0.000 N 
ATOM      8  C   UNL     1       0.047  12.865  19.044  0.00  0.00    +0.000 C 
ATOM      9  O   UNL     1      -0.474  13.486  18.111  0.00  0.00    +0.000 OA
ATOM     10  C   UNL     1      -2.057  12.126  20.021  0.00  0.00    +0.000 A 
ATOM     11  C   UNL     1      -2.892  11.912  18.920  0.00  0.00    +0.000 A 
ATOM     12  C   UNL     1      -4.275  12.052  19.053  0.00  0.00    +0.000 A 
ATOM     13  C   UNL     1      -4.826  12.438  20.274  0.00  0.00    +0.000 A 
ATOM     14  C   UNL     1      -3.998  12.681  21.368  0.00  0.00    +0.000 A 
ATOM     15  C   UNL     1      -2.611  12.525  21.247  0.00  0.00    +0.000 A 
ATOM     16  C   UNL     1      -1.699  12.774  22.412  0.00  0.00    +0.000 C 
ATOM     17  C   UNL     1      -1.131  11.455  22.910  0.00  0.00    +0.000 C 
ENDROOT
BRANCH   1  20
ATOM     18  C   UNL     1       2.128   6.551  19.912  0.00  0.00    +0.000 C 
ATOM     19  O   UNL     1       1.595   5.963  20.848  0.00  0.00    +0.000 OA
ATOM     20  N   UNL     1       2.009   7.898  19.630  0.00  0.00    +0.000 N 
ATOM     21  H   UNL     1       2.387   8.197  18.741  0.00  0.00    +0.000 HD
BRANCH  18  22
ATOM     22  O   UNL     1       2.890   5.891  18.985  0.00  0.00    +0.000 OA
BRANCH  22  24
ATOM     23  C   UNL     1       1.564   4.310  17.702  0.00  0.00    +0.000 C 
ATOM     24  C   UNL     1       2.533   4.492  18.869  0.00  0.00    +0.000 C 
ATOM     25  C   UNL     1       3.780   3.645  18.649  0.00  0.00    +0.000 C 
ENDBRANCH  22  24
ENDBRANCH  18  22
ENDBRANCH   1  20
BRANCH   8  26
ATOM     26  C   UNL     1       1.496  13.188  19.454  0.00  0.00    +0.000 C 
BRANCH  26  27
ATOM     27  N   UNL     1       2.037  14.378  18.775  0.00  0.00    +0.000 NA
ATOM     28  C   UNL     1       1.926  15.588  19.601  0.00  0.00    +0.000 C 
ATOM     29  C   UNL     1       2.377  16.803  18.793  0.00  0.00    +0.000 C 
ATOM     30  C   UNL     1       3.801  16.630  18.279  0.00  0.00    +0.000 C 
ATOM     31  C   UNL     1       3.951  15.305  17.539  0.00  0.00    +0.000 C 
ATOM     32  C   UNL     1       3.432  14.140  18.378  0.00  0.00    +0.000 C 
ENDBRANCH  26  27
ENDBRANCH   8  26
TORSDOF 5
ENDMDL
MODEL 4
REMARK VINA RESULT:      -7.2      1.795      2.144
REMARK  Name = 
REMARK  7 active torsions:
REMARK  status: ('A' for Active; 'I' for Inactive)
REMARK    1  A    between atoms: C_1  and  C_2
REMARK    2  A    between atoms: C_2  and  C_3
REMARK    3  A    between atoms: C_2  and  O_4
REMARK    4  A    between atoms: O_4  and  C_5
REMARK    5  A    between atoms: N_7  and  C_8
REMARK    6  A    between atoms: C_15  and  C_17
REMARK    7  A    between atoms: C_17  and  N_18
REMARK                            x       y       z     vdW  Elec       q    Type
REMARK                         _______ _______ _______ _____ _____    ______ ____
ROOT
ATOM      1  C   UNL     1      -4.407  12.319  19.414  0.00  0.00    +0.000 A 
ATOM      2  C   UNL     1      -4.409  11.486  18.298  0.00  0.00    +0.000 A 
ATOM      3  C   UNL     1      -3.256  10.827  17.890  0.00  0.00    +0.000 A 
ATOM      4  C   UNL     1      -2.038  10.987  18.567  0.00  0.00    +0.000 A 
ATOM      5  C   UNL     1      -1.994  11.852  19.677  0.00  0.00    +0.000 A 
ATOM      6  C   UNL     1      -3.190  12.514  20.083  0.00  0.00    +0.000 A 
ATOM      7  N   UNL     1      -0.821  12.015  20.484  0.00  0.00    +0.000 N 
ATOM      8  C   UNL     1      -0.334  13.247  20.936  0.00  0.00    +0.000 C 
ATOM      9  O   UNL     1       0.337  13.398  21.962  0.00  0.00    +0.000 OA
ATOM     10  C   UNL     1      -0.214  10.815  20.947  0.00  0.00    +0.000 A 
ATOM     11  C   UNL     1      -0.234  10.476  22.304  0.00  0.00    +0.000 A 
ATOM     12  C   UNL     1       0.383   9.301  22.740  0.00  0.00    +0.000 A 
ATOM     13  C   UNL     1       1.047   8.479  21.831  0.00  0.00    +0.000 A 
ATOM     14  C   UNL     1       1.095   8.825  20.482  0.00  0.00    +0.000 A 
ATOM     15  C   UNL     1       0.464   9.993  20.034  0.00  0.00    +0.000 A 
ATOM     16  C   UNL     1       0.495  10.385  18.586  0.00  0.00    +0.000 C 
ATOM     17  C   UNL     1      -0.885  10.204  17.976  0.00  0.00    +0.000 C 
ENDROOT
BRANCH   1  20
ATOM     18  C   UNL     1      -6.538  12.309  20.674  0.00  0.00    +0.000 C 
ATOM     19  O   UNL     1      -6.468  11.161  21.104  0.00  0.00    +0.000 OA
ATOM     20  N   UNL     1      -5.593  12.935  19.884  0.00  0.00    +0.000 N 
ATOM     21  H   UNL     1      -5.728  13.927  19.739  0.00  0.00    +0.000 HD
BRANCH  18  22
ATOM     22  O   UNL     1      -7.583  13.135  20.988  0.00  0.00    +0.000 OA
BRANCH  22  24
ATOM     23  C   UNL     1      -7.833  15.395  21.848  0.00  0.00    +0.000 C 
ATOM     24  C   UNL     1      -7.290  13.993  22.119  0.00  0.00    +0.000 C 
ATOM     25  C   UNL     1      -7.917  13.427  23.388  0.00  0.00    +0.000 C 
ENDBRANCH  22  24
ENDBRANCH  18  22
ENDBRANCH   1  20
BRANCH   8  26
ATOM     26  C   UNL     1      -0.488  14.422  19.951  0.00  0.00    +0.000 C 
BRANCH  26  27
ATOM     27  N   UNL     1       0.802  14.986  19.520  0.00  0.00    +0.000 NA
ATOM     28  C   UNL     1       1.550  14.066  18.652  0.00  0.00    +0.000 C 
ATOM     29  C   UNL     1       2.928  14.651  18.352  0.00  0.00    +0.000 C 
ATOM     30  C   UNL     1       2.818  16.028  17.708  0.00  0.00    +0.000 C 
ATOM     31  C   UNL     1       1.926  16.943  18.540  0.00  0.00    +0.000 C 
ATOM     32  C   UNL     1       0.587  16.278  18.852  0.00  0.00    +0.000 C 
ENDBRANCH  26  27
ENDBRANCH   8  26
TORSDOF 5
ENDMDL
MODEL 5
REMARK VINA RESULT:      -7.0      3.058      6.675
REMARK  Name = 
REMARK  7 active torsions:
REMARK  status: ('A' for Active; 'I' for Inactive)
REMARK    1  A    between atoms: C_1  and  C_2
REMARK    2  A    between atoms: C_2  and  C_3
REMARK    3  A    between atoms: C_2  and  O_4
REMARK    4  A    between atoms: O_4  and  C_5
REMARK    5  A    between atoms: N_7  and  C_8
REMARK    6  A    between atoms: C_15  and  C_17
REMARK    7  A    between atoms: C_17  and  N_18
REMARK                            x       y       z     vdW  Elec       q    Type
REMARK                         _______ _______ _______ _____ _____    ______ ____
ROOT
ATOM      1  C   UNL     1       0.645   9.076  21.402  0.00  0.00    +0.000 A 
ATOM      2  C   UNL     1       0.251   9.219  22.730  0.00  0.00    +0.000 A 
ATOM      3  C   UNL     1      -0.582  10.257  23.128  0.00  0.00    +0.000 A 
ATOM      4  C   UNL     1      -1.043  11.219  22.218  0.00  0.00    +0.000 A 
ATOM      5  C   UNL     1      -0.633  11.126  20.875  0.00  0.00    +0.000 A 
ATOM      6  C   UNL     1       0.218  10.049  20.486  0.00  0.00    +0.000 A 
ATOM      7  N   UNL     1      -1.117  12.009  19.855  0.00  0.00    +0.000 N 
ATOM      8  C   UNL     1      -0.316  12.607  18.876  0.00  0.00    +0.000 C 
ATOM      9  O   UNL     1      -0.719  12.956  17.761  0.00  0.00    +0.000 OA
ATOM     10  C   UNL     1      -2.530  12.158  19.783  0.00  0.00    +0.000 A 
ATOM     11  C   UNL     1      -3.252  11.656  18.695  0.00  0.00    +0.000 A 
ATOM     12  C   UNL     1      -4.637  11.828  18.636  0.00  0.00    +0.000 A 
ATOM     13  C   UNL     1      -5.300  12.527  19.643  0.00  0.00    +0.000 A 
ATOM     14  C   UNL     1      -4.584  13.054  20.717  0.00  0.00    +0.000 A 
ATOM     15  C   UNL     1      -3.197  12.871  20.791  0.00  0.00    +0.000 A 
ATOM     16  C   UNL     1      -2.403  13.423  21.939  0.00  0.00    +0.000 C 
ATOM     17  C   UNL     1      -1.928  12.285  22.828  0.00  0.00    +0.000 C 
ENDROOT
BRANCH   1  20
ATOM     18  C   UNL     1       1.981   7.860  19.710  0.00  0.00    +0.000 C 
ATOM     19  O   UNL     1       1.902   8.692  18.811  0.00  0.00    +0.000 OA
ATOM     20  N   UNL     1       1.430   7.979  20.971  0.00  0.00    +0.000 N 
ATOM     21  H   UNL     1       1.711   7.277  21.643  0.00  0.00    +0.000 HD
BRANCH  18  22
ATOM     22  O   UNL     1       2.697   6.702  19.563  0.00  0.00    +0.000 OA
BRANCH  22  24
ATOM     23  C   UNL     1       4.194   6.156  17.728  0.00  0.00    +0.000 C 
ATOM     24  C   UNL     1       2.740   6.250  18.187  0.00  0.00    +0.000 C 
ATOM     25  C   UNL     1       2.063   4.891  18.057  0.00  0.00    +0.000 C 
ENDBRANCH  22  24
ENDBRANCH  18  22
ENDBRANCH   1  20
BRANCH   8  26
ATOM     26  C   UNL     1       1.092  13.029  19.339  0.00  0.00    +0.000 C 
BRANCH  26  27
ATOM     27  N   UNL     1       1.108  14.329  20.029  0.00  0.00    +0.000 NA
ATOM     28  C   UNL     1       1.595  14.219  21.411  0.00  0.00    +0.000 C 
ATOM     29  C   UNL     1       1.460  15.570  22.110  0.00  0.00    +0.000 C 
ATOM     30  C   UNL     1       2.212  16.662  21.359  0.00  0.00    +0.000 C 
ATOM     31  C   UNL     1       1.807  16.684  19.889  0.00  0.00    +0.000 C 
ATOM     32  C   UNL     1       1.912  15.294  19.265  0.00  0.00    +0.000 C 
ENDBRANCH  26  27
ENDBRANCH   8  26
TORSDOF 5
ENDMDL
MODEL 6
REMARK VINA RESULT:      -7.0      3.166      5.738
REMARK  Name = 
REMARK  7 active torsions:
REMARK  status: ('A' for Active; 'I' for Inactive)
REMARK    1  A    between atoms: C_1  and  C_2
REMARK    2  A    between atoms: C_2  and  C_3
REMARK    3  A    between atoms: C_2  and  O_4
REMARK    4  A    between atoms: O_4  and  C_5
REMARK    5  A    between atoms: N_7  and  C_8
REMARK    6  A    between atoms: C_15  and  C_17
REMARK    7  A    between atoms: C_17  and  N_18
REMARK                            x       y       z     vdW  Elec       q    Type
REMARK                         _______ _______ _______ _____ _____    ______ ____
ROOT
ATOM      1  C   UNL     1      -4.367  12.487  19.718  0.00  0.00    +0.000 A 
ATOM      2  C   UNL     1      -5.653  12.481  20.253  0.00  0.00    +0.000 A 
ATOM      3  C   UNL     1      -5.880  12.800  21.586  0.00  0.00    +0.000 A 
ATOM      4  C   UNL     1      -4.828  13.118  22.456  0.00  0.00    +0.000 A 
ATOM      5  C   UNL     1      -3.512  13.096  21.955  0.00  0.00    +0.000 A 
ATOM      6  C   UNL     1      -3.301  12.772  20.582  0.00  0.00    +0.000 A 
ATOM      7  N   UNL     1      -2.379  13.488  22.741  0.00  0.00    +0.000 N 
ATOM      8  C   UNL     1      -1.166  12.792  22.788  0.00  0.00    +0.000 C 
ATOM      9  O   UNL     1      -0.073  13.309  23.041  0.00  0.00    +0.000 OA
ATOM     10  C   UNL     1      -2.485  14.744  23.400  0.00  0.00    +0.000 A 
ATOM     11  C   UNL     1      -1.694  15.830  23.011  0.00  0.00    +0.000 A 
ATOM     12  C   UNL     1      -1.802  17.050  23.682  0.00  0.00    +0.000 A 
ATOM     13  C   UNL     1      -2.675  17.181  24.761  0.00  0.00    +0.000 A 
ATOM     14  C   UNL     1      -3.446  16.095  25.173  0.00  0.00    +0.000 A 
ATOM     15  C   UNL     1      -3.355  14.874  24.493  0.00  0.00    +0.000 A 
ATOM     16  C   UNL     1      -4.180  13.691  24.912  0.00  0.00    +0.000 C 
ATOM     17  C   UNL     1      -5.258  13.425  23.874  0.00  0.00    +0.000 C 
ENDROOT
BRANCH   1  20
ATOM     18  C   UNL     1      -4.529  11.097  17.676  0.00  0.00    +0.000 C 
ATOM     19  O   UNL     1      -5.164  10.166  18.163  0.00  0.00    +0.000 OA
ATOM     20  N   UNL     1      -4.132  12.240  18.343  0.00  0.00    +0.000 N 
ATOM     21  H   UNL     1      -3.749  12.976  17.765  0.00  0.00    +0.000 HD
BRANCH  18  22
ATOM     22  O   UNL     1      -4.179  11.118  16.353  0.00  0.00    +0.000 OA
BRANCH  22  24
ATOM     23  C   UNL     1      -2.960  10.110  14.508  0.00  0.00    +0.000 C 
ATOM     24  C   UNL     1      -3.311  10.015  15.992  0.00  0.00    +0.000 C 
ATOM     25  C   UNL     1      -2.040  10.046  16.833  0.00  0.00    +0.000 C 
ENDBRANCH  22  24
ENDBRANCH  18  22
ENDBRANCH   1  20
BRANCH   8  26
ATOM     26  C   UNL     1      -1.280  11.257  22.722  0.00  0.00    +0.000 C 
BRANCH  26  27
ATOM     27  N   UNL     1      -0.171  10.626  21.987  0.00  0.00    +0.000 NA
ATOM     28  C   UNL     1       0.017   9.218  22.364  0.00  0.00    +0.000 C 
ATOM     29  C   UNL     1       1.260   8.664  21.671  0.00  0.00    +0.000 C 
ATOM     30  C   UNL     1       1.162   8.808  20.157  0.00  0.00    +0.000 C 
ATOM     31  C   UNL     1       0.829  10.245  19.771  0.00  0.00    +0.000 C 
ATOM     32  C   UNL     1      -0.388  10.756  20.539  0.00  0.00    +0.000 C 
ENDBRANCH  26  27
ENDBRANCH   8  26
TORSDOF 5
ENDMDL
MODEL 7
REMARK VINA RESULT:      -7.0      0.863      1.408
REMARK  Name = 
REMARK  7 active torsions:
REMARK  status: ('A' for Active; 'I' for Inactive)
REMARK    1  A    between atoms: C_1  and  C_2
REMARK    2  A    between atoms: C_2  and  C_3
REMARK    3  A    between atoms: C_2  and  O_4
REMARK    4  A    between atoms: O_4  and  C_5
REMARK    5  A    between atoms: N_7  and  C_8
REMARK    6  A    between atoms: C_15  and  C_17
REMARK    7  A    between atoms: C_17  and  N_18
REMARK                            x       y       z     vdW  Elec       q    Type
REMARK                         _______ _______ _______ _____ _____    ______ ____
ROOT
ATOM      1  C   UNL     1      -3.689  11.508  17.539  0.00  0.00    +0.000 A 
ATOM      2  C   UNL     1      -3.213  10.433  16.793  0.00  0.00    +0.000 A 
ATOM      3  C   UNL     1      -1.972   9.866  17.058  0.00  0.00    +0.000 A 
ATOM      4  C   UNL     1      -1.137  10.362  18.068  0.00  0.00    +0.000 A 
ATOM      5  C   UNL     1      -1.573  11.473  18.816  0.00  0.00    +0.000 A 
ATOM      6  C   UNL     1      -2.852  12.036  18.532  0.00  0.00    +0.000 A 
ATOM      7  N   UNL     1      -0.831  11.999  19.924  0.00  0.00    +0.000 N 
ATOM      8  C   UNL     1      -0.608  13.361  20.155  0.00  0.00    +0.000 C 
ATOM      9  O   UNL     1      -0.414  13.857  21.270  0.00  0.00    +0.000 OA
ATOM     10  C   UNL     1      -0.423  11.051  20.903  0.00  0.00    +0.000 A 
ATOM     11  C   UNL     1      -0.977  11.060  22.188  0.00  0.00    +0.000 A 
ATOM     12  C   UNL     1      -0.550  10.132  23.140  0.00  0.00    +0.000 A 
ATOM     13  C   UNL     1       0.451   9.215  22.824  0.00  0.00    +0.000 A 
ATOM     14  C   UNL     1       1.028   9.218  21.555  0.00  0.00    +0.000 A 
ATOM     15  C   UNL     1       0.593  10.135  20.590  0.00  0.00    +0.000 A 
ATOM     16  C   UNL     1       1.192  10.155  19.214  0.00  0.00    +0.000 C 
ATOM     17  C   UNL     1       0.182   9.632  18.206  0.00  0.00    +0.000 C 
ENDROOT
BRANCH   1  20
ATOM     18  C   UNL     1      -6.143  11.516  17.863  0.00  0.00    +0.000 C 
ATOM     19  O   UNL     1      -6.212  10.546  18.612  0.00  0.00    +0.000 OA
ATOM     20  N   UNL     1      -4.984  12.044  17.329  0.00  0.00    +0.000 N 
ATOM     21  H   UNL     1      -5.081  12.931  16.854  0.00  0.00    +0.000 HD
BRANCH  18  22
ATOM     22  O   UNL     1      -7.253  12.232  17.505  0.00  0.00    +0.000 OA
BRANCH  22  24
ATOM     23  C   UNL     1      -7.125  12.840  19.855  0.00  0.00    +0.000 C 
ATOM     24  C   UNL     1      -7.571  13.275  18.460  0.00  0.00    +0.000 C 
ATOM     25  C   UNL     1      -6.879  14.575  18.072  0.00  0.00    +0.000 C 
ENDBRANCH  22  24
ENDBRANCH  18  22
ENDBRANCH   1  20
BRANCH   8  26
ATOM     26  C   UNL     1      -0.391  14.220  18.895  0.00  0.00    +0.000 C 
BRANCH  26  27
ATOM     27  N   UNL     1       0.170  15.549  19.192  0.00  0.00    +0.000 NA
ATOM     28  C   UNL     1       1.544  15.697  18.694  0.00  0.00    +0.000 C 
ATOM     29  C   UNL     1       2.112  17.039  19.150  0.00  0.00    +0.000 C 
ATOM     30  C   UNL     1       1.242  18.199  18.680  0.00  0.00    +0.000 C 
ATOM     31  C   UNL     1      -0.213  17.977  19.078  0.00  0.00    +0.000 C 
ATOM     32  C   UNL     1      -0.703  16.597  18.642  0.00  0.00    +0.000 C 
ENDBRANCH  26  27
ENDBRANCH   8  26
TORSDOF 5
ENDMDL
MODEL 8
REMARK VINA RESULT:      -6.8      3.072      6.761
REMARK  Name = 
REMARK  7 active torsions:
REMARK  status: ('A' for Active; 'I' for Inactive)
REMARK    1  A    between atoms: C_1  and  C_2
REMARK    2  A    between atoms: C_2  and  C_3
REMARK    3  A    between atoms: C_2  and  O_4
REMARK    4  A    between atoms: O_4  and  C_5
REMARK    5  A    between atoms: N_7  and  C_8
REMARK    6  A    between atoms: C_15  and  C_17
REMARK    7  A    between atoms: C_17  and  N_18
REMARK                            x       y       z     vdW  Elec       q    Type
REMARK                         _______ _______ _______ _____ _____    ______ ____
ROOT
ATOM      1  C   UNL     1       0.683   9.111  21.428  0.00  0.00    +0.000 A 
ATOM      2  C   UNL     1       0.264   9.229  22.751  0.00  0.00    +0.000 A 
ATOM      3  C   UNL     1      -0.593  10.249  23.147  0.00  0.00    +0.000 A 
ATOM      4  C   UNL     1      -1.053  11.216  22.242  0.00  0.00    +0.000 A 
ATOM      5  C   UNL     1      -0.617  11.147  20.905  0.00  0.00    +0.000 A 
ATOM      6  C   UNL     1       0.257  10.088  20.518  0.00  0.00    +0.000 A 
ATOM      7  N   UNL     1      -1.098  12.035  19.888  0.00  0.00    +0.000 N 
ATOM      8  C   UNL     1      -0.288  12.659  18.932  0.00  0.00    +0.000 C 
ATOM      9  O   UNL     1      -0.676  13.017  17.815  0.00  0.00    +0.000 OA
ATOM     10  C   UNL     1      -2.511  12.163  19.793  0.00  0.00    +0.000 A 
ATOM     11  C   UNL     1      -3.205  11.665  18.685  0.00  0.00    +0.000 A 
ATOM     12  C   UNL     1      -4.591  11.816  18.604  0.00  0.00    +0.000 A 
ATOM     13  C   UNL     1      -5.283  12.491  19.608  0.00  0.00    +0.000 A 
ATOM     14  C   UNL     1      -4.595  13.014  20.700  0.00  0.00    +0.000 A 
ATOM     15  C   UNL     1      -3.207  12.852  20.797  0.00  0.00    +0.000 A 
ATOM     16  C   UNL     1      -2.442  13.401  21.967  0.00  0.00    +0.000 C 
ATOM     17  C   UNL     1      -1.966  12.259  22.850  0.00  0.00    +0.000 C 
ENDROOT
BRANCH   1  20
ATOM     18  C   UNL     1       1.969   7.878  19.711  0.00  0.00    +0.000 C 
ATOM     19  O   UNL     1       1.793   8.660  18.782  0.00  0.00    +0.000 OA
ATOM     20  N   UNL     1       1.493   8.031  20.998  0.00  0.00    +0.000 N 
ATOM     21  H   UNL     1       1.850   7.376  21.682  0.00  0.00    +0.000 HD
BRANCH  18  22
ATOM     22  O   UNL     1       2.731   6.749  19.570  0.00  0.00    +0.000 OA
BRANCH  22  24
ATOM     23  C   UNL     1       4.237   6.189  17.746  0.00  0.00    +0.000 C 
ATOM     24  C   UNL     1       2.780   6.282  18.199  0.00  0.00    +0.000 C 
ATOM     25  C   UNL     1       2.109   4.920  18.080  0.00  0.00    +0.000 C 
ENDBRANCH  22  24
ENDBRANCH  18  22
ENDBRANCH   1  20
BRANCH   8  26
ATOM     26  C   UNL     1       1.105  13.096  19.425  0.00  0.00    +0.000 C 
BRANCH  26  27
ATOM     27  N   UNL     1       1.098  14.415  20.080  0.00  0.00    +0.000 NA
ATOM     28  C   UNL     1      -0.068  15.222  19.694  0.00  0.00    +0.000 C 
ATOM     29  C   UNL     1       0.054  16.620  20.297  0.00  0.00    +0.000 C 
ATOM     30  C   UNL     1       0.190  16.560  21.814  0.00  0.00    +0.000 C 
ATOM     31  C   UNL     1       1.313  15.612  22.219  0.00  0.00    +0.000 C 
ATOM     32  C   UNL     1       1.163  14.252  21.539  0.00  0.00    +0.000 C 
ENDBRANCH  26  27
ENDBRANCH   8  26
TORSDOF 5
ENDMDL
MODEL 9
REMARK VINA RESULT:      -6.8      3.000      6.648
REMARK  Name = 
REMARK  7 active torsions:
REMARK  status: ('A' for Active; 'I' for Inactive)
REMARK    1  A    between atoms: C_1  and  C_2
REMARK    2  A    between atoms: C_2  and  C_3
REMARK    3  A    between atoms: C_2  and  O_4
REMARK    4  A    between atoms: O_4  and  C_5
REMARK    5  A    between atoms: N_7  and  C_8
REMARK    6  A    between atoms: C_15  and  C_17
REMARK    7  A    between atoms: C_17  and  N_18
REMARK                            x       y       z     vdW  Elec       q    Type
REMARK                         _______ _______ _______ _____ _____    ______ ____
ROOT
ATOM      1  C   UNL     1       0.908   8.948  21.374  0.00  0.00    +0.000 A 
ATOM      2  C   UNL     1       0.467   9.000  22.694  0.00  0.00    +0.000 A 
ATOM      3  C   UNL     1      -0.386  10.006  23.130  0.00  0.00    +0.000 A 
ATOM      4  C   UNL     1      -0.820  11.025  22.271  0.00  0.00    +0.000 A 
ATOM      5  C   UNL     1      -0.362  11.024  20.939  0.00  0.00    +0.000 A 
ATOM      6  C   UNL     1       0.508   9.978  20.511  0.00  0.00    +0.000 A 
ATOM      7  N   UNL     1      -0.815  11.971  19.964  0.00  0.00    +0.000 N 
ATOM      8  C   UNL     1       0.017  12.636  19.057  0.00  0.00    +0.000 C 
ATOM      9  O   UNL     1      -0.348  13.057  17.954  0.00  0.00    +0.000 OA
ATOM     10  C   UNL     1      -2.226  12.119  19.852  0.00  0.00    +0.000 A 
ATOM     11  C   UNL     1      -2.906  11.689  18.708  0.00  0.00    +0.000 A 
ATOM     12  C   UNL     1      -4.288  11.859  18.611  0.00  0.00    +0.000 A 
ATOM     13  C   UNL     1      -4.991  12.487  19.638  0.00  0.00    +0.000 A 
ATOM     14  C   UNL     1      -4.316  12.944  20.769  0.00  0.00    +0.000 A 
ATOM     15  C   UNL     1      -2.932  12.761  20.881  0.00  0.00    +0.000 A 
ATOM     16  C   UNL     1      -2.182  13.238  22.091  0.00  0.00    +0.000 C 
ATOM     17  C   UNL     1      -1.733  12.045  22.918  0.00  0.00    +0.000 C 
ENDROOT
BRANCH   1  20
ATOM     18  C   UNL     1       2.151   7.757  19.596  0.00  0.00    +0.000 C 
ATOM     19  O   UNL     1       1.937   8.553  18.686  0.00  0.00    +0.000 OA
ATOM     20  N   UNL     1       1.714   7.884  20.900  0.00  0.00    +0.000 N 
ATOM     21  H   UNL     1       2.099   7.222  21.560  0.00  0.00    +0.000 HD
BRANCH  18  22
ATOM     22  O   UNL     1       2.919   6.639  19.411  0.00  0.00    +0.000 OA
BRANCH  22  24
ATOM     23  C   UNL     1       4.049   5.714  17.468  0.00  0.00    +0.000 C 
ATOM     24  C   UNL     1       2.701   6.025  18.117  0.00  0.00    +0.000 C 
ATOM     25  C   UNL     1       1.887   4.746  18.269  0.00  0.00    +0.000 C 
ENDBRANCH  22  24
ENDBRANCH  18  22
ENDBRANCH   1  20
BRANCH   8  26
ATOM     26  C   UNL     1       1.405  13.031  19.596  0.00  0.00    +0.000 C 
BRANCH  26  27
ATOM     27  N   UNL     1       1.569  14.485  19.762  0.00  0.00    +0.000 NA
ATOM     28  C   UNL     1       2.099  15.126  18.551  0.00  0.00    +0.000 C 
ATOM     29  C   UNL     1       2.373  16.602  18.831  0.00  0.00    +0.000 C 
ATOM     30  C   UNL     1       1.116  17.317  19.312  0.00  0.00    +0.000 C 
ATOM     31  C   UNL     1       0.486  16.572  20.484  0.00  0.00    +0.000 C 
ATOM     32  C   UNL     1       0.291  15.092  20.160  0.00  0.00    +0.000 C 
ENDBRANCH  26  27
ENDBRANCH   8  26
TORSDOF 5
ENDMDL
