MODEL 1
REMARK VINA RESULT:      -7.2      0.000      0.000
REMARK  Name = 
REMARK  7 active torsions:
REMARK  status: ('A' for Active; 'I' for Inactive)
REMARK    1  A    between atoms: C_1  and  O_2
REMARK    2  A    between atoms: O_2  and  C_3
REMARK    3  A    between atoms: C_7  and  C_8
REMARK    4  A    between atoms: C_9  and  C_10
REMARK    5  A    between atoms: C_9  and  C_12
REMARK    6  A    between atoms: C_23  and  O_24
REMARK    7  A    between atoms: O_24  and  C_25
REMARK                            x       y       z     vdW  Elec       q    Type
REMARK                         _______ _______ _______ _____ _____    ______ ____
ROOT
ATOM      1  C   UNL     1       9.599  10.088  19.524  0.00  0.00    +0.000 C 
ATOM      2  C   UNL     1       8.707   9.739  18.551  0.00  0.00    +0.000 C 
ENDROOT
BRANCH   2   3
ATOM      3  C   UNL     1       8.165   8.405  18.212  0.00  0.00    +0.000 A 
ATOM      4  N   UNL     1       7.283   8.258  17.275  0.00  0.00    +0.000 NA
ATOM      5  C   UNL     1       6.686   7.000  17.105  0.00  0.00    +0.000 A 
ATOM      6  C   UNL     1       5.764   6.819  16.074  0.00  0.00    +0.000 A 
ATOM      7  C   UNL     1       5.086   5.605  15.938  0.00  0.00    +0.000 A 
ATOM      8  C   UNL     1       5.316   4.559  16.838  0.00  0.00    +0.000 A 
ATOM      9  C   UNL     1       6.241   4.726  17.866  0.00  0.00    +0.000 A 
ATOM     10  C   UNL     1       6.929   5.940  17.980  0.00  0.00    +0.000 A 
ATOM     11  C   UNL     1       7.936   6.155  19.029  0.00  0.00    +0.000 A 
ATOM     12  O   UNL     1       8.173   5.318  19.893  0.00  0.00    +0.000 OA
ATOM     13  N   UNL     1       8.570   7.369  19.013  0.00  0.00    +0.000 N 
ATOM     14  H   UNL     1       9.229   7.502  19.765  0.00  0.00    +0.000 HD
ENDBRANCH   2   3
BRANCH   1  19
ATOM     15  C   UNL     1      11.192  13.621  20.138  0.00  0.00    +0.000 A 
ATOM     16  C   UNL     1      10.403  14.040  21.212  0.00  0.00    +0.000 A 
ATOM     17  C   UNL     1       9.389  13.218  21.697  0.00  0.00    +0.000 A 
ATOM     18  C   UNL     1       9.160  11.965  21.114  0.00  0.00    +0.000 A 
ATOM     19  C   UNL     1       9.902  11.513  20.001  0.00  0.00    +0.000 A 
ATOM     20  C   UNL     1      10.908  12.385  19.474  0.00  0.00    +0.000 A 
BRANCH  15  22
ATOM     21  C   UNL     1      11.884  15.717  19.216  0.00  0.00    +0.000 C 
ATOM     22  O   UNL     1      12.234  14.421  19.719  0.00  0.00    +0.000 OA
ENDBRANCH  15  22
BRANCH  20  23
ATOM     23  O   UNL     1      11.543  11.918  18.344  0.00  0.00    +0.000 OA
ATOM     24  C   UNL     1      11.325  12.611  17.113  0.00  0.00    +0.000 C 
ENDBRANCH  20  23
ENDBRANCH   1  19
BRANCH   2  25
ATOM     25  C   UNL     1       8.198  10.939  17.768  0.00  0.00    +0.000 C 
ATOM     26  N   UNL     1       7.776  11.934  17.119  0.00  0.00    +0.000 NA
ENDBRANCH   2  25
TORSDOF 5
ENDMDL
MODEL 2
REMARK VINA RESULT:      -7.1      6.442      9.962
REMARK  Name = 
REMARK  7 active torsions:
REMARK  status: ('A' for Active; 'I' for Inactive)
REMARK    1  A    between atoms: C_1  and  O_2
REMARK    2  A    between atoms: O_2  and  C_3
REMARK    3  A    between atoms: C_7  and  C_8
REMARK    4  A    between atoms: C_9  and  C_10
REMARK    5  A    between atoms: C_9  and  C_12
REMARK    6  A    between atoms: C_23  and  O_24
REMARK    7  A    between atoms: O_24  and  C_25
REMARK                            x       y       z     vdW  Elec       q    Type
REMARK                         _______ _______ _______ _____ _____    ______ ____
ROOT
ATOM      1  C   UNL     1       2.858   6.887  18.422  0.00  0.00    +0.000 C 
ATOM      2  C   UNL     1       2.219   7.099  19.610  0.00  0.00    +0.000 C 
ENDROOT
BRANCH   2   3
ATOM      3  C   UNL     1       1.539   8.317  20.103  0.00  0.00    +0.000 A 
ATOM      4  N   UNL     1       1.029   8.364  21.293  0.00  0.00    +0.000 NA
ATOM      5  C   UNL     1       0.257   9.480  21.649  0.00  0.00    +0.000 A 
ATOM      6  C   UNL     1      -0.266   9.561  22.940  0.00  0.00    +0.000 A 
ATOM      7  C   UNL     1      -1.113  10.615  23.294  0.00  0.00    +0.000 A 
ATOM      8  C   UNL     1      -1.454  11.596  22.357  0.00  0.00    +0.000 A 
ATOM      9  C   UNL     1      -0.932  11.529  21.068  0.00  0.00    +0.000 A 
ATOM     10  C   UNL     1      -0.068  10.480  20.731  0.00  0.00    +0.000 A 
ATOM     11  C   UNL     1       0.533  10.382  19.393  0.00  0.00    +0.000 A 
ATOM     12  O   UNL     1       0.258  11.165  18.491  0.00  0.00    +0.000 OA
ATOM     13  N   UNL     1       1.393   9.334  19.196  0.00  0.00    +0.000 N 
ATOM     14  H   UNL     1       1.761   9.271  18.260  0.00  0.00    +0.000 HD
ENDBRANCH   2   3
BRANCH   1  19
ATOM     15  C   UNL     1       4.805   3.938  16.716  0.00  0.00    +0.000 A 
ATOM     16  C   UNL     1       3.782   2.986  16.676  0.00  0.00    +0.000 A 
ATOM     17  C   UNL     1       2.527   3.288  17.198  0.00  0.00    +0.000 A 
ATOM     18  C   UNL     1       2.283   4.547  17.761  0.00  0.00    +0.000 A 
ATOM     19  C   UNL     1       3.294   5.528  17.862  0.00  0.00    +0.000 A 
ATOM     20  C   UNL     1       4.597   5.194  17.371  0.00  0.00    +0.000 A 
BRANCH  15  22
ATOM     21  C   UNL     1       6.171   4.010  14.753  0.00  0.00    +0.000 C 
ATOM     22  O   UNL     1       6.018   3.643  16.131  0.00  0.00    +0.000 OA
ENDBRANCH  15  22
BRANCH  20  23
ATOM     23  O   UNL     1       5.554   6.164  17.568  0.00  0.00    +0.000 OA
ATOM     24  C   UNL     1       6.599   5.899  18.506  0.00  0.00    +0.000 C 
ENDBRANCH  20  23
ENDBRANCH   1  19
BRANCH   2  25
ATOM     25  C   UNL     1       2.195   5.859  20.489  0.00  0.00    +0.000 C 
ATOM     26  N   UNL     1       2.175   4.830  21.218  0.00  0.00    +0.000 NA
ENDBRANCH   2  25
TORSDOF 5
ENDMDL
MODEL 3
REMARK VINA RESULT:      -7.1      1.858      2.382
REMARK  Name = 
REMARK  7 active torsions:
REMARK  status: ('A' for Active; 'I' for Inactive)
REMARK    1  A    between atoms: C_1  and  O_2
REMARK    2  A    between atoms: O_2  and  C_3
REMARK    3  A    between atoms: C_7  and  C_8
REMARK    4  A    between atoms: C_9  and  C_10
REMARK    5  A    between atoms: C_9  and  C_12
REMARK    6  A    between atoms: C_23  and  O_24
REMARK    7  A    between atoms: O_24  and  C_25
REMARK                            x       y       z     vdW  Elec       q    Type
REMARK                         _______ _______ _______ _____ _____    ______ ____
ROOT
ATOM      1  C   UNL     1       9.178  10.585  17.504  0.00  0.00    +0.000 C 
ATOM      2  C   UNL     1       8.755   9.669  18.424  0.00  0.00    +0.000 C 
ENDROOT
BRANCH   2   3
ATOM      3  C   UNL     1       8.178   8.324  18.209  0.00  0.00    +0.000 A 
ATOM      4  N   UNL     1       7.302   8.111  17.279  0.00  0.00    +0.000 NA
ATOM      5  C   UNL     1       6.670   6.860  17.225  0.00  0.00    +0.000 A 
ATOM      6  C   UNL     1       5.753   6.605  16.205  0.00  0.00    +0.000 A 
ATOM      7  C   UNL     1       5.041   5.403  16.179  0.00  0.00    +0.000 A 
ATOM      8  C   UNL     1       5.232   4.444  17.179  0.00  0.00    +0.000 A 
ATOM      9  C   UNL     1       6.150   4.685  18.199  0.00  0.00    +0.000 A 
ATOM     10  C   UNL     1       6.872   5.884  18.203  0.00  0.00    +0.000 A 
ATOM     11  C   UNL     1       7.874   6.172  19.239  0.00  0.00    +0.000 A 
ATOM     12  O   UNL     1       8.077   5.418  20.183  0.00  0.00    +0.000 OA
ATOM     13  N   UNL     1       8.544   7.361  19.114  0.00  0.00    +0.000 N 
ATOM     14  H   UNL     1       9.198   7.547  19.857  0.00  0.00    +0.000 HD
ENDBRANCH   2   3
BRANCH   1  19
ATOM     15  C   UNL     1      10.515  14.258  17.847  0.00  0.00    +0.000 A 
ATOM     16  C   UNL     1      11.844  13.984  18.180  0.00  0.00    +0.000 A 
ATOM     17  C   UNL     1      12.274  12.666  18.306  0.00  0.00    +0.000 A 
ATOM     18  C   UNL     1      11.379  11.610  18.094  0.00  0.00    +0.000 A 
ATOM     19  C   UNL     1      10.017  11.834  17.795  0.00  0.00    +0.000 A 
ATOM     20  C   UNL     1       9.569  13.192  17.718  0.00  0.00    +0.000 A 
BRANCH  15  22
ATOM     21  C   UNL     1      10.990  16.382  16.854  0.00  0.00    +0.000 C 
ATOM     22  O   UNL     1      10.127  15.568  17.659  0.00  0.00    +0.000 OA
ENDBRANCH  15  22
BRANCH  20  23
ATOM     23  O   UNL     1       8.217  13.341  17.500  0.00  0.00    +0.000 OA
ATOM     24  C   UNL     1       7.481  14.194  18.379  0.00  0.00    +0.000 C 
ENDBRANCH  20  23
ENDBRANCH   1  19
BRANCH   2  25
ATOM     25  C   UNL     1       8.975  10.134  19.854  0.00  0.00    +0.000 C 
ATOM     26  N   UNL     1       9.159  10.520  21.041  0.00  0.00    +0.000 NA
ENDBRANCH   2  25
TORSDOF 5
ENDMDL
MODEL 4
REMARK VINA RESULT:      -7.0      7.116      8.580
REMARK  Name = 
REMARK  7 active torsions:
REMARK  status: ('A' for Active; 'I' for Inactive)
REMARK    1  A    between atoms: C_1  and  O_2
REMARK    2  A    between atoms: O_2  and  C_3
REMARK    3  A    between atoms: C_7  and  C_8
REMARK    4  A    between atoms: C_9  and  C_10
REMARK    5  A    between atoms: C_9  and  C_12
REMARK    6  A    between atoms: C_23  and  O_24
REMARK    7  A    between atoms: O_24  and  C_25
REMARK                            x       y       z     vdW  Elec       q    Type
REMARK                         _______ _______ _______ _____ _____    ______ ____
ROOT
ATOM      1  C   UNL     1       1.453   9.537  18.085  0.00  0.00    +0.000 C 
ATOM      2  C   UNL     1       1.881   8.467  18.818  0.00  0.00    +0.000 C 
ENDROOT
BRANCH   2   3
ATOM      3  C   UNL     1       2.709   7.316  18.399  0.00  0.00    +0.000 A 
ATOM      4  N   UNL     1       3.634   7.446  17.502  0.00  0.00    +0.000 NA
ATOM      5  C   UNL     1       4.277   6.294  17.026  0.00  0.00    +0.000 A 
ATOM      6  C   UNL     1       5.301   6.425  16.088  0.00  0.00    +0.000 A 
ATOM      7  C   UNL     1       5.896   5.291  15.529  0.00  0.00    +0.000 A 
ATOM      8  C   UNL     1       5.467   4.011  15.895  0.00  0.00    +0.000 A 
ATOM      9  C   UNL     1       4.451   3.868  16.836  0.00  0.00    +0.000 A 
ATOM     10  C   UNL     1       3.876   5.011  17.405  0.00  0.00    +0.000 A 
ATOM     11  C   UNL     1       2.821   4.913  18.424  0.00  0.00    +0.000 A 
ATOM     12  O   UNL     1       2.345   3.840  18.775  0.00  0.00    +0.000 OA
ATOM     13  N   UNL     1       2.366   6.101  18.934  0.00  0.00    +0.000 N 
ATOM     14  H   UNL     1       1.619   6.004  19.603  0.00  0.00    +0.000 HD
ENDBRANCH   2   3
BRANCH   1  19
ATOM     15  C   UNL     1      -0.991  12.390  19.216  0.00  0.00    +0.000 A 
ATOM     16  C   UNL     1      -0.057  13.391  19.494  0.00  0.00    +0.000 A 
ATOM     17  C   UNL     1       1.304  13.138  19.338  0.00  0.00    +0.000 A 
ATOM     18  C   UNL     1       1.740  11.882  18.898  0.00  0.00    +0.000 A 
ATOM     19  C   UNL     1       0.839  10.825  18.643  0.00  0.00    +0.000 A 
ATOM     20  C   UNL     1      -0.555  11.075  18.856  0.00  0.00    +0.000 A 
BRANCH  15  22
ATOM     21  C   UNL     1      -2.903  12.669  20.627  0.00  0.00    +0.000 C 
ATOM     22  O   UNL     1      -2.335  12.683  19.311  0.00  0.00    +0.000 OA
ENDBRANCH  15  22
BRANCH  20  23
ATOM     23  O   UNL     1      -1.373   9.984  18.663  0.00  0.00    +0.000 OA
ATOM     24  C   UNL     1      -2.110   9.900  17.442  0.00  0.00    +0.000 C 
ENDBRANCH  20  23
ENDBRANCH   1  19
BRANCH   2  25
ATOM     25  C   UNL     1       1.454   8.550  20.275  0.00  0.00    +0.000 C 
ATOM     26  N   UNL     1       1.099   8.619  21.483  0.00  0.00    +0.000 NA
ENDBRANCH   2  25
TORSDOF 5
ENDMDL
MODEL 5
REMARK VINA RESULT:      -6.9      6.551      8.051
REMARK  Name = 
REMARK  7 active torsions:
REMARK  status: ('A' for Active; 'I' for Inactive)
REMARK    1  A    between atoms: C_1  and  O_2
REMARK    2  A    between atoms: O_2  and  C_3
REMARK    3  A    between atoms: C_7  and  C_8
REMARK    4  A    between atoms: C_9  and  C_10
REMARK    5  A    between atoms: C_9  and  C_12
REMARK    6  A    between atoms: C_23  and  O_24
REMARK    7  A    between atoms: O_24  and  C_25
REMARK                            x       y       z     vdW  Elec       q    Type
REMARK                         _______ _______ _______ _____ _____    ______ ____
ROOT
ATOM      1  C   UNL     1       1.013   9.454  18.156  0.00  0.00    +0.000 C 
ATOM      2  C   UNL     1       1.626   8.577  19.005  0.00  0.00    +0.000 C 
ENDROOT
BRANCH   2   3
ATOM      3  C   UNL     1       2.674   7.574  18.717  0.00  0.00    +0.000 A 
ATOM      4  N   UNL     1       3.360   7.617  17.619  0.00  0.00    +0.000 NA
ATOM      5  C   UNL     1       4.225   6.553  17.324  0.00  0.00    +0.000 A 
ATOM      6  C   UNL     1       4.998   6.606  16.164  0.00  0.00    +0.000 A 
ATOM      7  C   UNL     1       5.799   5.521  15.799  0.00  0.00    +0.000 A 
ATOM      8  C   UNL     1       5.829   4.365  16.586  0.00  0.00    +0.000 A 
ATOM      9  C   UNL     1       5.068   4.304  17.750  0.00  0.00    +0.000 A 
ATOM     10  C   UNL     1       4.285   5.405  18.117  0.00  0.00    +0.000 A 
ATOM     11  C   UNL     1       3.488   5.402  19.352  0.00  0.00    +0.000 A 
ATOM     12  O   UNL     1       3.411   4.420  20.081  0.00  0.00    +0.000 OA
ATOM     13  N   UNL     1       2.795   6.552  19.623  0.00  0.00    +0.000 N 
ATOM     14  H   UNL     1       2.230   6.508  20.456  0.00  0.00    +0.000 HD
ENDBRANCH   2   3
BRANCH   1  19
ATOM     15  C   UNL     1      -0.333  12.841  19.611  0.00  0.00    +0.000 A 
ATOM     16  C   UNL     1      -1.704  12.627  19.449  0.00  0.00    +0.000 A 
ATOM     17  C   UNL     1      -2.163  11.444  18.874  0.00  0.00    +0.000 A 
ATOM     18  C   UNL     1      -1.253  10.462  18.463  0.00  0.00    +0.000 A 
ATOM     19  C   UNL     1       0.143  10.648  18.567  0.00  0.00    +0.000 A 
ATOM     20  C   UNL     1       0.610  11.888  19.110  0.00  0.00    +0.000 A 
BRANCH  15  22
ATOM     21  C   UNL     1       0.032  15.202  19.484  0.00  0.00    +0.000 C 
ATOM     22  O   UNL     1       0.096  13.988  20.244  0.00  0.00    +0.000 OA
ENDBRANCH  15  22
BRANCH  20  23
ATOM     23  O   UNL     1       1.980  12.037  19.114  0.00  0.00    +0.000 OA
ATOM     24  C   UNL     1       2.577  12.814  18.074  0.00  0.00    +0.000 C 
ENDBRANCH  20  23
ENDBRANCH   1  19
BRANCH   2  25
ATOM     25  C   UNL     1       1.157   8.731  20.442  0.00  0.00    +0.000 C 
ATOM     26  N   UNL     1       0.768   8.860  21.635  0.00  0.00    +0.000 NA
ENDBRANCH   2  25
TORSDOF 5
ENDMDL
MODEL 6
REMARK VINA RESULT:      -6.9      5.598      8.882
REMARK  Name = 
REMARK  7 active torsions:
REMARK  status: ('A' for Active; 'I' for Inactive)
REMARK    1  A    between atoms: C_1  and  O_2
REMARK    2  A    between atoms: O_2  and  C_3
REMARK    3  A    between atoms: C_7  and  C_8
REMARK    4  A    between atoms: C_9  and  C_10
REMARK    5  A    between atoms: C_9  and  C_12
REMARK    6  A    between atoms: C_23  and  O_24
REMARK    7  A    between atoms: O_24  and  C_25
REMARK                            x       y       z     vdW  Elec       q    Type
REMARK                         _______ _______ _______ _____ _____    ______ ____
ROOT
ATOM      1  C   UNL     1       3.696   7.194  17.790  0.00  0.00    +0.000 C 
ATOM      2  C   UNL     1       2.941   7.088  18.923  0.00  0.00    +0.000 C 
ENDROOT
BRANCH   2   3
ATOM      3  C   UNL     1       1.940   8.027  19.472  0.00  0.00    +0.000 A 
ATOM      4  N   UNL     1       1.276   8.827  18.699  0.00  0.00    +0.000 NA
ATOM      5  C   UNL     1       0.460   9.806  19.285  0.00  0.00    +0.000 A 
ATOM      6  C   UNL     1      -0.290  10.647  18.464  0.00  0.00    +0.000 A 
ATOM      7  C   UNL     1      -1.039  11.690  19.015  0.00  0.00    +0.000 A 
ATOM      8  C   UNL     1      -1.039  11.908  20.397  0.00  0.00    +0.000 A 
ATOM      9  C   UNL     1      -0.300  11.070  21.228  0.00  0.00    +0.000 A 
ATOM     10  C   UNL     1       0.430  10.016  20.665  0.00  0.00    +0.000 A 
ATOM     11  C   UNL     1       1.201   9.086  21.502  0.00  0.00    +0.000 A 
ATOM     12  O   UNL     1       1.302   9.223  22.715  0.00  0.00    +0.000 OA
ATOM     13  N   UNL     1       1.842   8.072  20.839  0.00  0.00    +0.000 N 
ATOM     14  H   UNL     1       2.391   7.472  21.433  0.00  0.00    +0.000 HD
ENDBRANCH   2   3
BRANCH   1  19
ATOM     15  C   UNL     1       6.349   5.090  15.807  0.00  0.00    +0.000 A 
ATOM     16  C   UNL     1       5.694   3.855  15.795  0.00  0.00    +0.000 A 
ATOM     17  C   UNL     1       4.458   3.715  16.420  0.00  0.00    +0.000 A 
ATOM     18  C   UNL     1       3.864   4.810  17.059  0.00  0.00    +0.000 A 
ATOM     19  C   UNL     1       4.503   6.067  17.135  0.00  0.00    +0.000 A 
ATOM     20  C   UNL     1       5.798   6.192  16.535  0.00  0.00    +0.000 A 
BRANCH  15  22
ATOM     21  C   UNL     1       7.482   5.050  13.701  0.00  0.00    +0.000 C 
ATOM     22  O   UNL     1       7.539   5.224  15.123  0.00  0.00    +0.000 OA
ENDBRANCH  15  22
BRANCH  20  23
ATOM     23  O   UNL     1       6.399   7.419  16.710  0.00  0.00    +0.000 OA
ATOM     24  C   UNL     1       7.520   7.501  17.593  0.00  0.00    +0.000 C 
ENDBRANCH  20  23
ENDBRANCH   1  19
BRANCH   2  25
ATOM     25  C   UNL     1       3.172   5.777  19.657  0.00  0.00    +0.000 C 
ATOM     26  N   UNL     1       3.364   4.689  20.266  0.00  0.00    +0.000 NA
ENDBRANCH   2  25
TORSDOF 5
ENDMDL
MODEL 7
REMARK VINA RESULT:      -6.8      6.279      9.631
REMARK  Name = 
REMARK  7 active torsions:
REMARK  status: ('A' for Active; 'I' for Inactive)
REMARK    1  A    between atoms: C_1  and  O_2
REMARK    2  A    between atoms: O_2  and  C_3
REMARK    3  A    between atoms: C_7  and  C_8
REMARK    4  A    between atoms: C_9  and  C_10
REMARK    5  A    between atoms: C_9  and  C_12
REMARK    6  A    between atoms: C_23  and  O_24
REMARK    7  A    between atoms: O_24  and  C_25
REMARK                            x       y       z     vdW  Elec       q    Type
REMARK                         _______ _______ _______ _____ _____    ______ ____
ROOT
ATOM      1  C   UNL     1       2.911   6.957  18.472  0.00  0.00    +0.000 C 
ATOM      2  C   UNL     1       2.230   7.101  19.648  0.00  0.00    +0.000 C 
ENDROOT
BRANCH   2   3
ATOM      3  C   UNL     1       1.472   8.264  20.155  0.00  0.00    +0.000 A 
ATOM      4  N   UNL     1       1.063   9.198  19.355  0.00  0.00    +0.000 NA
ATOM      5  C   UNL     1       0.492  10.354  19.907  0.00  0.00    +0.000 A 
ATOM      6  C   UNL     1       0.012  11.349  19.055  0.00  0.00    +0.000 A 
ATOM      7  C   UNL     1      -0.477  12.549  19.576  0.00  0.00    +0.000 A 
ATOM      8  C   UNL     1      -0.484  12.773  20.957  0.00  0.00    +0.000 A 
ATOM      9  C   UNL     1      -0.014  11.784  21.818  0.00  0.00    +0.000 A 
ATOM     10  C   UNL     1       0.454  10.576  21.285  0.00  0.00    +0.000 A 
ATOM     11  C   UNL     1       0.932   9.490  22.152  0.00  0.00    +0.000 A 
ATOM     12  O   UNL     1       1.010   9.608  23.369  0.00  0.00    +0.000 OA
ATOM     13  N   UNL     1       1.328   8.343  21.516  0.00  0.00    +0.000 N 
ATOM     14  H   UNL     1       1.684   7.630  22.132  0.00  0.00    +0.000 HD
ENDBRANCH   2   3
BRANCH   1  19
ATOM     15  C   UNL     1       5.058   4.171  16.733  0.00  0.00    +0.000 A 
ATOM     16  C   UNL     1       4.094   3.162  16.652  0.00  0.00    +0.000 A 
ATOM     17  C   UNL     1       2.815   3.376  17.159  0.00  0.00    +0.000 A 
ATOM     18  C   UNL     1       2.487   4.604  17.746  0.00  0.00    +0.000 A 
ATOM     19  C   UNL     1       3.436   5.641  17.889  0.00  0.00    +0.000 A 
ATOM     20  C   UNL     1       4.764   5.396  17.413  0.00  0.00    +0.000 A 
BRANCH  15  22
ATOM     21  C   UNL     1       6.367   4.057  14.733  0.00  0.00    +0.000 C 
ATOM     22  O   UNL     1       6.296   3.963  16.162  0.00  0.00    +0.000 OA
ENDBRANCH  15  22
BRANCH  20  23
ATOM     23  O   UNL     1       5.659   6.416  17.650  0.00  0.00    +0.000 OA
ATOM     24  C   UNL     1       6.802   6.136  18.461  0.00  0.00    +0.000 C 
ENDBRANCH  20  23
ENDBRANCH   1  19
BRANCH   2  25
ATOM     25  C   UNL     1       2.253   5.837  20.493  0.00  0.00    +0.000 C 
ATOM     26  N   UNL     1       2.272   4.788  21.193  0.00  0.00    +0.000 NA
ENDBRANCH   2  25
TORSDOF 5
ENDMDL
MODEL 8
REMARK VINA RESULT:      -6.7      1.413      2.237
REMARK  Name = 
REMARK  7 active torsions:
REMARK  status: ('A' for Active; 'I' for Inactive)
REMARK    1  A    between atoms: C_1  and  O_2
REMARK    2  A    between atoms: O_2  and  C_3
REMARK    3  A    between atoms: C_7  and  C_8
REMARK    4  A    between atoms: C_9  and  C_10
REMARK    5  A    between atoms: C_9  and  C_12
REMARK    6  A    between atoms: C_23  and  O_24
REMARK    7  A    between atoms: O_24  and  C_25
REMARK                            x       y       z     vdW  Elec       q    Type
REMARK                         _______ _______ _______ _____ _____    ______ ____
ROOT
ATOM      1  C   UNL     1       9.720  10.060  19.526  0.00  0.00    +0.000 C 
ATOM      2  C   UNL     1       8.781   9.739  18.587  0.00  0.00    +0.000 C 
ENDROOT
BRANCH   2   3
ATOM      3  C   UNL     1       8.196   8.420  18.261  0.00  0.00    +0.000 A 
ATOM      4  N   UNL     1       7.287   8.298  17.346  0.00  0.00    +0.000 NA
ATOM      5  C   UNL     1       6.653   7.056  17.190  0.00  0.00    +0.000 A 
ATOM      6  C   UNL     1       5.701   6.901  16.182  0.00  0.00    +0.000 A 
ATOM      7  C   UNL     1       4.988   5.705  16.062  0.00  0.00    +0.000 A 
ATOM      8  C   UNL     1       5.213   4.653  16.956  0.00  0.00    +0.000 A 
ATOM      9  C   UNL     1       6.166   4.794  17.961  0.00  0.00    +0.000 A 
ATOM     10  C   UNL     1       6.889   5.989  18.058  0.00  0.00    +0.000 A 
ATOM     11  C   UNL     1       7.927   6.176  19.083  0.00  0.00    +0.000 A 
ATOM     12  O   UNL     1       8.163   5.333  19.940  0.00  0.00    +0.000 OA
ATOM     13  N   UNL     1       8.593   7.373  19.052  0.00  0.00    +0.000 N 
ATOM     14  H   UNL     1       9.272   7.487  19.787  0.00  0.00    +0.000 HD
ENDBRANCH   2   3
BRANCH   1  19
ATOM     15  C   UNL     1       9.690  13.633  21.146  0.00  0.00    +0.000 A 
ATOM     16  C   UNL     1      10.837  14.161  20.549  0.00  0.00    +0.000 A 
ATOM     17  C   UNL     1      11.592  13.381  19.677  0.00  0.00    +0.000 A 
ATOM     18  C   UNL     1      11.202  12.067  19.391  0.00  0.00    +0.000 A 
ATOM     19  C   UNL     1      10.074  11.473  20.000  0.00  0.00    +0.000 A 
ATOM     20  C   UNL     1       9.332  12.264  20.936  0.00  0.00    +0.000 A 
BRANCH  15  22
ATOM     21  C   UNL     1       9.626  15.319  22.843  0.00  0.00    +0.000 C 
ATOM     22  O   UNL     1       8.919  14.445  21.952  0.00  0.00    +0.000 OA
ENDBRANCH  15  22
BRANCH  20  23
ATOM     23  O   UNL     1       8.291  11.603  21.551  0.00  0.00    +0.000 OA
ATOM     24  C   UNL     1       8.265  11.566  22.979  0.00  0.00    +0.000 C 
ENDBRANCH  20  23
ENDBRANCH   1  19
BRANCH   2  25
ATOM     25  C   UNL     1       8.267  10.956  17.836  0.00  0.00    +0.000 C 
ATOM     26  N   UNL     1       7.842  11.966  17.212  0.00  0.00    +0.000 NA
ENDBRANCH   2  25
TORSDOF 5
ENDMDL
MODEL 9
REMARK VINA RESULT:      -6.7      6.516      8.381
REMARK  Name = 
REMARK  7 active torsions:
REMARK  status: ('A' for Active; 'I' for Inactive)
REMARK    1  A    between atoms: C_1  and  O_2
REMARK    2  A    between atoms: O_2  and  C_3
REMARK    3  A    between atoms: C_7  and  C_8
REMARK    4  A    between atoms: C_9  and  C_10
REMARK    5  A    between atoms: C_9  and  C_12
REMARK    6  A    between atoms: C_23  and  O_24
REMARK    7  A    between atoms: O_24  and  C_25
REMARK                            x       y       z     vdW  Elec       q    Type
REMARK                         _______ _______ _______ _____ _____    ______ ____
ROOT
ATOM      1  C   UNL     1       1.542   9.342  17.827  0.00  0.00    +0.000 C 
ATOM      2  C   UNL     1       1.875   8.254  18.584  0.00  0.00    +0.000 C 
ENDROOT
BRANCH   2   3
ATOM      3  C   UNL     1       2.468   6.967  18.163  0.00  0.00    +0.000 A 
ATOM      4  N   UNL     1       1.799   5.861  18.247  0.00  0.00    +0.000 NA
ATOM      5  C   UNL     1       2.463   4.652  17.988  0.00  0.00    +0.000 A 
ATOM      6  C   UNL     1       1.743   3.458  18.037  0.00  0.00    +0.000 A 
ATOM      7  C   UNL     1       2.396   2.234  17.874  0.00  0.00    +0.000 A 
ATOM      8  C   UNL     1       3.779   2.189  17.669  0.00  0.00    +0.000 A 
ATOM      9  C   UNL     1       4.506   3.375  17.610  0.00  0.00    +0.000 A 
ATOM     10  C   UNL     1       3.838   4.597  17.754  0.00  0.00    +0.000 A 
ATOM     11  C   UNL     1       4.555   5.878  17.670  0.00  0.00    +0.000 A 
ATOM     12  O   UNL     1       5.772   5.941  17.541  0.00  0.00    +0.000 OA
ATOM     13  N   UNL     1       3.786   7.006  17.787  0.00  0.00    +0.000 N 
ATOM     14  H   UNL     1       4.309   7.867  17.761  0.00  0.00    +0.000 HD
ENDBRANCH   2   3
BRANCH   1  19
ATOM     15  C   UNL     1      -0.306  12.577  19.059  0.00  0.00    +0.000 A 
ATOM     16  C   UNL     1       0.782  13.453  19.108  0.00  0.00    +0.000 A 
ATOM     17  C   UNL     1       2.057  13.002  18.776  0.00  0.00    +0.000 A 
ATOM     18  C   UNL     1       2.253  11.672  18.385  0.00  0.00    +0.000 A 
ATOM     19  C   UNL     1       1.195  10.737  18.358  0.00  0.00    +0.000 A 
ATOM     20  C   UNL     1      -0.105  11.194  18.751  0.00  0.00    +0.000 A 
BRANCH  15  22
ATOM     21  C   UNL     1      -2.000  13.011  20.691  0.00  0.00    +0.000 C 
ATOM     22  O   UNL     1      -1.569  13.062  19.325  0.00  0.00    +0.000 OA
ENDBRANCH  15  22
BRANCH  20  23
ATOM     23  O   UNL     1      -1.076  10.218  18.776  0.00  0.00    +0.000 OA
ATOM     24  C   UNL     1      -1.971  10.127  17.665  0.00  0.00    +0.000 C 
ENDBRANCH  20  23
ENDBRANCH   1  19
BRANCH   2  25
ATOM     25  C   UNL     1       1.621   8.475  20.066  0.00  0.00    +0.000 C 
ATOM     26  N   UNL     1       1.409   8.659  21.296  0.00  0.00    +0.000 NA
ENDBRANCH   2  25
TORSDOF 5
ENDMDL
