MODEL 1
REMARK VINA RESULT:      -6.4      0.000      0.000
REMARK  Name = 
REMARK  9 active torsions:
REMARK  status: ('A' for Active; 'I' for Inactive)
REMARK    1  A    between atoms: C_1  and  C_2
REMARK    2  A    between atoms: C_2  and  C_3
REMARK    3  A    between atoms: C_3  and  N_4
REMARK    4  A    between atoms: N_6  and  C_7
REMARK    5  A    between atoms: N_9  and  C_10
REMARK    6  A    between atoms: C_10  and  C_11
REMARK    7  A    between atoms: C_11  and  C_12
REMARK    8  A    between atoms: C_12  and  N_13
REMARK    9  A    between atoms: C_15  and  C_16
REMARK                            x       y       z     vdW  Elec       q    Type
REMARK                         _______ _______ _______ _____ _____    ______ ____
ROOT
ATOM      1  N   UNL     1       7.342   4.645  16.793  0.00  0.00    +0.000 NA
ATOM      2  C   UNL     1       6.156   4.165  16.636  0.00  0.00    +0.000 C 
ATOM      3  N   UNL     1       5.631   3.956  15.398  0.00  0.00    +0.000 N 
ATOM      4  N   UNL     1       5.329   3.789  17.661  0.00  0.00    +0.000 N 
ATOM      5  H   UNL     1       4.641   3.843  15.295  0.00  0.00    +0.000 HD
ATOM      6  H   UNL     1       5.729   3.823  18.604  0.00  0.00    +0.000 HD
ENDROOT
BRANCH   3   7
ATOM      7  C   UNL     1       6.358   4.382  14.233  0.00  0.00    +0.000 C 
ATOM      8  N   UNL     1       7.033   4.654  13.336  0.00  0.00    +0.000 NA
ENDBRANCH   3   7
BRANCH   1   9
ATOM      9  C   UNL     1       7.898   4.803  18.132  0.00  0.00    +0.000 C 
BRANCH   9  11
ATOM     10  C   UNL     1       7.594   7.229  17.537  0.00  0.00    +0.000 C 
ATOM     11  C   UNL     1       7.526   6.192  18.645  0.00  0.00    +0.000 C 
ENDBRANCH   9  11
ENDBRANCH   1   9
BRANCH   4  12
ATOM     12  C   UNL     1       4.025   3.165  17.626  0.00  0.00    +0.000 C 
BRANCH  12  13
ATOM     13  C   UNL     1       2.968   4.019  18.320  0.00  0.00    +0.000 C 
BRANCH  13  14
ATOM     14  C   UNL     1       3.568   5.050  19.281  0.00  0.00    +0.000 C 
BRANCH  14  15
ATOM     15  N   UNL     1       3.013   6.393  19.102  0.00  0.00    +0.000 N 
ATOM     16  N   UNL     1       2.192   6.860  20.109  0.00  0.00    +0.000 NA
ATOM     17  C   UNL     1       1.659   8.030  19.948  0.00  0.00    +0.000 A 
ATOM     18  C   UNL     1       0.825   8.614  21.059  0.00  0.00    +0.000 C 
ATOM     19  C   UNL     1       1.803   8.856  18.732  0.00  0.00    +0.000 A 
ATOM     20  C   UNL     1       2.634   8.409  17.794  0.00  0.00    +0.000 A 
ATOM     21  C   UNL     1       3.331   7.122  17.961  0.00  0.00    +0.000 A 
ATOM     22  O   UNL     1       4.087   6.745  17.069  0.00  0.00    +0.000 OA
ENDBRANCH  14  15
ENDBRANCH  13  14
ENDBRANCH  12  13
ENDBRANCH   4  12
TORSDOF 7
ENDMDL
MODEL 2
REMARK VINA RESULT:      -6.3      1.843      2.429
REMARK  Name = 
REMARK  9 active torsions:
REMARK  status: ('A' for Active; 'I' for Inactive)
REMARK    1  A    between atoms: C_1  and  C_2
REMARK    2  A    between atoms: C_2  and  C_3
REMARK    3  A    between atoms: C_3  and  N_4
REMARK    4  A    between atoms: N_6  and  C_7
REMARK    5  A    between atoms: N_9  and  C_10
REMARK    6  A    between atoms: C_10  and  C_11
REMARK    7  A    between atoms: C_11  and  C_12
REMARK    8  A    between atoms: C_12  and  N_13
REMARK    9  A    between atoms: C_15  and  C_16
REMARK                            x       y       z     vdW  Elec       q    Type
REMARK                         _______ _______ _______ _____ _____    ______ ____
ROOT
ATOM      1  N   UNL     1       6.377   6.062  16.184  0.00  0.00    +0.000 NA
ATOM      2  C   UNL     1       5.757   4.946  16.366  0.00  0.00    +0.000 C 
ATOM      3  N   UNL     1       5.834   3.934  15.458  0.00  0.00    +0.000 N 
ATOM      4  N   UNL     1       5.006   4.645  17.470  0.00  0.00    +0.000 N 
ATOM      5  H   UNL     1       5.153   3.201  15.480  0.00  0.00    +0.000 HD
ATOM      6  H   UNL     1       5.017   5.335  18.228  0.00  0.00    +0.000 HD
ENDROOT
BRANCH   3   7
ATOM      7  C   UNL     1       6.523   4.142  14.213  0.00  0.00    +0.000 C 
ATOM      8  N   UNL     1       7.037   4.424  13.218  0.00  0.00    +0.000 NA
ENDBRANCH   3   7
BRANCH   1   9
ATOM      9  C   UNL     1       6.322   7.105  17.202  0.00  0.00    +0.000 C 
BRANCH   9  11
ATOM     10  C   UNL     1       8.051   8.808  17.867  0.00  0.00    +0.000 C 
ATOM     11  C   UNL     1       7.734   7.328  17.738  0.00  0.00    +0.000 C 
ENDBRANCH   9  11
ENDBRANCH   1   9
BRANCH   4  12
ATOM     12  C   UNL     1       4.337   3.417  17.837  0.00  0.00    +0.000 C 
BRANCH  12  13
ATOM     13  C   UNL     1       3.012   3.251  17.101  0.00  0.00    +0.000 C 
BRANCH  13  14
ATOM     14  C   UNL     1       1.793   3.512  17.992  0.00  0.00    +0.000 C 
BRANCH  14  15
ATOM     15  N   UNL     1       1.872   4.784  18.714  0.00  0.00    +0.000 N 
ATOM     16  N   UNL     1       2.275   5.883  17.982  0.00  0.00    +0.000 NA
ATOM     17  C   UNL     1       2.390   7.009  18.614  0.00  0.00    +0.000 A 
ATOM     18  C   UNL     1       2.744   8.252  17.839  0.00  0.00    +0.000 C 
ATOM     19  C   UNL     1       2.200   7.176  20.070  0.00  0.00    +0.000 A 
ATOM     20  C   UNL     1       1.768   6.115  20.748  0.00  0.00    +0.000 A 
ATOM     21  C   UNL     1       1.542   4.831  20.064  0.00  0.00    +0.000 A 
ATOM     22  O   UNL     1       1.146   3.875  20.728  0.00  0.00    +0.000 OA
ENDBRANCH  14  15
ENDBRANCH  13  14
ENDBRANCH  12  13
ENDBRANCH   4  12
TORSDOF 7
ENDMDL
MODEL 3
REMARK VINA RESULT:      -6.2      2.137      3.491
REMARK  Name = 
REMARK  9 active torsions:
REMARK  status: ('A' for Active; 'I' for Inactive)
REMARK    1  A    between atoms: C_1  and  C_2
REMARK    2  A    between atoms: C_2  and  C_3
REMARK    3  A    between atoms: C_3  and  N_4
REMARK    4  A    between atoms: N_6  and  C_7
REMARK    5  A    between atoms: N_9  and  C_10
REMARK    6  A    between atoms: C_10  and  C_11
REMARK    7  A    between atoms: C_11  and  C_12
REMARK    8  A    between atoms: C_12  and  N_13
REMARK    9  A    between atoms: C_15  and  C_16
REMARK                            x       y       z     vdW  Elec       q    Type
REMARK                         _______ _______ _______ _____ _____    ______ ____
ROOT
ATOM      1  N   UNL     1       5.764   4.680  16.781  0.00  0.00    +0.000 NA
ATOM      2  C   UNL     1       5.557   4.124  17.926  0.00  0.00    +0.000 C 
ATOM      3  N   UNL     1       6.178   4.565  19.054  0.00  0.00    +0.000 N 
ATOM      4  N   UNL     1       4.691   3.084  18.139  0.00  0.00    +0.000 N 
ATOM      5  H   UNL     1       6.215   3.972  19.859  0.00  0.00    +0.000 HD
ATOM      6  H   UNL     1       4.118   2.799  17.339  0.00  0.00    +0.000 HD
ENDROOT
BRANCH   3   7
ATOM      7  C   UNL     1       7.175   5.597  18.962  0.00  0.00    +0.000 C 
ATOM      8  N   UNL     1       7.917   6.465  18.791  0.00  0.00    +0.000 NA
ENDBRANCH   3   7
BRANCH   1   9
ATOM      9  C   UNL     1       5.038   4.221  15.602  0.00  0.00    +0.000 C 
BRANCH   9  11
ATOM     10  C   UNL     1       7.294   4.953  14.760  0.00  0.00    +0.000 C 
ATOM     11  C   UNL     1       5.895   4.506  14.370  0.00  0.00    +0.000 C 
ENDBRANCH   9  11
ENDBRANCH   1   9
BRANCH   4  12
ATOM     12  C   UNL     1       4.303   2.431  19.370  0.00  0.00    +0.000 C 
BRANCH  12  13
ATOM     13  C   UNL     1       2.802   2.165  19.422  0.00  0.00    +0.000 C 
BRANCH  13  14
ATOM     14  C   UNL     1       1.995   3.107  18.522  0.00  0.00    +0.000 C 
BRANCH  14  15
ATOM     15  N   UNL     1       1.993   4.492  18.997  0.00  0.00    +0.000 N 
ATOM     16  N   UNL     1       2.499   5.440  18.130  0.00  0.00    +0.000 NA
ATOM     17  C   UNL     1       2.543   6.666  18.550  0.00  0.00    +0.000 A 
ATOM     18  C   UNL     1       3.009   7.746  17.608  0.00  0.00    +0.000 C 
ATOM     19  C   UNL     1       2.168   7.100  19.912  0.00  0.00    +0.000 A 
ATOM     20  C   UNL     1       1.640   6.179  20.714  0.00  0.00    +0.000 A 
ATOM     21  C   UNL     1       1.491   4.786  20.260  0.00  0.00    +0.000 A 
ATOM     22  O   UNL     1       1.002   3.966  21.034  0.00  0.00    +0.000 OA
ENDBRANCH  14  15
ENDBRANCH  13  14
ENDBRANCH  12  13
ENDBRANCH   4  12
TORSDOF 7
ENDMDL
MODEL 4
REMARK VINA RESULT:      -6.1      2.123      3.187
REMARK  Name = 
REMARK  9 active torsions:
REMARK  status: ('A' for Active; 'I' for Inactive)
REMARK    1  A    between atoms: C_1  and  C_2
REMARK    2  A    between atoms: C_2  and  C_3
REMARK    3  A    between atoms: C_3  and  N_4
REMARK    4  A    between atoms: N_6  and  C_7
REMARK    5  A    between atoms: N_9  and  C_10
REMARK    6  A    between atoms: C_10  and  C_11
REMARK    7  A    between atoms: C_11  and  C_12
REMARK    8  A    between atoms: C_12  and  N_13
REMARK    9  A    between atoms: C_15  and  C_16
REMARK                            x       y       z     vdW  Elec       q    Type
REMARK                         _______ _______ _______ _____ _____    ______ ____
ROOT
ATOM      1  N   UNL     1       6.038   3.971  18.858  0.00  0.00    +0.000 NA
ATOM      2  C   UNL     1       4.770   3.775  18.725  0.00  0.00    +0.000 C 
ATOM      3  N   UNL     1       4.099   2.897  19.519  0.00  0.00    +0.000 N 
ATOM      4  N   UNL     1       3.974   4.431  17.824  0.00  0.00    +0.000 N 
ATOM      5  H   UNL     1       3.199   2.565  19.235  0.00  0.00    +0.000 HD
ATOM      6  H   UNL     1       4.419   5.182  17.287  0.00  0.00    +0.000 HD
ENDROOT
BRANCH   3   7
ATOM      7  C   UNL     1       4.826   2.080  20.453  0.00  0.00    +0.000 C 
ATOM      8  N   UNL     1       5.303   1.378  21.237  0.00  0.00    +0.000 NA
ENDBRANCH   3   7
BRANCH   1   9
ATOM      9  C   UNL     1       6.717   4.961  18.030  0.00  0.00    +0.000 C 
BRANCH   9  11
ATOM     10  C   UNL     1       7.946   7.148  18.236  0.00  0.00    +0.000 C 
ATOM     11  C   UNL     1       7.543   5.865  18.943  0.00  0.00    +0.000 C 
ENDBRANCH   9  11
ENDBRANCH   1   9
BRANCH   4  12
ATOM     12  C   UNL     1       2.542   4.371  17.630  0.00  0.00    +0.000 C 
BRANCH  12  13
ATOM     13  C   UNL     1       1.831   5.550  18.288  0.00  0.00    +0.000 C 
BRANCH  13  14
ATOM     14  C   UNL     1       2.795   6.643  18.761  0.00  0.00    +0.000 C 
BRANCH  14  15
ATOM     15  N   UNL     1       2.111   7.860  19.203  0.00  0.00    +0.000 N 
ATOM     16  N   UNL     1       1.698   7.890  20.520  0.00  0.00    +0.000 NA
ATOM     17  C   UNL     1       1.054   8.942  20.917  0.00  0.00    +0.000 A 
ATOM     18  C   UNL     1       0.658   9.055  22.367  0.00  0.00    +0.000 C 
ATOM     19  C   UNL     1       0.663  10.066  20.041  0.00  0.00    +0.000 A 
ATOM     20  C   UNL     1       1.111  10.039  18.788  0.00  0.00    +0.000 A 
ATOM     21  C   UNL     1       1.917   8.904  18.306  0.00  0.00    +0.000 A 
ATOM     22  O   UNL     1       2.307   8.917  17.140  0.00  0.00    +0.000 OA
ENDBRANCH  14  15
ENDBRANCH  13  14
ENDBRANCH  12  13
ENDBRANCH   4  12
TORSDOF 7
ENDMDL
MODEL 5
REMARK VINA RESULT:      -6.1      1.682      2.280
REMARK  Name = 
REMARK  9 active torsions:
REMARK  status: ('A' for Active; 'I' for Inactive)
REMARK    1  A    between atoms: C_1  and  C_2
REMARK    2  A    between atoms: C_2  and  C_3
REMARK    3  A    between atoms: C_3  and  N_4
REMARK    4  A    between atoms: N_6  and  C_7
REMARK    5  A    between atoms: N_9  and  C_10
REMARK    6  A    between atoms: C_10  and  C_11
REMARK    7  A    between atoms: C_11  and  C_12
REMARK    8  A    between atoms: C_12  and  N_13
REMARK    9  A    between atoms: C_15  and  C_16
REMARK                            x       y       z     vdW  Elec       q    Type
REMARK                         _______ _______ _______ _____ _____    ______ ____
ROOT
ATOM      1  N   UNL     1       7.078   5.040  16.186  0.00  0.00    +0.000 NA
ATOM      2  C   UNL     1       6.120   4.182  16.085  0.00  0.00    +0.000 C 
ATOM      3  N   UNL     1       5.826   3.581  14.899  0.00  0.00    +0.000 N 
ATOM      4  N   UNL     1       5.340   3.762  17.129  0.00  0.00    +0.000 N 
ATOM      5  H   UNL     1       4.938   3.137  14.779  0.00  0.00    +0.000 HD
ATOM      6  H   UNL     1       5.603   4.103  18.058  0.00  0.00    +0.000 HD
ENDROOT
BRANCH   3   7
ATOM      7  C   UNL     1       6.513   3.989  13.703  0.00  0.00    +0.000 C 
ATOM      8  N   UNL     1       6.983   4.252  12.682  0.00  0.00    +0.000 NA
ENDBRANCH   3   7
BRANCH   1   9
ATOM      9  C   UNL     1       7.405   5.622  17.483  0.00  0.00    +0.000 C 
BRANCH   9  11
ATOM     10  C   UNL     1       8.236   7.783  18.470  0.00  0.00    +0.000 C 
ATOM     11  C   UNL     1       7.471   7.139  17.325  0.00  0.00    +0.000 C 
ENDBRANCH   9  11
ENDBRANCH   1   9
BRANCH   4  12
ATOM     12  C   UNL     1       4.303   2.755  17.171  0.00  0.00    +0.000 C 
BRANCH  12  13
ATOM     13  C   UNL     1       3.692   2.629  18.564  0.00  0.00    +0.000 C 
BRANCH  13  14
ATOM     14  C   UNL     1       4.229   3.671  19.550  0.00  0.00    +0.000 C 
BRANCH  14  15
ATOM     15  N   UNL     1       3.359   4.842  19.677  0.00  0.00    +0.000 N 
ATOM     16  N   UNL     1       3.541   5.848  18.748  0.00  0.00    +0.000 NA
ATOM     17  C   UNL     1       2.808   6.910  18.871  0.00  0.00    +0.000 A 
ATOM     18  C   UNL     1       2.913   7.996  17.831  0.00  0.00    +0.000 C 
ATOM     19  C   UNL     1       1.857   7.149  19.976  0.00  0.00    +0.000 A 
ATOM     20  C   UNL     1       1.663   6.149  20.832  0.00  0.00    +0.000 A 
ATOM     21  C   UNL     1       2.411   4.888  20.693  0.00  0.00    +0.000 A 
ATOM     22  O   UNL     1       2.204   3.991  21.508  0.00  0.00    +0.000 OA
ENDBRANCH  14  15
ENDBRANCH  13  14
ENDBRANCH  12  13
ENDBRANCH   4  12
TORSDOF 7
ENDMDL
MODEL 6
REMARK VINA RESULT:      -6.0      2.049      3.473
REMARK  Name = 
REMARK  9 active torsions:
REMARK  status: ('A' for Active; 'I' for Inactive)
REMARK    1  A    between atoms: C_1  and  C_2
REMARK    2  A    between atoms: C_2  and  C_3
REMARK    3  A    between atoms: C_3  and  N_4
REMARK    4  A    between atoms: N_6  and  C_7
REMARK    5  A    between atoms: N_9  and  C_10
REMARK    6  A    between atoms: C_10  and  C_11
REMARK    7  A    between atoms: C_11  and  C_12
REMARK    8  A    between atoms: C_12  and  N_13
REMARK    9  A    between atoms: C_15  and  C_16
REMARK                            x       y       z     vdW  Elec       q    Type
REMARK                         _______ _______ _______ _____ _____    ______ ____
ROOT
ATOM      1  N   UNL     1       6.334   4.728  15.507  0.00  0.00    +0.000 NA
ATOM      2  C   UNL     1       5.710   4.587  16.627  0.00  0.00    +0.000 C 
ATOM      3  N   UNL     1       5.733   5.557  17.581  0.00  0.00    +0.000 N 
ATOM      4  N   UNL     1       4.949   3.498  16.960  0.00  0.00    +0.000 N 
ATOM      5  H   UNL     1       5.479   5.329  18.522  0.00  0.00    +0.000 HD
ATOM      6  H   UNL     1       4.812   2.798  16.225  0.00  0.00    +0.000 HD
ENDROOT
BRANCH   3   7
ATOM      7  C   UNL     1       6.560   6.719  17.397  0.00  0.00    +0.000 C 
ATOM      8  N   UNL     1       7.149   7.685  17.162  0.00  0.00    +0.000 NA
ENDBRANCH   3   7
BRANCH   1   9
ATOM      9  C   UNL     1       6.241   3.695  14.482  0.00  0.00    +0.000 C 
BRANCH   9  11
ATOM     10  C   UNL     1       7.783   5.249  13.241  0.00  0.00    +0.000 C 
ATOM     11  C   UNL     1       6.581   4.325  13.133  0.00  0.00    +0.000 C 
ENDBRANCH   9  11
ENDBRANCH   1   9
BRANCH   4  12
ATOM     12  C   UNL     1       4.136   3.252  18.131  0.00  0.00    +0.000 C 
BRANCH  12  13
ATOM     13  C   UNL     1       2.921   2.390  17.805  0.00  0.00    +0.000 C 
BRANCH  13  14
ATOM     14  C   UNL     1       1.593   3.064  18.165  0.00  0.00    +0.000 C 
BRANCH  14  15
ATOM     15  N   UNL     1       1.768   4.368  18.809  0.00  0.00    +0.000 N 
ATOM     16  N   UNL     1       2.219   5.396  18.006  0.00  0.00    +0.000 NA
ATOM     17  C   UNL     1       2.419   6.547  18.568  0.00  0.00    +0.000 A 
ATOM     18  C   UNL     1       2.830   7.718  17.714  0.00  0.00    +0.000 C 
ATOM     19  C   UNL     1       2.276   6.808  20.015  0.00  0.00    +0.000 A 
ATOM     20  C   UNL     1       1.796   5.817  20.763  0.00  0.00    +0.000 A 
ATOM     21  C   UNL     1       1.475   4.512  20.161  0.00  0.00    +0.000 A 
ATOM     22  O   UNL     1       1.038   3.623  20.888  0.00  0.00    +0.000 OA
ENDBRANCH  14  15
ENDBRANCH  13  14
ENDBRANCH  12  13
ENDBRANCH   4  12
TORSDOF 7
ENDMDL
MODEL 7
REMARK VINA RESULT:      -6.0      1.251      1.405
REMARK  Name = 
REMARK  9 active torsions:
REMARK  status: ('A' for Active; 'I' for Inactive)
REMARK    1  A    between atoms: C_1  and  C_2
REMARK    2  A    between atoms: C_2  and  C_3
REMARK    3  A    between atoms: C_3  and  N_4
REMARK    4  A    between atoms: N_6  and  C_7
REMARK    5  A    between atoms: N_9  and  C_10
REMARK    6  A    between atoms: C_10  and  C_11
REMARK    7  A    between atoms: C_11  and  C_12
REMARK    8  A    between atoms: C_12  and  N_13
REMARK    9  A    between atoms: C_15  and  C_16
REMARK                            x       y       z     vdW  Elec       q    Type
REMARK                         _______ _______ _______ _____ _____    ______ ____
ROOT
ATOM      1  N   UNL     1       6.730   5.315  17.736  0.00  0.00    +0.000 NA
ATOM      2  C   UNL     1       5.860   4.383  17.931  0.00  0.00    +0.000 C 
ATOM      3  N   UNL     1       5.479   3.545  16.929  0.00  0.00    +0.000 N 
ATOM      4  N   UNL     1       5.266   4.115  19.136  0.00  0.00    +0.000 N 
ATOM      5  H   UNL     1       4.631   3.021  17.021  0.00  0.00    +0.000 HD
ATOM      6  H   UNL     1       5.611   4.648  19.941  0.00  0.00    +0.000 HD
ENDROOT
BRANCH   3   7
ATOM      7  C   UNL     1       5.962   3.765  15.592  0.00  0.00    +0.000 C 
ATOM      8  N   UNL     1       6.275   3.854  14.484  0.00  0.00    +0.000 NA
ENDBRANCH   3   7
BRANCH   1   9
ATOM      9  C   UNL     1       7.161   6.159  18.846  0.00  0.00    +0.000 C 
BRANCH   9  11
ATOM     10  C   UNL     1       7.592   8.401  17.787  0.00  0.00    +0.000 C 
ATOM     11  C   UNL     1       8.221   7.128  18.328  0.00  0.00    +0.000 C 
ENDBRANCH   9  11
ENDBRANCH   1   9
BRANCH   4  12
ATOM     12  C   UNL     1       4.351   3.060  19.510  0.00  0.00    +0.000 C 
BRANCH  12  13
ATOM     13  C   UNL     1       3.236   3.572  20.416  0.00  0.00    +0.000 C 
BRANCH  13  14
ATOM     14  C   UNL     1       2.043   4.137  19.639  0.00  0.00    +0.000 C 
BRANCH  14  15
ATOM     15  N   UNL     1       2.102   5.591  19.474  0.00  0.00    +0.000 N 
ATOM     16  N   UNL     1       1.644   6.350  20.532  0.00  0.00    +0.000 NA
ATOM     17  C   UNL     1       1.650   7.638  20.387  0.00  0.00    +0.000 A 
ATOM     18  C   UNL     1       1.239   8.508  21.546  0.00  0.00    +0.000 C 
ATOM     19  C   UNL     1       2.035   8.339  19.144  0.00  0.00    +0.000 A 
ATOM     20  C   UNL     1       2.517   7.592  18.154  0.00  0.00    +0.000 A 
ATOM     21  C   UNL     1       2.608   6.129  18.296  0.00  0.00    +0.000 A 
ATOM     22  O   UNL     1       3.055   5.476  17.355  0.00  0.00    +0.000 OA
ENDBRANCH  14  15
ENDBRANCH  13  14
ENDBRANCH  12  13
ENDBRANCH   4  12
TORSDOF 7
ENDMDL
MODEL 8
REMARK VINA RESULT:      -5.9      3.503      7.717
REMARK  Name = 
REMARK  9 active torsions:
REMARK  status: ('A' for Active; 'I' for Inactive)
REMARK    1  A    between atoms: C_1  and  C_2
REMARK    2  A    between atoms: C_2  and  C_3
REMARK    3  A    between atoms: C_3  and  N_4
REMARK    4  A    between atoms: N_6  and  C_7
REMARK    5  A    between atoms: N_9  and  C_10
REMARK    6  A    between atoms: C_10  and  C_11
REMARK    7  A    between atoms: C_11  and  C_12
REMARK    8  A    between atoms: C_12  and  N_13
REMARK    9  A    between atoms: C_15  and  C_16
REMARK                            x       y       z     vdW  Elec       q    Type
REMARK                         _______ _______ _______ _____ _____    ______ ____
ROOT
ATOM      1  N   UNL     1      -0.702  10.193  19.938  0.00  0.00    +0.000 NA
ATOM      2  C   UNL     1       0.476   9.695  19.773  0.00  0.00    +0.000 C 
ATOM      3  N   UNL     1       1.229   9.285  20.830  0.00  0.00    +0.000 N 
ATOM      4  N   UNL     1       1.071   9.496  18.556  0.00  0.00    +0.000 N 
ATOM      5  H   UNL     1       2.215   9.158  20.712  0.00  0.00    +0.000 HD
ATOM      6  H   UNL     1       0.493   9.685  17.731  0.00  0.00    +0.000 HD
ENDROOT
BRANCH   3   7
ATOM      7  C   UNL     1       0.761   9.510  22.170  0.00  0.00    +0.000 C 
ATOM      8  N   UNL     1       0.496   9.664  23.284  0.00  0.00    +0.000 NA
ENDBRANCH   3   7
BRANCH   1   9
ATOM      9  C   UNL     1      -1.507  10.569  18.781  0.00  0.00    +0.000 C 
BRANCH   9  11
ATOM     10  C   UNL     1      -0.732  12.890  18.191  0.00  0.00    +0.000 C 
ATOM     11  C   UNL     1      -1.809  12.063  18.873  0.00  0.00    +0.000 C 
ENDBRANCH   9  11
ENDBRANCH   1   9
BRANCH   4  12
ATOM     12  C   UNL     1       2.336   8.876  18.226  0.00  0.00    +0.000 C 
BRANCH  12  13
ATOM     13  C   UNL     1       2.183   7.381  17.966  0.00  0.00    +0.000 C 
BRANCH  13  14
ATOM     14  C   UNL     1       3.224   6.534  18.705  0.00  0.00    +0.000 C 
BRANCH  14  15
ATOM     15  N   UNL     1       2.688   5.260  19.188  0.00  0.00    +0.000 N 
ATOM     16  N   UNL     1       3.088   4.127  18.509  0.00  0.00    +0.000 NA
ATOM     17  C   UNL     1       2.592   2.994  18.897  0.00  0.00    +0.000 A 
ATOM     18  C   UNL     1       3.065   1.723  18.240  0.00  0.00    +0.000 C 
ATOM     19  C   UNL     1       1.571   2.845  19.956  0.00  0.00    +0.000 A 
ATOM     20  C   UNL     1       1.235   3.943  20.628  0.00  0.00    +0.000 A 
ATOM     21  C   UNL     1       1.830   5.245  20.282  0.00  0.00    +0.000 A 
ATOM     22  O   UNL     1       1.488   6.235  20.926  0.00  0.00    +0.000 OA
ENDBRANCH  14  15
ENDBRANCH  13  14
ENDBRANCH  12  13
ENDBRANCH   4  12
TORSDOF 7
ENDMDL
MODEL 9
REMARK VINA RESULT:      -5.8      2.979      5.532
REMARK  Name = 
REMARK  9 active torsions:
REMARK  status: ('A' for Active; 'I' for Inactive)
REMARK    1  A    between atoms: C_1  and  C_2
REMARK    2  A    between atoms: C_2  and  C_3
REMARK    3  A    between atoms: C_3  and  N_4
REMARK    4  A    between atoms: N_6  and  C_7
REMARK    5  A    between atoms: N_9  and  C_10
REMARK    6  A    between atoms: C_10  and  C_11
REMARK    7  A    between atoms: C_11  and  C_12
REMARK    8  A    between atoms: C_12  and  N_13
REMARK    9  A    between atoms: C_15  and  C_16
REMARK                            x       y       z     vdW  Elec       q    Type
REMARK                         _______ _______ _______ _____ _____    ______ ____
ROOT
ATOM      1  N   UNL     1       2.985   5.401  19.415  0.00  0.00    +0.000 NA
ATOM      2  C   UNL     1       2.998   6.455  18.672  0.00  0.00    +0.000 C 
ATOM      3  N   UNL     1       3.793   6.539  17.571  0.00  0.00    +0.000 N 
ATOM      4  N   UNL     1       2.214   7.559  18.876  0.00  0.00    +0.000 N 
ATOM      5  H   UNL     1       3.989   7.435  17.171  0.00  0.00    +0.000 HD
ATOM      6  H   UNL     1       1.519   7.490  19.626  0.00  0.00    +0.000 HD
ENDROOT
BRANCH   3   7
ATOM      7  C   UNL     1       4.728   5.484  17.284  0.00  0.00    +0.000 C 
ATOM      8  N   UNL     1       5.566   4.715  17.082  0.00  0.00    +0.000 NA
ENDBRANCH   3   7
BRANCH   1   9
ATOM      9  C   UNL     1       2.078   5.320  20.555  0.00  0.00    +0.000 C 
BRANCH   9  11
ATOM     10  C   UNL     1       1.367   2.993  21.197  0.00  0.00    +0.000 C 
ATOM     11  C   UNL     1       1.087   4.187  20.300  0.00  0.00    +0.000 C 
ENDBRANCH   9  11
ENDBRANCH   1   9
BRANCH   4  12
ATOM     12  C   UNL     1       2.067   8.759  18.081  0.00  0.00    +0.000 C 
BRANCH  12  13
ATOM     13  C   UNL     1       0.865   9.587  18.522  0.00  0.00    +0.000 C 
BRANCH  13  14
ATOM     14  C   UNL     1       1.222  10.659  19.557  0.00  0.00    +0.000 C 
BRANCH  14  15
ATOM     15  N   UNL     1       0.425  10.563  20.781  0.00  0.00    +0.000 N 
ATOM     16  N   UNL     1      -0.580  11.497  20.936  0.00  0.00    +0.000 NA
ATOM     17  C   UNL     1      -1.269  11.453  22.033  0.00  0.00    +0.000 A 
ATOM     18  C   UNL     1      -2.430  12.398  22.208  0.00  0.00    +0.000 C 
ATOM     19  C   UNL     1      -1.001  10.529  23.155  0.00  0.00    +0.000 A 
ATOM     20  C   UNL     1      -0.060   9.608  22.966  0.00  0.00    +0.000 A 
ATOM     21  C   UNL     1       0.700   9.561  21.705  0.00  0.00    +0.000 A 
ATOM     22  O   UNL     1       1.564   8.696  21.574  0.00  0.00    +0.000 OA
ENDBRANCH  14  15
ENDBRANCH  13  14
ENDBRANCH  12  13
ENDBRANCH   4  12
TORSDOF 7
ENDMDL
