MODEL 1
REMARK VINA RESULT:      -7.8      0.000      0.000
REMARK  Name = 
REMARK  7 active torsions:
REMARK  status: ('A' for Active; 'I' for Inactive)
REMARK    1  A    between atoms: C_1  and  O_2
REMARK    2  A    between atoms: O_2  and  C_3
REMARK    3  A    between atoms: C_6  and  O_7
REMARK    4  A    between atoms: O_7  and  C_8
REMARK    5  A    between atoms: C_8  and  C_9
REMARK    6  A    between atoms: C_12  and  C_13
REMARK    7  A    between atoms: N_18  and  C_19
REMARK                            x       y       z     vdW  Elec       q    Type
REMARK                         _______ _______ _______ _____ _____    ______ ____
ROOT
ATOM      1  C   UNL     1       7.878   7.487  18.232  0.00  0.00    +0.000 A 
ATOM      2  C   UNL     1       8.004   6.242  18.861  0.00  0.00    +0.000 A 
ATOM      3  C   UNL     1       7.193   5.169  18.473  0.00  0.00    +0.000 A 
ATOM      4  C   UNL     1       6.258   5.324  17.443  0.00  0.00    +0.000 A 
ATOM      5  C   UNL     1       6.125   6.566  16.814  0.00  0.00    +0.000 A 
ATOM      6  C   UNL     1       6.947   7.633  17.191  0.00  0.00    +0.000 A 
ENDROOT
BRANCH   4   7
ATOM      7  C   UNL     1       5.341   4.194  17.139  0.00  0.00    +0.000 C 
ATOM      8  O   UNL     1       5.436   3.669  16.029  0.00  0.00    +0.000 OA
ATOM      9  N   UNL     1       4.440   3.734  18.110  0.00  0.00    +0.000 N 
ATOM     10  C   UNL     1       3.648   2.561  17.727  0.00  0.00    +0.000 C 
ATOM     11  C   UNL     1       2.948   1.888  18.922  0.00  0.00    +0.000 C 
ATOM     12  N   UNL     1       2.187   2.804  19.795  0.00  0.00    +0.000 NA
ATOM     13  C   UNL     1       0.961   3.271  19.148  0.00  0.00    +0.000 C 
ATOM     14  C   UNL     1       3.059   3.927  20.193  0.00  0.00    +0.000 C 
ATOM     15  C   UNL     1       3.758   4.657  19.028  0.00  0.00    +0.000 C 
ENDBRANCH   4   7
BRANCH   1  16
ATOM     16  C   UNL     1       8.716   8.665  18.676  0.00  0.00    +0.000 C 
BRANCH  16  17
ATOM     17  O   UNL     1       8.200   9.853  18.075  0.00  0.00    +0.000 OA
BRANCH  17  21
ATOM     18  C   UNL     1      10.656  13.159  18.767  0.00  0.00    +0.000 A 
ATOM     19  C   UNL     1      10.883  11.925  19.377  0.00  0.00    +0.000 A 
ATOM     20  C   UNL     1      10.040  10.841  19.118  0.00  0.00    +0.000 A 
ATOM     21  C   UNL     1       8.937  10.989  18.275  0.00  0.00    +0.000 A 
ATOM     22  C   UNL     1       8.700  12.228  17.679  0.00  0.00    +0.000 A 
ATOM     23  C   UNL     1       9.556  13.309  17.923  0.00  0.00    +0.000 A 
BRANCH  18  25
ATOM     24  C   UNL     1      11.826  15.084  18.058  0.00  0.00    +0.000 C 
ATOM     25  O   UNL     1      11.550  14.142  19.088  0.00  0.00    +0.000 OA
ENDBRANCH  18  25
ENDBRANCH  17  21
ENDBRANCH  16  17
ENDBRANCH   1  16
TORSDOF 5
ENDMDL
MODEL 2
REMARK VINA RESULT:      -7.8      0.754      1.473
REMARK  Name = 
REMARK  7 active torsions:
REMARK  status: ('A' for Active; 'I' for Inactive)
REMARK    1  A    between atoms: C_1  and  O_2
REMARK    2  A    between atoms: O_2  and  C_3
REMARK    3  A    between atoms: C_6  and  O_7
REMARK    4  A    between atoms: O_7  and  C_8
REMARK    5  A    between atoms: C_8  and  C_9
REMARK    6  A    between atoms: C_12  and  C_13
REMARK    7  A    between atoms: N_18  and  C_19
REMARK                            x       y       z     vdW  Elec       q    Type
REMARK                         _______ _______ _______ _____ _____    ______ ____
ROOT
ATOM      1  C   UNL     1       7.551   7.761  17.698  0.00  0.00    +0.000 A 
ATOM      2  C   UNL     1       6.388   7.750  16.918  0.00  0.00    +0.000 A 
ATOM      3  C   UNL     1       5.614   6.588  16.817  0.00  0.00    +0.000 A 
ATOM      4  C   UNL     1       5.986   5.428  17.507  0.00  0.00    +0.000 A 
ATOM      5  C   UNL     1       7.148   5.432  18.284  0.00  0.00    +0.000 A 
ATOM      6  C   UNL     1       7.912   6.598  18.397  0.00  0.00    +0.000 A 
ENDROOT
BRANCH   4   7
ATOM      7  C   UNL     1       5.200   4.186  17.284  0.00  0.00    +0.000 C 
ATOM      8  O   UNL     1       5.388   3.578  16.229  0.00  0.00    +0.000 OA
ATOM      9  N   UNL     1       4.317   3.722  18.269  0.00  0.00    +0.000 N 
ATOM     10  C   UNL     1       3.663   2.443  17.975  0.00  0.00    +0.000 C 
ATOM     11  C   UNL     1       2.994   1.809  19.208  0.00  0.00    +0.000 C 
ATOM     12  N   UNL     1       2.113   2.714  19.974  0.00  0.00    +0.000 NA
ATOM     13  C   UNL     1       0.870   2.991  19.256  0.00  0.00    +0.000 C 
ATOM     14  C   UNL     1       2.852   3.952  20.289  0.00  0.00    +0.000 C 
ATOM     15  C   UNL     1       3.513   4.646  19.081  0.00  0.00    +0.000 C 
ENDBRANCH   4   7
BRANCH   1  16
ATOM     16  C   UNL     1       8.419   8.997  17.776  0.00  0.00    +0.000 C 
BRANCH  16  17
ATOM     17  O   UNL     1       8.735   9.256  19.143  0.00  0.00    +0.000 OA
BRANCH  17  21
ATOM     18  C   UNL     1      10.732  12.892  19.628  0.00  0.00    +0.000 A 
ATOM     19  C   UNL     1      10.530  12.317  18.373  0.00  0.00    +0.000 A 
ATOM     20  C   UNL     1       9.854  11.100  18.251  0.00  0.00    +0.000 A 
ATOM     21  C   UNL     1       9.406  10.424  19.387  0.00  0.00    +0.000 A 
ATOM     22  C   UNL     1       9.624  10.989  20.644  0.00  0.00    +0.000 A 
ATOM     23  C   UNL     1      10.284  12.219  20.764  0.00  0.00    +0.000 A 
BRANCH  18  25
ATOM     24  C   UNL     1      11.943  14.482  18.371  0.00  0.00    +0.000 C 
ATOM     25  O   UNL     1      11.397  14.086  19.624  0.00  0.00    +0.000 OA
ENDBRANCH  18  25
ENDBRANCH  17  21
ENDBRANCH  16  17
ENDBRANCH   1  16
TORSDOF 5
ENDMDL
MODEL 3
REMARK VINA RESULT:      -7.7      0.488      1.083
REMARK  Name = 
REMARK  7 active torsions:
REMARK  status: ('A' for Active; 'I' for Inactive)
REMARK    1  A    between atoms: C_1  and  O_2
REMARK    2  A    between atoms: O_2  and  C_3
REMARK    3  A    between atoms: C_6  and  O_7
REMARK    4  A    between atoms: O_7  and  C_8
REMARK    5  A    between atoms: C_8  and  C_9
REMARK    6  A    between atoms: C_12  and  C_13
REMARK    7  A    between atoms: N_18  and  C_19
REMARK                            x       y       z     vdW  Elec       q    Type
REMARK                         _______ _______ _______ _____ _____    ______ ____
ROOT
ATOM      1  C   UNL     1       7.823   7.494  18.207  0.00  0.00    +0.000 A 
ATOM      2  C   UNL     1       6.823   7.642  17.237  0.00  0.00    +0.000 A 
ATOM      3  C   UNL     1       5.963   6.578  16.939  0.00  0.00    +0.000 A 
ATOM      4  C   UNL     1       6.084   5.360  17.619  0.00  0.00    +0.000 A 
ATOM      5  C   UNL     1       7.082   5.205  18.585  0.00  0.00    +0.000 A 
ATOM      6  C   UNL     1       7.930   6.274  18.893  0.00  0.00    +0.000 A 
ENDROOT
BRANCH   4   7
ATOM      7  C   UNL     1       5.225   4.222  17.194  0.00  0.00    +0.000 C 
ATOM      8  O   UNL     1       5.349   3.819  16.037  0.00  0.00    +0.000 OA
ATOM      9  N   UNL     1       4.347   3.621  18.107  0.00  0.00    +0.000 N 
ATOM     10  C   UNL     1       3.617   2.455  17.601  0.00  0.00    +0.000 C 
ATOM     11  C   UNL     1       2.949   1.629  18.717  0.00  0.00    +0.000 C 
ATOM     12  N   UNL     1       2.141   2.412  19.673  0.00  0.00    +0.000 NA
ATOM     13  C   UNL     1       0.894   2.881  19.068  0.00  0.00    +0.000 C 
ATOM     14  C   UNL     1       2.954   3.530  20.189  0.00  0.00    +0.000 C 
ATOM     15  C   UNL     1       3.617   4.410  19.109  0.00  0.00    +0.000 C 
ENDBRANCH   4   7
BRANCH   1  16
ATOM     16  C   UNL     1       8.786   8.622  18.502  0.00  0.00    +0.000 C 
BRANCH  16  17
ATOM     17  O   UNL     1       8.240   9.841  18.001  0.00  0.00    +0.000 OA
BRANCH  17  21
ATOM     18  C   UNL     1      10.596  13.140  19.001  0.00  0.00    +0.000 A 
ATOM     19  C   UNL     1      10.763  11.897  19.611  0.00  0.00    +0.000 A 
ATOM     20  C   UNL     1       9.956  10.815  19.247  0.00  0.00    +0.000 A 
ATOM     21  C   UNL     1       8.947  10.975  18.297  0.00  0.00    +0.000 A 
ATOM     22  C   UNL     1       8.768  12.224  17.699  0.00  0.00    +0.000 A 
ATOM     23  C   UNL     1       9.590  13.303  18.050  0.00  0.00    +0.000 A 
BRANCH  18  25
ATOM     24  C   UNL     1      10.825  15.287  19.959  0.00  0.00    +0.000 C 
ATOM     25  O   UNL     1      11.447  14.121  19.431  0.00  0.00    +0.000 OA
ENDBRANCH  18  25
ENDBRANCH  17  21
ENDBRANCH  16  17
ENDBRANCH   1  16
TORSDOF 5
ENDMDL
MODEL 4
REMARK VINA RESULT:      -7.7      0.468      1.064
REMARK  Name = 
REMARK  7 active torsions:
REMARK  status: ('A' for Active; 'I' for Inactive)
REMARK    1  A    between atoms: C_1  and  O_2
REMARK    2  A    between atoms: O_2  and  C_3
REMARK    3  A    between atoms: C_6  and  O_7
REMARK    4  A    between atoms: O_7  and  C_8
REMARK    5  A    between atoms: C_8  and  C_9
REMARK    6  A    between atoms: C_12  and  C_13
REMARK    7  A    between atoms: N_18  and  C_19
REMARK                            x       y       z     vdW  Elec       q    Type
REMARK                         _______ _______ _______ _____ _____    ______ ____
ROOT
ATOM      1  C   UNL     1       7.695   7.278  18.132  0.00  0.00    +0.000 A 
ATOM      2  C   UNL     1       7.854   5.953  18.558  0.00  0.00    +0.000 A 
ATOM      3  C   UNL     1       6.942   4.968  18.163  0.00  0.00    +0.000 A 
ATOM      4  C   UNL     1       5.869   5.293  17.325  0.00  0.00    +0.000 A 
ATOM      5  C   UNL     1       5.703   6.614  16.899  0.00  0.00    +0.000 A 
ATOM      6  C   UNL     1       6.624   7.594  17.281  0.00  0.00    +0.000 A 
ENDROOT
BRANCH   4   7
ATOM      7  C   UNL     1       4.862   4.242  17.020  0.00  0.00    +0.000 C 
ATOM      8  O   UNL     1       4.755   3.882  15.847  0.00  0.00    +0.000 OA
ATOM      9  N   UNL     1       4.104   3.670  18.052  0.00  0.00    +0.000 N 
ATOM     10  C   UNL     1       3.206   2.585  17.644  0.00  0.00    +0.000 C 
ATOM     11  C   UNL     1       2.671   1.763  18.832  0.00  0.00    +0.000 C 
ATOM     12  N   UNL     1       2.103   2.562  19.936  0.00  0.00    +0.000 NA
ATOM     13  C   UNL     1       0.815   3.149  19.569  0.00  0.00    +0.000 C 
ATOM     14  C   UNL     1       3.080   3.593  20.338  0.00  0.00    +0.000 C 
ATOM     15  C   UNL     1       3.621   4.467  19.188  0.00  0.00    +0.000 C 
ENDBRANCH   4   7
BRANCH   1  16
ATOM     16  C   UNL     1       8.648   8.358  18.592  0.00  0.00    +0.000 C 
BRANCH  16  17
ATOM     17  O   UNL     1       8.260   9.599  18.005  0.00  0.00    +0.000 OA
BRANCH  17  21
ATOM     18  C   UNL     1      10.278  13.095  19.074  0.00  0.00    +0.000 A 
ATOM     19  C   UNL     1       9.354  13.061  18.030  0.00  0.00    +0.000 A 
ATOM     20  C   UNL     1       8.697  11.872  17.703  0.00  0.00    +0.000 A 
ATOM     21  C   UNL     1       8.984  10.694  18.393  0.00  0.00    +0.000 A 
ATOM     22  C   UNL     1       9.922  10.723  19.427  0.00  0.00    +0.000 A 
ATOM     23  C   UNL     1      10.566  11.920  19.767  0.00  0.00    +0.000 A 
BRANCH  18  25
ATOM     24  C   UNL     1      10.805  15.234  18.223  0.00  0.00    +0.000 C 
ATOM     25  O   UNL     1      10.852  14.314  19.308  0.00  0.00    +0.000 OA
ENDBRANCH  18  25
ENDBRANCH  17  21
ENDBRANCH  16  17
ENDBRANCH   1  16
TORSDOF 5
ENDMDL
MODEL 5
REMARK VINA RESULT:      -7.6      6.354      9.288
REMARK  Name = 
REMARK  7 active torsions:
REMARK  status: ('A' for Active; 'I' for Inactive)
REMARK    1  A    between atoms: C_1  and  O_2
REMARK    2  A    between atoms: O_2  and  C_3
REMARK    3  A    between atoms: C_6  and  O_7
REMARK    4  A    between atoms: O_7  and  C_8
REMARK    5  A    between atoms: C_8  and  C_9
REMARK    6  A    between atoms: C_12  and  C_13
REMARK    7  A    between atoms: N_18  and  C_19
REMARK                            x       y       z     vdW  Elec       q    Type
REMARK                         _______ _______ _______ _____ _____    ______ ____
ROOT
ATOM      1  C   UNL     1       1.170   9.409  19.501  0.00  0.00    +0.000 A 
ATOM      2  C   UNL     1       1.345   8.440  20.498  0.00  0.00    +0.000 A 
ATOM      3  C   UNL     1       1.970   7.223  20.200  0.00  0.00    +0.000 A 
ATOM      4  C   UNL     1       2.440   6.967  18.906  0.00  0.00    +0.000 A 
ATOM      5  C   UNL     1       2.265   7.929  17.907  0.00  0.00    +0.000 A 
ATOM      6  C   UNL     1       1.656   9.150  18.209  0.00  0.00    +0.000 A 
ENDROOT
BRANCH   4   7
ATOM      7  C   UNL     1       2.996   5.621  18.605  0.00  0.00    +0.000 C 
ATOM      8  O   UNL     1       2.424   4.649  19.099  0.00  0.00    +0.000 OA
ATOM      9  N   UNL     1       4.104   5.488  17.757  0.00  0.00    +0.000 N 
ATOM     10  C   UNL     1       4.509   4.109  17.464  0.00  0.00    +0.000 C 
ATOM     11  C   UNL     1       5.480   4.004  16.274  0.00  0.00    +0.000 C 
ATOM     12  N   UNL     1       6.639   4.917  16.332  0.00  0.00    +0.000 NA
ATOM     13  C   UNL     1       7.604   4.500  17.349  0.00  0.00    +0.000 C 
ATOM     14  C   UNL     1       6.158   6.293  16.566  0.00  0.00    +0.000 C 
ATOM     15  C   UNL     1       5.207   6.458  17.770  0.00  0.00    +0.000 C 
ENDBRANCH   4   7
BRANCH   1  16
ATOM     16  C   UNL     1       0.455  10.706  19.801  0.00  0.00    +0.000 C 
BRANCH  16  17
ATOM     17  O   UNL     1      -0.042  11.254  18.581  0.00  0.00    +0.000 OA
BRANCH  17  21
ATOM     18  C   UNL     1      -4.144  10.863  17.901  0.00  0.00    +0.000 A 
ATOM     19  C   UNL     1      -3.624  11.817  18.776  0.00  0.00    +0.000 A 
ATOM     20  C   UNL     1      -2.244  11.920  18.975  0.00  0.00    +0.000 A 
ATOM     21  C   UNL     1      -1.371  11.042  18.331  0.00  0.00    +0.000 A 
ATOM     22  C   UNL     1      -1.892  10.075  17.469  0.00  0.00    +0.000 A 
ATOM     23  C   UNL     1      -3.273   9.987  17.255  0.00  0.00    +0.000 A 
BRANCH  18  25
ATOM     24  C   UNL     1      -6.231  11.097  18.981  0.00  0.00    +0.000 C 
ATOM     25  O   UNL     1      -5.505  10.862  17.780  0.00  0.00    +0.000 OA
ENDBRANCH  18  25
ENDBRANCH  17  21
ENDBRANCH  16  17
ENDBRANCH   1  16
TORSDOF 5
ENDMDL
MODEL 6
REMARK VINA RESULT:      -7.5      5.668      8.390
REMARK  Name = 
REMARK  7 active torsions:
REMARK  status: ('A' for Active; 'I' for Inactive)
REMARK    1  A    between atoms: C_1  and  O_2
REMARK    2  A    between atoms: O_2  and  C_3
REMARK    3  A    between atoms: C_6  and  O_7
REMARK    4  A    between atoms: O_7  and  C_8
REMARK    5  A    between atoms: C_8  and  C_9
REMARK    6  A    between atoms: C_12  and  C_13
REMARK    7  A    between atoms: N_18  and  C_19
REMARK                            x       y       z     vdW  Elec       q    Type
REMARK                         _______ _______ _______ _____ _____    ______ ____
ROOT
ATOM      1  C   UNL     1       2.352   5.418  19.019  0.00  0.00    +0.000 A 
ATOM      2  C   UNL     1       1.739   5.396  20.279  0.00  0.00    +0.000 A 
ATOM      3  C   UNL     1       1.377   6.592  20.910  0.00  0.00    +0.000 A 
ATOM      4  C   UNL     1       1.610   7.822  20.283  0.00  0.00    +0.000 A 
ATOM      5  C   UNL     1       2.225   7.850  19.028  0.00  0.00    +0.000 A 
ATOM      6  C   UNL     1       2.571   6.655  18.391  0.00  0.00    +0.000 A 
ENDROOT
BRANCH   4   7
ATOM      7  C   UNL     1       1.314   9.070  21.035  0.00  0.00    +0.000 C 
ATOM      8  O   UNL     1       1.658   9.115  22.217  0.00  0.00    +0.000 OA
ATOM      9  N   UNL     1       0.703  10.155  20.390  0.00  0.00    +0.000 N 
ATOM     10  C   UNL     1       0.539  11.361  21.208  0.00  0.00    +0.000 C 
ATOM     11  C   UNL     1       0.199  12.613  20.378  0.00  0.00    +0.000 C 
ATOM     12  N   UNL     1      -0.911  12.443  19.420  0.00  0.00    +0.000 NA
ATOM     13  C   UNL     1      -2.203  12.361  20.101  0.00  0.00    +0.000 C 
ATOM     14  C   UNL     1      -0.653  11.251  18.589  0.00  0.00    +0.000 C 
ATOM     15  C   UNL     1      -0.342   9.960  19.375  0.00  0.00    +0.000 C 
ENDBRANCH   4   7
BRANCH   1  16
ATOM     16  C   UNL     1       2.790   4.135  18.350  0.00  0.00    +0.000 C 
BRANCH  16  17
ATOM     17  O   UNL     1       4.130   3.843  18.740  0.00  0.00    +0.000 OA
BRANCH  17  21
ATOM     18  C   UNL     1       6.899   5.012  15.840  0.00  0.00    +0.000 A 
ATOM     19  C   UNL     1       5.640   4.513  15.506  0.00  0.00    +0.000 A 
ATOM     20  C   UNL     1       4.740   4.135  16.505  0.00  0.00    +0.000 A 
ATOM     21  C   UNL     1       5.103   4.215  17.851  0.00  0.00    +0.000 A 
ATOM     22  C   UNL     1       6.370   4.696  18.185  0.00  0.00    +0.000 A 
ATOM     23  C   UNL     1       7.265   5.094  17.183  0.00  0.00    +0.000 A 
BRANCH  18  25
ATOM     24  C   UNL     1       7.297   4.829  13.519  0.00  0.00    +0.000 C 
ATOM     25  O   UNL     1       7.691   5.357  14.781  0.00  0.00    +0.000 OA
ENDBRANCH  18  25
ENDBRANCH  17  21
ENDBRANCH  16  17
ENDBRANCH   1  16
TORSDOF 5
ENDMDL
MODEL 7
REMARK VINA RESULT:      -7.5      1.105      1.396
REMARK  Name = 
REMARK  7 active torsions:
REMARK  status: ('A' for Active; 'I' for Inactive)
REMARK    1  A    between atoms: C_1  and  O_2
REMARK    2  A    between atoms: O_2  and  C_3
REMARK    3  A    between atoms: C_6  and  O_7
REMARK    4  A    between atoms: O_7  and  C_8
REMARK    5  A    between atoms: C_8  and  C_9
REMARK    6  A    between atoms: C_12  and  C_13
REMARK    7  A    between atoms: N_18  and  C_19
REMARK                            x       y       z     vdW  Elec       q    Type
REMARK                         _______ _______ _______ _____ _____    ______ ____
ROOT
ATOM      1  C   UNL     1       7.528   7.924  17.731  0.00  0.00    +0.000 A 
ATOM      2  C   UNL     1       7.916   6.786  18.450  0.00  0.00    +0.000 A 
ATOM      3  C   UNL     1       7.177   5.601  18.353  0.00  0.00    +0.000 A 
ATOM      4  C   UNL     1       6.050   5.537  17.524  0.00  0.00    +0.000 A 
ATOM      5  C   UNL     1       5.656   6.670  16.807  0.00  0.00    +0.000 A 
ATOM      6  C   UNL     1       6.405   7.848  16.893  0.00  0.00    +0.000 A 
ENDROOT
BRANCH   4   7
ATOM      7  C   UNL     1       5.230   4.296  17.536  0.00  0.00    +0.000 C 
ATOM      8  O   UNL     1       5.384   3.506  16.603  0.00  0.00    +0.000 OA
ATOM      9  N   UNL     1       4.353   4.039  18.598  0.00  0.00    +0.000 N 
ATOM     10  C   UNL     1       3.662   2.747  18.545  0.00  0.00    +0.000 C 
ATOM     11  C   UNL     1       2.998   2.360  19.879  0.00  0.00    +0.000 C 
ATOM     12  N   UNL     1       2.154   3.410  20.483  0.00  0.00    +0.000 NA
ATOM     13  C   UNL     1       0.905   3.590  19.742  0.00  0.00    +0.000 C 
ATOM     14  C   UNL     1       2.928   4.664  20.564  0.00  0.00    +0.000 C 
ATOM     15  C   UNL     1       3.585   5.114  19.243  0.00  0.00    +0.000 C 
ENDBRANCH   4   7
BRANCH   1  16
ATOM     16  C   UNL     1       8.292   9.222  17.867  0.00  0.00    +0.000 C 
BRANCH  16  17
ATOM     17  O   UNL     1       8.958   9.238  19.128  0.00  0.00    +0.000 OA
BRANCH  17  21
ATOM     18  C   UNL     1      10.636  12.965  19.985  0.00  0.00    +0.000 A 
ATOM     19  C   UNL     1      10.741  12.375  18.725  0.00  0.00    +0.000 A 
ATOM     20  C   UNL     1      10.163  11.127  18.476  0.00  0.00    +0.000 A 
ATOM     21  C   UNL     1       9.507  10.437  19.496  0.00  0.00    +0.000 A 
ATOM     22  C   UNL     1       9.417  11.018  20.762  0.00  0.00    +0.000 A 
ATOM     23  C   UNL     1       9.980  12.278  21.005  0.00  0.00    +0.000 A 
BRANCH  18  25
ATOM     24  C   UNL     1      10.635  15.073  21.050  0.00  0.00    +0.000 C 
ATOM     25  O   UNL     1      11.232  14.189  20.109  0.00  0.00    +0.000 OA
ENDBRANCH  18  25
ENDBRANCH  17  21
ENDBRANCH  16  17
ENDBRANCH   1  16
TORSDOF 5
ENDMDL
MODEL 8
REMARK VINA RESULT:      -7.5      6.018      8.744
REMARK  Name = 
REMARK  7 active torsions:
REMARK  status: ('A' for Active; 'I' for Inactive)
REMARK    1  A    between atoms: C_1  and  O_2
REMARK    2  A    between atoms: O_2  and  C_3
REMARK    3  A    between atoms: C_6  and  O_7
REMARK    4  A    between atoms: O_7  and  C_8
REMARK    5  A    between atoms: C_8  and  C_9
REMARK    6  A    between atoms: C_12  and  C_13
REMARK    7  A    between atoms: N_18  and  C_19
REMARK                            x       y       z     vdW  Elec       q    Type
REMARK                         _______ _______ _______ _____ _____    ______ ____
ROOT
ATOM      1  C   UNL     1       1.300   9.142  19.678  0.00  0.00    +0.000 A 
ATOM      2  C   UNL     1       1.582   7.982  20.412  0.00  0.00    +0.000 A 
ATOM      3  C   UNL     1       2.208   6.892  19.797  0.00  0.00    +0.000 A 
ATOM      4  C   UNL     1       2.574   6.954  18.448  0.00  0.00    +0.000 A 
ATOM      5  C   UNL     1       2.292   8.107  17.709  0.00  0.00    +0.000 A 
ATOM      6  C   UNL     1       1.681   9.203  18.328  0.00  0.00    +0.000 A 
ENDROOT
BRANCH   4   7
ATOM      7  C   UNL     1       3.135   5.735  17.806  0.00  0.00    +0.000 C 
ATOM      8  O   UNL     1       2.395   4.755  17.708  0.00  0.00    +0.000 OA
ATOM      9  N   UNL     1       4.443   5.740  17.304  0.00  0.00    +0.000 N 
ATOM     10  C   UNL     1       4.857   4.512  16.617  0.00  0.00    +0.000 C 
ATOM     11  C   UNL     1       6.143   4.687  15.788  0.00  0.00    +0.000 C 
ATOM     12  N   UNL     1       7.267   5.320  16.507  0.00  0.00    +0.000 NA
ATOM     13  C   UNL     1       7.850   4.417  17.498  0.00  0.00    +0.000 C 
ATOM     14  C   UNL     1       6.799   6.578  17.121  0.00  0.00    +0.000 C 
ATOM     15  C   UNL     1       5.531   6.450  17.991  0.00  0.00    +0.000 C 
ENDBRANCH   4   7
BRANCH   1  16
ATOM     16  C   UNL     1       0.581  10.308  20.320  0.00  0.00    +0.000 C 
BRANCH  16  17
ATOM     17  O   UNL     1      -0.824  10.143  20.137  0.00  0.00    +0.000 OA
BRANCH  17  21
ATOM     18  C   UNL     1      -2.506  11.121  16.441  0.00  0.00    +0.000 A 
ATOM     19  C   UNL     1      -2.661   9.860  17.017  0.00  0.00    +0.000 A 
ATOM     20  C   UNL     1      -2.085   9.572  18.257  0.00  0.00    +0.000 A 
ATOM     21  C   UNL     1      -1.314  10.529  18.918  0.00  0.00    +0.000 A 
ATOM     22  C   UNL     1      -1.143  11.785  18.334  0.00  0.00    +0.000 A 
ATOM     23  C   UNL     1      -1.737  12.080  17.100  0.00  0.00    +0.000 A 
BRANCH  18  25
ATOM     24  C   UNL     1      -3.586  10.101  14.605  0.00  0.00    +0.000 C 
ATOM     25  O   UNL     1      -3.120  11.291  15.232  0.00  0.00    +0.000 OA
ENDBRANCH  18  25
ENDBRANCH  17  21
ENDBRANCH  16  17
ENDBRANCH   1  16
TORSDOF 5
ENDMDL
MODEL 9
REMARK VINA RESULT:      -7.4      5.705      8.392
REMARK  Name = 
REMARK  7 active torsions:
REMARK  status: ('A' for Active; 'I' for Inactive)
REMARK    1  A    between atoms: C_1  and  O_2
REMARK    2  A    between atoms: O_2  and  C_3
REMARK    3  A    between atoms: C_6  and  O_7
REMARK    4  A    between atoms: O_7  and  C_8
REMARK    5  A    between atoms: C_8  and  C_9
REMARK    6  A    between atoms: C_12  and  C_13
REMARK    7  A    between atoms: N_18  and  C_19
REMARK                            x       y       z     vdW  Elec       q    Type
REMARK                         _______ _______ _______ _____ _____    ______ ____
ROOT
ATOM      1  C   UNL     1       2.332   5.422  18.791  0.00  0.00    +0.000 A 
ATOM      2  C   UNL     1       2.552   6.708  18.279  0.00  0.00    +0.000 A 
ATOM      3  C   UNL     1       2.248   7.837  19.047  0.00  0.00    +0.000 A 
ATOM      4  C   UNL     1       1.735   7.694  20.342  0.00  0.00    +0.000 A 
ATOM      5  C   UNL     1       1.510   6.414  20.857  0.00  0.00    +0.000 A 
ATOM      6  C   UNL     1       1.829   5.286  20.094  0.00  0.00    +0.000 A 
ENDROOT
BRANCH   4   7
ATOM      7  C   UNL     1       1.321   8.917  21.081  0.00  0.00    +0.000 C 
ATOM      8  O   UNL     1       1.535   8.945  22.294  0.00  0.00    +0.000 OA
ATOM      9  N   UNL     1       0.748   9.997  20.395  0.00  0.00    +0.000 N 
ATOM     10  C   UNL     1       0.461  11.179  21.214  0.00  0.00    +0.000 C 
ATOM     11  C   UNL     1       0.173  12.439  20.376  0.00  0.00    +0.000 C 
ATOM     12  N   UNL     1      -0.823  12.258  19.301  0.00  0.00    +0.000 NA
ATOM     13  C   UNL     1      -2.177  12.124  19.837  0.00  0.00    +0.000 C 
ATOM     14  C   UNL     1      -0.441  11.093  18.480  0.00  0.00    +0.000 C 
ATOM     15  C   UNL     1      -0.175   9.795  19.270  0.00  0.00    +0.000 C 
ENDBRANCH   4   7
BRANCH   1  16
ATOM     16  C   UNL     1       2.613   4.197  17.950  0.00  0.00    +0.000 C 
BRANCH  16  17
ATOM     17  O   UNL     1       3.888   3.669  18.313  0.00  0.00    +0.000 OA
BRANCH  17  21
ATOM     18  C   UNL     1       6.930   4.958  15.758  0.00  0.00    +0.000 A 
ATOM     19  C   UNL     1       5.731   4.432  15.279  0.00  0.00    +0.000 A 
ATOM     20  C   UNL     1       4.735   4.014  16.165  0.00  0.00    +0.000 A 
ATOM     21  C   UNL     1       4.943   4.081  17.543  0.00  0.00    +0.000 A 
ATOM     22  C   UNL     1       6.150   4.591  18.025  0.00  0.00    +0.000 A 
ATOM     23  C   UNL     1       7.140   5.028  17.135  0.00  0.00    +0.000 A 
BRANCH  18  25
ATOM     24  C   UNL     1       7.467   5.023  13.459  0.00  0.00    +0.000 C 
ATOM     25  O   UNL     1       7.826   5.342  14.799  0.00  0.00    +0.000 OA
ENDBRANCH  18  25
ENDBRANCH  17  21
ENDBRANCH  16  17
ENDBRANCH   1  16
TORSDOF 5
ENDMDL
