MODEL 1
REMARK VINA RESULT:      -7.7      0.000      0.000
REMARK  Name = 
REMARK  8 active torsions:
REMARK  status: ('A' for Active; 'I' for Inactive)
REMARK    1  A    between atoms: C_1  and  C_2
REMARK    2  A    between atoms: C_2  and  C_15
REMARK    3  A    between atoms: N_3  and  N_4
REMARK    4  A    between atoms: N_4  and  C_5
REMARK    5  A    between atoms: C_5  and  N_7
REMARK    6  A    between atoms: N_7  and  C_8
REMARK    7  A    between atoms: C_12  and  C_13
REMARK    8  A    between atoms: C_18  and  N_19
REMARK                            x       y       z     vdW  Elec       q    Type
REMARK                         _______ _______ _______ _____ _____    ______ ____
ROOT
ATOM      1  N   UNL     1       3.731   3.755  19.814  0.00  0.00    +0.000 N 
ATOM      2  H   UNL     1       4.311   3.518  20.614  0.00  0.00    +0.000 HD
ENDROOT
BRANCH   1   5
ATOM      3  C   UNL     1       6.095   5.265  19.379  0.00  0.00    +0.000 C 
ATOM      4  C   UNL     1       5.323   4.484  18.332  0.00  0.00    +0.000 C 
ATOM      5  N   UNL     1       4.297   3.724  18.584  0.00  0.00    +0.000 NA
BRANCH   4   6
ATOM      6  C   UNL     1       5.808   4.550  16.909  0.00  0.00    +0.000 A 
ATOM      7  C   UNL     1       5.024   4.110  15.832  0.00  0.00    +0.000 A 
ATOM      8  C   UNL     1       5.509   4.197  14.523  0.00  0.00    +0.000 A 
ATOM      9  C   UNL     1       6.786   4.723  14.286  0.00  0.00    +0.000 A 
ATOM     10  C   UNL     1       7.584   5.153  15.351  0.00  0.00    +0.000 A 
ATOM     11  C   UNL     1       7.092   5.064  16.656  0.00  0.00    +0.000 A 
BRANCH   9  12
ATOM     12  N   UNL     1       7.288   4.826  12.911  0.00  0.00    +0.000 N 
ATOM     13  O   UNL     1       8.102   5.728  12.663  0.00  0.00    +0.000 OA
ATOM     14  O   UNL     1       6.867   4.010  12.079  0.00  0.00    +0.000 OA
ENDBRANCH   9  12
ENDBRANCH   4   6
ENDBRANCH   1   5
BRANCH   1  15
ATOM     15  C   UNL     1       2.559   4.446  20.060  0.00  0.00    +0.000 C 
ATOM     16  S   UNL     1       1.024   3.785  20.060  0.00  0.00    +0.000 S 
BRANCH  15  17
ATOM     17  N   UNL     1       2.733   5.756  20.448  0.00  0.00    +0.000 N 
ATOM     18  H   UNL     1       2.995   5.895  21.420  0.00  0.00    +0.000 HD
BRANCH  17  19
ATOM     19  C   UNL     1       2.356   6.901  19.717  0.00  0.00    +0.000 A 
ATOM     20  C   UNL     1       2.671   7.042  18.361  0.00  0.00    +0.000 A 
ATOM     21  C   UNL     1       2.312   8.195  17.668  0.00  0.00    +0.000 A 
ATOM     22  C   UNL     1       1.644   9.222  18.332  0.00  0.00    +0.000 A 
ATOM     23  C   UNL     1       1.293   9.083  19.681  0.00  0.00    +0.000 A 
ATOM     24  C   UNL     1       0.598  10.195  20.407  0.00  0.00    +0.000 C 
ATOM     25  C   UNL     1       1.621   7.897  20.360  0.00  0.00    +0.000 A 
ENDBRANCH  17  19
ENDBRANCH  15  17
ENDBRANCH   1  15
TORSDOF 6
ENDMDL
MODEL 2
REMARK VINA RESULT:      -7.4      0.862      1.571
REMARK  Name = 
REMARK  8 active torsions:
REMARK  status: ('A' for Active; 'I' for Inactive)
REMARK    1  A    between atoms: C_1  and  C_2
REMARK    2  A    between atoms: C_2  and  C_15
REMARK    3  A    between atoms: N_3  and  N_4
REMARK    4  A    between atoms: N_4  and  C_5
REMARK    5  A    between atoms: C_5  and  N_7
REMARK    6  A    between atoms: N_7  and  C_8
REMARK    7  A    between atoms: C_12  and  C_13
REMARK    8  A    between atoms: C_18  and  N_19
REMARK                            x       y       z     vdW  Elec       q    Type
REMARK                         _______ _______ _______ _____ _____    ______ ____
ROOT
ATOM      1  N   UNL     1       3.777   4.537  19.865  0.00  0.00    +0.000 N 
ATOM      2  H   UNL     1       4.324   4.175  20.640  0.00  0.00    +0.000 HD
ENDROOT
BRANCH   1   5
ATOM      3  C   UNL     1       3.717   2.686  17.714  0.00  0.00    +0.000 C 
ATOM      4  C   UNL     1       4.496   3.987  17.757  0.00  0.00    +0.000 C 
ATOM      5  N   UNL     1       4.426   4.859  18.720  0.00  0.00    +0.000 NA
BRANCH   4   6
ATOM      6  C   UNL     1       5.374   4.318  16.580  0.00  0.00    +0.000 A 
ATOM      7  C   UNL     1       6.587   5.007  16.725  0.00  0.00    +0.000 A 
ATOM      8  C   UNL     1       7.377   5.288  15.605  0.00  0.00    +0.000 A 
ATOM      9  C   UNL     1       6.953   4.883  14.332  0.00  0.00    +0.000 A 
ATOM     10  C   UNL     1       5.739   4.207  14.172  0.00  0.00    +0.000 A 
ATOM     11  C   UNL     1       4.956   3.930  15.295  0.00  0.00    +0.000 A 
BRANCH   9  12
ATOM     12  N   UNL     1       7.789   5.166  13.161  0.00  0.00    +0.000 N 
ATOM     13  O   UNL     1       7.469   4.639  12.085  0.00  0.00    +0.000 OA
ATOM     14  O   UNL     1       8.768   5.911  13.315  0.00  0.00    +0.000 OA
ENDBRANCH   9  12
ENDBRANCH   4   6
ENDBRANCH   1   5
BRANCH   1  15
ATOM     15  C   UNL     1       2.515   5.028  20.150  0.00  0.00    +0.000 C 
ATOM     16  S   UNL     1       1.104   4.133  20.152  0.00  0.00    +0.000 S 
BRANCH  15  17
ATOM     17  N   UNL     1       2.488   6.338  20.576  0.00  0.00    +0.000 N 
ATOM     18  H   UNL     1       2.621   6.477  21.573  0.00  0.00    +0.000 HD
BRANCH  17  19
ATOM     19  C   UNL     1       2.065   7.452  19.823  0.00  0.00    +0.000 A 
ATOM     20  C   UNL     1       2.352   7.568  18.459  0.00  0.00    +0.000 A 
ATOM     21  C   UNL     1       1.948   8.692  17.744  0.00  0.00    +0.000 A 
ATOM     22  C   UNL     1       1.261   9.715  18.395  0.00  0.00    +0.000 A 
ATOM     23  C   UNL     1       0.937   9.599  19.752  0.00  0.00    +0.000 A 
ATOM     24  C   UNL     1       0.221  10.708  20.462  0.00  0.00    +0.000 C 
ATOM     25  C   UNL     1       1.311   8.442  20.454  0.00  0.00    +0.000 A 
ENDBRANCH  17  19
ENDBRANCH  15  17
ENDBRANCH   1  15
TORSDOF 6
ENDMDL
MODEL 3
REMARK VINA RESULT:      -7.3      0.364      1.070
REMARK  Name = 
REMARK  8 active torsions:
REMARK  status: ('A' for Active; 'I' for Inactive)
REMARK    1  A    between atoms: C_1  and  C_2
REMARK    2  A    between atoms: C_2  and  C_15
REMARK    3  A    between atoms: N_3  and  N_4
REMARK    4  A    between atoms: N_4  and  C_5
REMARK    5  A    between atoms: C_5  and  N_7
REMARK    6  A    between atoms: N_7  and  C_8
REMARK    7  A    between atoms: C_12  and  C_13
REMARK    8  A    between atoms: C_18  and  N_19
REMARK                            x       y       z     vdW  Elec       q    Type
REMARK                         _______ _______ _______ _____ _____    ______ ____
ROOT
ATOM      1  N   UNL     1       3.891   4.155  19.945  0.00  0.00    +0.000 N 
ATOM      2  H   UNL     1       4.557   4.168  20.712  0.00  0.00    +0.000 HD
ENDROOT
BRANCH   1   5
ATOM      3  C   UNL     1       6.394   5.333  19.308  0.00  0.00    +0.000 C 
ATOM      4  C   UNL     1       5.465   4.621  18.343  0.00  0.00    +0.000 C 
ATOM      5  N   UNL     1       4.369   4.008  18.686  0.00  0.00    +0.000 NA
BRANCH   4   6
ATOM      6  C   UNL     1       5.863   4.574  16.892  0.00  0.00    +0.000 A 
ATOM      7  C   UNL     1       7.120   5.011  16.448  0.00  0.00    +0.000 A 
ATOM      8  C   UNL     1       7.452   4.942  15.092  0.00  0.00    +0.000 A 
ATOM      9  C   UNL     1       6.524   4.439  14.170  0.00  0.00    +0.000 A 
ATOM     10  C   UNL     1       5.262   4.012  14.597  0.00  0.00    +0.000 A 
ATOM     11  C   UNL     1       4.938   4.083  15.954  0.00  0.00    +0.000 A 
BRANCH   9  12
ATOM     12  N   UNL     1       6.880   4.354  12.749  0.00  0.00    +0.000 N 
ATOM     13  O   UNL     1       7.804   5.075  12.344  0.00  0.00    +0.000 OA
ATOM     14  O   UNL     1       6.236   3.571  12.037  0.00  0.00    +0.000 OA
ENDBRANCH   9  12
ENDBRANCH   4   6
ENDBRANCH   1   5
BRANCH   1  15
ATOM     15  C   UNL     1       2.627   4.661  20.191  0.00  0.00    +0.000 C 
ATOM     16  S   UNL     1       1.207   3.780  20.168  0.00  0.00    +0.000 S 
BRANCH  15  17
ATOM     17  N   UNL     1       2.602   5.978  20.598  0.00  0.00    +0.000 N 
ATOM     18  H   UNL     1       2.675   6.128  21.599  0.00  0.00    +0.000 HD
BRANCH  17  19
ATOM     19  C   UNL     1       2.251   7.090  19.806  0.00  0.00    +0.000 A 
ATOM     20  C   UNL     1       2.643   7.191  18.467  0.00  0.00    +0.000 A 
ATOM     21  C   UNL     1       2.308   8.314  17.715  0.00  0.00    +0.000 A 
ATOM     22  C   UNL     1       1.585   9.350  18.303  0.00  0.00    +0.000 A 
ATOM     23  C   UNL     1       1.157   9.249  19.633  0.00  0.00    +0.000 A 
ATOM     24  C   UNL     1       0.402  10.372  20.277  0.00  0.00    +0.000 C 
ATOM     25  C   UNL     1       1.463   8.094  20.370  0.00  0.00    +0.000 A 
ENDBRANCH  17  19
ENDBRANCH  15  17
ENDBRANCH   1  15
TORSDOF 6
ENDMDL
MODEL 4
REMARK VINA RESULT:      -7.3      3.708      6.888
REMARK  Name = 
REMARK  8 active torsions:
REMARK  status: ('A' for Active; 'I' for Inactive)
REMARK    1  A    between atoms: C_1  and  C_2
REMARK    2  A    between atoms: C_2  and  C_15
REMARK    3  A    between atoms: N_3  and  N_4
REMARK    4  A    between atoms: N_4  and  C_5
REMARK    5  A    between atoms: C_5  and  N_7
REMARK    6  A    between atoms: N_7  and  C_8
REMARK    7  A    between atoms: C_12  and  C_13
REMARK    8  A    between atoms: C_18  and  N_19
REMARK                            x       y       z     vdW  Elec       q    Type
REMARK                         _______ _______ _______ _____ _____    ______ ____
ROOT
ATOM      1  N   UNL     1       3.812   3.669  20.162  0.00  0.00    +0.000 N 
ATOM      2  H   UNL     1       3.469   3.128  20.950  0.00  0.00    +0.000 HD
ENDROOT
BRANCH   1   5
ATOM      3  C   UNL     1       1.081   4.401  20.416  0.00  0.00    +0.000 C 
ATOM      4  C   UNL     1       2.238   5.337  20.116  0.00  0.00    +0.000 C 
ATOM      5  N   UNL     1       3.490   4.983  20.101  0.00  0.00    +0.000 NA
BRANCH   4   6
ATOM      6  C   UNL     1       1.921   6.786  19.869  0.00  0.00    +0.000 A 
ATOM      7  C   UNL     1       1.338   7.601  20.851  0.00  0.00    +0.000 A 
ATOM      8  C   UNL     1       1.068   8.947  20.582  0.00  0.00    +0.000 A 
ATOM      9  C   UNL     1       1.376   9.484  19.325  0.00  0.00    +0.000 A 
ATOM     10  C   UNL     1       1.944   8.679  18.331  0.00  0.00    +0.000 A 
ATOM     11  C   UNL     1       2.213   7.336  18.608  0.00  0.00    +0.000 A 
BRANCH   9  12
ATOM     12  N   UNL     1       1.104  10.899  19.049  0.00  0.00    +0.000 N 
ATOM     13  O   UNL     1       1.941  11.525  18.383  0.00  0.00    +0.000 OA
ATOM     14  O   UNL     1       0.057  11.385  19.501  0.00  0.00    +0.000 OA
ENDBRANCH   9  12
ENDBRANCH   4   6
ENDBRANCH   1   5
BRANCH   1  15
ATOM     15  C   UNL     1       4.237   2.970  19.046  0.00  0.00    +0.000 C 
ATOM     16  S   UNL     1       3.417   1.707  18.322  0.00  0.00    +0.000 S 
BRANCH  15  17
ATOM     17  N   UNL     1       5.375   3.470  18.452  0.00  0.00    +0.000 N 
ATOM     18  H   UNL     1       6.229   3.380  18.995  0.00  0.00    +0.000 HD
BRANCH  17  19
ATOM     19  C   UNL     1       5.428   4.287  17.304  0.00  0.00    +0.000 A 
ATOM     20  C   UNL     1       5.163   5.659  17.369  0.00  0.00    +0.000 A 
ATOM     21  C   UNL     1       5.193   6.440  16.216  0.00  0.00    +0.000 A 
ATOM     22  C   UNL     1       5.479   5.848  14.987  0.00  0.00    +0.000 A 
ATOM     23  C   UNL     1       5.779   4.482  14.911  0.00  0.00    +0.000 A 
ATOM     24  C   UNL     1       6.062   3.836  13.589  0.00  0.00    +0.000 C 
ATOM     25  C   UNL     1       5.789   3.712  16.086  0.00  0.00    +0.000 A 
ENDBRANCH  17  19
ENDBRANCH  15  17
ENDBRANCH   1  15
TORSDOF 6
ENDMDL
MODEL 5
REMARK VINA RESULT:      -7.3      4.661      7.396
REMARK  Name = 
REMARK  8 active torsions:
REMARK  status: ('A' for Active; 'I' for Inactive)
REMARK    1  A    between atoms: C_1  and  C_2
REMARK    2  A    between atoms: C_2  and  C_15
REMARK    3  A    between atoms: N_3  and  N_4
REMARK    4  A    between atoms: N_4  and  C_5
REMARK    5  A    between atoms: C_5  and  N_7
REMARK    6  A    between atoms: N_7  and  C_8
REMARK    7  A    between atoms: C_12  and  C_13
REMARK    8  A    between atoms: C_18  and  N_19
REMARK                            x       y       z     vdW  Elec       q    Type
REMARK                         _______ _______ _______ _____ _____    ______ ____
ROOT
ATOM      1  N   UNL     1       4.782   5.631  17.606  0.00  0.00    +0.000 N 
ATOM      2  H   UNL     1       4.708   5.631  16.594  0.00  0.00    +0.000 HD
ENDROOT
BRANCH   1   5
ATOM      3  C   UNL     1       1.950   5.478  17.745  0.00  0.00    +0.000 C 
ATOM      4  C   UNL     1       2.817   6.599  18.289  0.00  0.00    +0.000 C 
ATOM      5  N   UNL     1       4.118   6.591  18.294  0.00  0.00    +0.000 NA
BRANCH   4   6
ATOM      6  C   UNL     1       2.125   7.779  18.916  0.00  0.00    +0.000 A 
ATOM      7  C   UNL     1       1.791   7.812  20.277  0.00  0.00    +0.000 A 
ATOM      8  C   UNL     1       1.155   8.933  20.821  0.00  0.00    +0.000 A 
ATOM      9  C   UNL     1       0.848  10.027  20.002  0.00  0.00    +0.000 A 
ATOM     10  C   UNL     1       1.164  10.003  18.639  0.00  0.00    +0.000 A 
ATOM     11  C   UNL     1       1.800   8.880  18.104  0.00  0.00    +0.000 A 
BRANCH   9  12
ATOM     12  N   UNL     1       0.195  11.208  20.577  0.00  0.00    +0.000 N 
ATOM     13  O   UNL     1      -0.973  11.442  20.235  0.00  0.00    +0.000 OA
ATOM     14  O   UNL     1       0.849  11.904  21.367  0.00  0.00    +0.000 OA
ENDBRANCH   9  12
ENDBRANCH   4   6
ENDBRANCH   1   5
BRANCH   1  15
ATOM     15  C   UNL     1       5.827   4.921  18.169  0.00  0.00    +0.000 C 
ATOM     16  S   UNL     1       7.277   5.573  18.683  0.00  0.00    +0.000 S 
BRANCH  15  17
ATOM     17  N   UNL     1       5.556   3.592  18.414  0.00  0.00    +0.000 N 
ATOM     18  H   UNL     1       6.285   2.939  18.143  0.00  0.00    +0.000 HD
BRANCH  17  19
ATOM     19  C   UNL     1       4.305   3.046  18.768  0.00  0.00    +0.000 A 
ATOM     20  C   UNL     1       3.587   2.228  17.890  0.00  0.00    +0.000 A 
ATOM     21  C   UNL     1       2.341   1.725  18.253  0.00  0.00    +0.000 A 
ATOM     22  C   UNL     1       1.799   2.047  19.495  0.00  0.00    +0.000 A 
ATOM     23  C   UNL     1       2.520   2.839  20.399  0.00  0.00    +0.000 A 
ATOM     24  C   UNL     1       1.931   3.209  21.726  0.00  0.00    +0.000 C 
ATOM     25  C   UNL     1       3.795   3.306  20.041  0.00  0.00    +0.000 A 
ENDBRANCH  17  19
ENDBRANCH  15  17
ENDBRANCH   1  15
TORSDOF 6
ENDMDL
MODEL 6
REMARK VINA RESULT:      -7.3      2.994      4.374
REMARK  Name = 
REMARK  8 active torsions:
REMARK  status: ('A' for Active; 'I' for Inactive)
REMARK    1  A    between atoms: C_1  and  C_2
REMARK    2  A    between atoms: C_2  and  C_15
REMARK    3  A    between atoms: N_3  and  N_4
REMARK    4  A    between atoms: N_4  and  C_5
REMARK    5  A    between atoms: C_5  and  N_7
REMARK    6  A    between atoms: N_7  and  C_8
REMARK    7  A    between atoms: C_12  and  C_13
REMARK    8  A    between atoms: C_18  and  N_19
REMARK                            x       y       z     vdW  Elec       q    Type
REMARK                         _______ _______ _______ _____ _____    ______ ____
ROOT
ATOM      1  N   UNL     1       1.154   7.743  20.970  0.00  0.00    +0.000 N 
ATOM      2  H   UNL     1       0.965   7.055  21.693  0.00  0.00    +0.000 HD
ENDROOT
BRANCH   1   5
ATOM      3  C   UNL     1       1.691   5.028  20.339  0.00  0.00    +0.000 C 
ATOM      4  C   UNL     1       2.463   6.235  19.839  0.00  0.00    +0.000 C 
ATOM      5  N   UNL     1       2.131   7.473  20.071  0.00  0.00    +0.000 NA
BRANCH   4   6
ATOM      6  C   UNL     1       3.666   5.989  18.971  0.00  0.00    +0.000 A 
ATOM      7  C   UNL     1       3.826   6.609  17.723  0.00  0.00    +0.000 A 
ATOM      8  C   UNL     1       4.965   6.359  16.951  0.00  0.00    +0.000 A 
ATOM      9  C   UNL     1       5.950   5.482  17.425  0.00  0.00    +0.000 A 
ATOM     10  C   UNL     1       5.798   4.846  18.661  0.00  0.00    +0.000 A 
ATOM     11  C   UNL     1       4.658   5.102  19.427  0.00  0.00    +0.000 A 
BRANCH   9  12
ATOM     12  N   UNL     1       7.151   5.231  16.620  0.00  0.00    +0.000 N 
ATOM     13  O   UNL     1       7.956   4.385  17.036  0.00  0.00    +0.000 OA
ATOM     14  O   UNL     1       7.293   5.881  15.574  0.00  0.00    +0.000 OA
ENDBRANCH   9  12
ENDBRANCH   4   6
ENDBRANCH   1   5
BRANCH   1  15
ATOM     15  C   UNL     1       0.691   9.030  21.179  0.00  0.00    +0.000 C 
ATOM     16  S   UNL     1      -0.045   9.582  22.574  0.00  0.00    +0.000 S 
BRANCH  15  17
ATOM     17  N   UNL     1       0.990   9.920  20.171  0.00  0.00    +0.000 N 
ATOM     18  H   UNL     1       1.955  10.234  20.135  0.00  0.00    +0.000 HD
BRANCH  17  19
ATOM     19  C   UNL     1       0.062  10.606  19.360  0.00  0.00    +0.000 A 
ATOM     20  C   UNL     1       0.170  11.981  19.125  0.00  0.00    +0.000 A 
ATOM     21  C   UNL     1      -0.776  12.640  18.344  0.00  0.00    +0.000 A 
ATOM     22  C   UNL     1      -1.843  11.928  17.801  0.00  0.00    +0.000 A 
ATOM     23  C   UNL     1      -1.947  10.545  18.000  0.00  0.00    +0.000 A 
ATOM     24  C   UNL     1      -3.107   9.779  17.440  0.00  0.00    +0.000 C 
ATOM     25  C   UNL     1      -0.964   9.882  18.753  0.00  0.00    +0.000 A 
ENDBRANCH  17  19
ENDBRANCH  15  17
ENDBRANCH   1  15
TORSDOF 6
ENDMDL
MODEL 7
REMARK VINA RESULT:      -7.3      2.729      3.921
REMARK  Name = 
REMARK  8 active torsions:
REMARK  status: ('A' for Active; 'I' for Inactive)
REMARK    1  A    between atoms: C_1  and  C_2
REMARK    2  A    between atoms: C_2  and  C_15
REMARK    3  A    between atoms: N_3  and  N_4
REMARK    4  A    between atoms: N_4  and  C_5
REMARK    5  A    between atoms: C_5  and  N_7
REMARK    6  A    between atoms: N_7  and  C_8
REMARK    7  A    between atoms: C_12  and  C_13
REMARK    8  A    between atoms: C_18  and  N_19
REMARK                            x       y       z     vdW  Elec       q    Type
REMARK                         _______ _______ _______ _____ _____    ______ ____
ROOT
ATOM      1  N   UNL     1       1.794   7.684  20.597  0.00  0.00    +0.000 N 
ATOM      2  H   UNL     1       2.084   7.300  21.491  0.00  0.00    +0.000 HD
ENDROOT
BRANCH   1   5
ATOM      3  C   UNL     1       1.950   4.935  19.906  0.00  0.00    +0.000 C 
ATOM      4  C   UNL     1       2.669   6.077  19.212  0.00  0.00    +0.000 C 
ATOM      5  N   UNL     1       2.500   7.337  19.494  0.00  0.00    +0.000 NA
BRANCH   4   6
ATOM      6  C   UNL     1       3.604   5.736  18.084  0.00  0.00    +0.000 A 
ATOM      7  C   UNL     1       3.893   4.410  17.729  0.00  0.00    +0.000 A 
ATOM      8  C   UNL     1       4.762   4.137  16.668  0.00  0.00    +0.000 A 
ATOM      9  C   UNL     1       5.350   5.192  15.957  0.00  0.00    +0.000 A 
ATOM     10  C   UNL     1       5.081   6.519  16.309  0.00  0.00    +0.000 A 
ATOM     11  C   UNL     1       4.211   6.784  17.369  0.00  0.00    +0.000 A 
BRANCH   9  12
ATOM     12  N   UNL     1       6.250   4.904  14.835  0.00  0.00    +0.000 N 
ATOM     13  O   UNL     1       7.384   5.404  14.865  0.00  0.00    +0.000 OA
ATOM     14  O   UNL     1       5.824   4.181  13.923  0.00  0.00    +0.000 OA
ENDBRANCH   9  12
ENDBRANCH   4   6
ENDBRANCH   1   5
BRANCH   1  15
ATOM     15  C   UNL     1       0.976   8.799  20.618  0.00  0.00    +0.000 C 
ATOM     16  S   UNL     1      -0.055   9.223  21.863  0.00  0.00    +0.000 S 
BRANCH  15  17
ATOM     17  N   UNL     1       1.148   9.660  19.557  0.00  0.00    +0.000 N 
ATOM     18  H   UNL     1       2.111   9.885  19.326  0.00  0.00    +0.000 HD
BRANCH  17  19
ATOM     19  C   UNL     1       0.143  10.429  18.933  0.00  0.00    +0.000 A 
ATOM     20  C   UNL     1       0.026  11.804  19.161  0.00  0.00    +0.000 A 
ATOM     21  C   UNL     1      -0.993  12.536  18.556  0.00  0.00    +0.000 A 
ATOM     22  C   UNL     1      -1.908  11.892  17.725  0.00  0.00    +0.000 A 
ATOM     23  C   UNL     1      -1.784  10.522  17.462  0.00  0.00    +0.000 A 
ATOM     24  C   UNL     1      -2.781   9.820  16.590  0.00  0.00    +0.000 C 
ATOM     25  C   UNL     1      -0.727   9.801  18.042  0.00  0.00    +0.000 A 
ENDBRANCH  17  19
ENDBRANCH  15  17
ENDBRANCH   1  15
TORSDOF 6
ENDMDL
MODEL 8
REMARK VINA RESULT:      -7.1      3.635      6.290
REMARK  Name = 
REMARK  8 active torsions:
REMARK  status: ('A' for Active; 'I' for Inactive)
REMARK    1  A    between atoms: C_1  and  C_2
REMARK    2  A    between atoms: C_2  and  C_15
REMARK    3  A    between atoms: N_3  and  N_4
REMARK    4  A    between atoms: N_4  and  C_5
REMARK    5  A    between atoms: C_5  and  N_7
REMARK    6  A    between atoms: N_7  and  C_8
REMARK    7  A    between atoms: C_12  and  C_13
REMARK    8  A    between atoms: C_18  and  N_19
REMARK                            x       y       z     vdW  Elec       q    Type
REMARK                         _______ _______ _______ _____ _____    ______ ____
ROOT
ATOM      1  N   UNL     1       3.338   3.399  20.346  0.00  0.00    +0.000 N 
ATOM      2  H   UNL     1       2.716   2.816  20.897  0.00  0.00    +0.000 HD
ENDROOT
BRANCH   1   5
ATOM      3  C   UNL     1       1.430   4.210  18.406  0.00  0.00    +0.000 C 
ATOM      4  C   UNL     1       2.253   5.125  19.293  0.00  0.00    +0.000 C 
ATOM      5  N   UNL     1       3.050   4.718  20.239  0.00  0.00    +0.000 NA
BRANCH   4   6
ATOM      6  C   UNL     1       2.101   6.610  19.103  0.00  0.00    +0.000 A 
ATOM      7  C   UNL     1       2.398   7.240  17.885  0.00  0.00    +0.000 A 
ATOM      8  C   UNL     1       2.235   8.623  17.748  0.00  0.00    +0.000 A 
ATOM      9  C   UNL     1       1.776   9.382  18.832  0.00  0.00    +0.000 A 
ATOM     10  C   UNL     1       1.489   8.769  20.056  0.00  0.00    +0.000 A 
ATOM     11  C   UNL     1       1.654   7.388  20.185  0.00  0.00    +0.000 A 
BRANCH   9  12
ATOM     12  N   UNL     1       1.592  10.830  18.682  0.00  0.00    +0.000 N 
ATOM     13  O   UNL     1       0.608  11.345  19.234  0.00  0.00    +0.000 OA
ATOM     14  O   UNL     1       2.427  11.453  18.010  0.00  0.00    +0.000 OA
ENDBRANCH   9  12
ENDBRANCH   4   6
ENDBRANCH   1   5
BRANCH   1  15
ATOM     15  C   UNL     1       4.183   2.763  19.453  0.00  0.00    +0.000 C 
ATOM     16  S   UNL     1       3.818   1.380  18.589  0.00  0.00    +0.000 S 
BRANCH  15  17
ATOM     17  N   UNL     1       5.363   3.428  19.203  0.00  0.00    +0.000 N 
ATOM     18  H   UNL     1       6.095   3.298  19.894  0.00  0.00    +0.000 HD
BRANCH  17  19
ATOM     19  C   UNL     1       5.566   4.435  18.237  0.00  0.00    +0.000 A 
ATOM     20  C   UNL     1       4.893   4.421  17.011  0.00  0.00    +0.000 A 
ATOM     21  C   UNL     1       5.132   5.412  16.062  0.00  0.00    +0.000 A 
ATOM     22  C   UNL     1       6.057   6.419  16.331  0.00  0.00    +0.000 A 
ATOM     23  C   UNL     1       6.714   6.465  17.567  0.00  0.00    +0.000 A 
ATOM     24  C   UNL     1       7.729   7.531  17.851  0.00  0.00    +0.000 C 
ATOM     25  C   UNL     1       6.434   5.486  18.534  0.00  0.00    +0.000 A 
ENDBRANCH  17  19
ENDBRANCH  15  17
ENDBRANCH   1  15
TORSDOF 6
ENDMDL
MODEL 9
REMARK VINA RESULT:      -7.0      2.623      3.824
REMARK  Name = 
REMARK  8 active torsions:
REMARK  status: ('A' for Active; 'I' for Inactive)
REMARK    1  A    between atoms: C_1  and  C_2
REMARK    2  A    between atoms: C_2  and  C_15
REMARK    3  A    between atoms: N_3  and  N_4
REMARK    4  A    between atoms: N_4  and  C_5
REMARK    5  A    between atoms: C_5  and  N_7
REMARK    6  A    between atoms: N_7  and  C_8
REMARK    7  A    between atoms: C_12  and  C_13
REMARK    8  A    between atoms: C_18  and  N_19
REMARK                            x       y       z     vdW  Elec       q    Type
REMARK                         _______ _______ _______ _____ _____    ______ ____
ROOT
ATOM      1  N   UNL     1       1.848   7.503  20.482  0.00  0.00    +0.000 N 
ATOM      2  H   UNL     1       2.074   7.004  21.337  0.00  0.00    +0.000 HD
ENDROOT
BRANCH   1   5
ATOM      3  C   UNL     1       2.040   4.796  19.650  0.00  0.00    +0.000 C 
ATOM      4  C   UNL     1       2.752   5.981  19.023  0.00  0.00    +0.000 C 
ATOM      5  N   UNL     1       2.567   7.222  19.369  0.00  0.00    +0.000 NA
BRANCH   4   6
ATOM      6  C   UNL     1       3.701   5.709  17.887  0.00  0.00    +0.000 A 
ATOM      7  C   UNL     1       4.397   6.737  17.234  0.00  0.00    +0.000 A 
ATOM      8  C   UNL     1       5.276   6.440  16.188  0.00  0.00    +0.000 A 
ATOM      9  C   UNL     1       5.460   5.110  15.787  0.00  0.00    +0.000 A 
ATOM     10  C   UNL     1       4.762   4.076  16.420  0.00  0.00    +0.000 A 
ATOM     11  C   UNL     1       3.886   4.381  17.465  0.00  0.00    +0.000 A 
BRANCH   9  12
ATOM     12  N   UNL     1       6.393   4.799  14.698  0.00  0.00    +0.000 N 
ATOM     13  O   UNL     1       6.026   3.980  13.843  0.00  0.00    +0.000 OA
ATOM     14  O   UNL     1       7.493   5.369  14.699  0.00  0.00    +0.000 OA
ENDBRANCH   9  12
ENDBRANCH   4   6
ENDBRANCH   1   5
BRANCH   1  15
ATOM     15  C   UNL     1       1.115   8.671  20.601  0.00  0.00    +0.000 C 
ATOM     16  S   UNL     1       0.187   9.104  21.922  0.00  0.00    +0.000 S 
BRANCH  15  17
ATOM     17  N   UNL     1       1.291   9.569  19.571  0.00  0.00    +0.000 N 
ATOM     18  H   UNL     1       2.254   9.745  19.302  0.00  0.00    +0.000 HD
BRANCH  17  19
ATOM     19  C   UNL     1       0.309  10.427  19.035  0.00  0.00    +0.000 A 
ATOM     20  C   UNL     1      -0.815   9.929  18.369  0.00  0.00    +0.000 A 
ATOM     21  C   UNL     1      -1.756  10.798  17.822  0.00  0.00    +0.000 A 
ATOM     22  C   UNL     1      -1.571  12.175  17.930  0.00  0.00    +0.000 A 
ATOM     23  C   UNL     1      -0.467  12.689  18.622  0.00  0.00    +0.000 A 
ATOM     24  C   UNL     1      -0.249  14.169  18.718  0.00  0.00    +0.000 C 
ATOM     25  C   UNL     1       0.454  11.804  19.207  0.00  0.00    +0.000 A 
ENDBRANCH  17  19
ENDBRANCH  15  17
ENDBRANCH   1  15
TORSDOF 6
ENDMDL
