MODEL 1
REMARK VINA RESULT:      -8.4      0.000      0.000
REMARK  Name = 
REMARK  5 active torsions:
REMARK  status: ('A' for Active; 'I' for Inactive)
REMARK    1  A    between atoms: C_2  and  C_16
REMARK    2  A    between atoms: N_3  and  C_4
REMARK    3  A    between atoms: C_7  and  C_8
REMARK    4  A    between atoms: C_8  and  C_9
REMARK    5  A    between atoms: C_19  and  C_20
REMARK                            x       y       z     vdW  Elec       q    Type
REMARK                         _______ _______ _______ _____ _____    ______ ____
ROOT
ATOM      1  O   UNL     1       2.190   8.964  17.423  0.00  0.00    +0.000 OA
ATOM      2  C   UNL     1       1.922   8.449  18.503  0.00  0.00    +0.000 C 
ATOM      3  N   UNL     1       2.249   7.169  18.917  0.00  0.00    +0.000 N 
ATOM      4  H   UNL     1       1.790   6.814  19.747  0.00  0.00    +0.000 HD
ENDROOT
BRANCH   3   5
ATOM      5  C   UNL     1       3.037   6.243  18.202  0.00  0.00    +0.000 A 
ATOM      6  C   UNL     1       2.651   4.920  17.992  0.00  0.00    +0.000 A 
ATOM      7  C   UNL     1       3.478   4.038  17.296  0.00  0.00    +0.000 A 
ATOM      8  C   UNL     1       4.713   4.461  16.792  0.00  0.00    +0.000 A 
ATOM      9  C   UNL     1       5.092   5.797  16.978  0.00  0.00    +0.000 A 
ATOM     10  C   UNL     1       4.257   6.683  17.673  0.00  0.00    +0.000 A 
BRANCH   8  11
ATOM     11  C   UNL     1       5.602   3.483  16.061  0.00  0.00    +0.000 C 
BRANCH  11  12
ATOM     12  C   UNL     1       6.482   4.289  15.185  0.00  0.00    +0.000 A 
ATOM     13  N   UNL     1       6.252   4.438  13.842  0.00  0.00    +0.000 NA
ATOM     14  N   UNL     1       7.202   5.244  13.387  0.00  0.00    +0.000 NA
ATOM     15  N   UNL     1       7.942   5.539  14.463  0.00  0.00    +0.000 N 
ATOM     16  N   UNL     1       7.534   5.003  15.625  0.00  0.00    +0.000 NA
ATOM     17  H   UNL     1       8.758   6.142  14.401  0.00  0.00    +0.000 HD
ENDBRANCH  11  12
ENDBRANCH   8  11
ENDBRANCH   3   5
BRANCH   2  18
ATOM     18  C   UNL     1       1.099   9.237  19.456  0.00  0.00    +0.000 A 
ATOM     19  C   UNL     1       1.129   8.877  20.809  0.00  0.00    +0.000 A 
ATOM     20  C   UNL     1       0.385   9.594  21.745  0.00  0.00    +0.000 A 
ATOM     21  C   UNL     1      -0.406  10.679  21.340  0.00  0.00    +0.000 A 
ATOM     22  C   UNL     1      -0.456  11.014  19.976  0.00  0.00    +0.000 A 
ATOM     23  C   UNL     1       0.287  10.296  19.035  0.00  0.00    +0.000 A 
BRANCH  21  24
ATOM     24  C   UNL     1      -1.193  11.487  22.343  0.00  0.00    +0.000 C 
ATOM     25  F   UNL     1      -1.552  10.782  23.452  0.00  0.00    +0.000 F 
ATOM     26  F   UNL     1      -0.495  12.566  22.797  0.00  0.00    +0.000 F 
ATOM     27  F   UNL     1      -2.349  11.983  21.822  0.00  0.00    +0.000 F 
ENDBRANCH  21  24
ENDBRANCH   2  18
TORSDOF 5
ENDMDL
MODEL 2
REMARK VINA RESULT:      -8.4      0.155      1.226
REMARK  Name = 
REMARK  5 active torsions:
REMARK  status: ('A' for Active; 'I' for Inactive)
REMARK    1  A    between atoms: C_2  and  C_16
REMARK    2  A    between atoms: N_3  and  C_4
REMARK    3  A    between atoms: C_7  and  C_8
REMARK    4  A    between atoms: C_8  and  C_9
REMARK    5  A    between atoms: C_19  and  C_20
REMARK                            x       y       z     vdW  Elec       q    Type
REMARK                         _______ _______ _______ _____ _____    ______ ____
ROOT
ATOM      1  O   UNL     1       2.072   8.839  17.408  0.00  0.00    +0.000 OA
ATOM      2  C   UNL     1       1.943   8.368  18.532  0.00  0.00    +0.000 C 
ATOM      3  N   UNL     1       2.382   7.129  18.970  0.00  0.00    +0.000 N 
ATOM      4  H   UNL     1       2.029   6.794  19.857  0.00  0.00    +0.000 HD
ENDROOT
BRANCH   3   5
ATOM      5  C   UNL     1       3.146   6.210  18.220  0.00  0.00    +0.000 A 
ATOM      6  C   UNL     1       2.732   4.901  17.974  0.00  0.00    +0.000 A 
ATOM      7  C   UNL     1       3.536   4.024  17.245  0.00  0.00    +0.000 A 
ATOM      8  C   UNL     1       4.775   4.438  16.744  0.00  0.00    +0.000 A 
ATOM      9  C   UNL     1       5.182   5.760  16.967  0.00  0.00    +0.000 A 
ATOM     10  C   UNL     1       4.371   6.641  17.696  0.00  0.00    +0.000 A 
BRANCH   8  11
ATOM     11  C   UNL     1       5.638   3.464  15.977  0.00  0.00    +0.000 C 
BRANCH  11  12
ATOM     12  C   UNL     1       6.416   4.268  15.006  0.00  0.00    +0.000 A 
ATOM     13  N   UNL     1       7.554   4.948  15.353  0.00  0.00    +0.000 NA
ATOM     14  N   UNL     1       8.002   5.519  14.243  0.00  0.00    +0.000 NA
ATOM     15  N   UNL     1       7.127   5.155  13.297  0.00  0.00    +0.000 N 
ATOM     16  N   UNL     1       6.128   4.351  13.695  0.00  0.00    +0.000 NA
ATOM     17  H   UNL     1       7.222   5.465  12.334  0.00  0.00    +0.000 HD
ENDBRANCH  11  12
ENDBRANCH   8  11
ENDBRANCH   3   5
BRANCH   2  18
ATOM     18  C   UNL     1       1.177   9.160  19.528  0.00  0.00    +0.000 A 
ATOM     19  C   UNL     1       0.562  10.342  19.100  0.00  0.00    +0.000 A 
ATOM     20  C   UNL     1      -0.180  11.114  19.993  0.00  0.00    +0.000 A 
ATOM     21  C   UNL     1      -0.311  10.717  21.332  0.00  0.00    +0.000 A 
ATOM     22  C   UNL     1       0.337   9.546  21.763  0.00  0.00    +0.000 A 
ATOM     23  C   UNL     1       1.082   8.772  20.869  0.00  0.00    +0.000 A 
BRANCH  21  24
ATOM     24  C   UNL     1      -1.136  11.522  22.307  0.00  0.00    +0.000 C 
ATOM     25  F   UNL     1      -1.493  10.829  23.425  0.00  0.00    +0.000 F 
ATOM     26  F   UNL     1      -0.474  12.627  22.751  0.00  0.00    +0.000 F 
ATOM     27  F   UNL     1      -2.296  11.977  21.759  0.00  0.00    +0.000 F 
ENDBRANCH  21  24
ENDBRANCH   2  18
TORSDOF 5
ENDMDL
MODEL 3
REMARK VINA RESULT:      -8.4      0.182      1.228
REMARK  Name = 
REMARK  5 active torsions:
REMARK  status: ('A' for Active; 'I' for Inactive)
REMARK    1  A    between atoms: C_2  and  C_16
REMARK    2  A    between atoms: N_3  and  C_4
REMARK    3  A    between atoms: C_7  and  C_8
REMARK    4  A    between atoms: C_8  and  C_9
REMARK    5  A    between atoms: C_19  and  C_20
REMARK                            x       y       z     vdW  Elec       q    Type
REMARK                         _______ _______ _______ _____ _____    ______ ____
ROOT
ATOM      1  O   UNL     1       2.080   9.050  17.436  0.00  0.00    +0.000 OA
ATOM      2  C   UNL     1       1.883   8.566  18.545  0.00  0.00    +0.000 C 
ATOM      3  N   UNL     1       2.301   7.325  18.996  0.00  0.00    +0.000 N 
ATOM      4  H   UNL     1       1.895   6.978  19.857  0.00  0.00    +0.000 HD
ENDROOT
BRANCH   3   5
ATOM      5  C   UNL     1       3.116   6.417  18.287  0.00  0.00    +0.000 A 
ATOM      6  C   UNL     1       4.336   6.778  17.717  0.00  0.00    +0.000 A 
ATOM      7  C   UNL     1       5.094   5.846  17.007  0.00  0.00    +0.000 A 
ATOM      8  C   UNL     1       4.647   4.529  16.851  0.00  0.00    +0.000 A 
ATOM      9  C   UNL     1       3.434   4.157  17.445  0.00  0.00    +0.000 A 
ATOM     10  C   UNL     1       2.677   5.093  18.163  0.00  0.00    +0.000 A 
BRANCH   8  11
ATOM     11  C   UNL     1       5.473   3.544  16.059  0.00  0.00    +0.000 C 
BRANCH  11  12
ATOM     12  C   UNL     1       6.297   4.344  15.124  0.00  0.00    +0.000 A 
ATOM     13  N   UNL     1       7.485   4.922  15.494  0.00  0.00    +0.000 NA
ATOM     14  N   UNL     1       7.963   5.521  14.412  0.00  0.00    +0.000 NA
ATOM     15  N   UNL     1       7.056   5.273  13.458  0.00  0.00    +0.000 N 
ATOM     16  N   UNL     1       6.006   4.520  13.823  0.00  0.00    +0.000 NA
ATOM     17  H   UNL     1       7.165   5.629  12.512  0.00  0.00    +0.000 HD
ENDBRANCH  11  12
ENDBRANCH   8  11
ENDBRANCH   3   5
BRANCH   2  18
ATOM     18  C   UNL     1       1.052   9.344  19.499  0.00  0.00    +0.000 A 
ATOM     19  C   UNL     1       0.877   8.834  20.791  0.00  0.00    +0.000 A 
ATOM     20  C   UNL     1       0.117   9.535  21.727  0.00  0.00    +0.000 A 
ATOM     21  C   UNL     1      -0.487  10.752  21.380  0.00  0.00    +0.000 A 
ATOM     22  C   UNL     1      -0.335  11.240  20.071  0.00  0.00    +0.000 A 
ATOM     23  C   UNL     1       0.426  10.539  19.131  0.00  0.00    +0.000 A 
BRANCH  21  24
ATOM     24  C   UNL     1      -1.288  11.540  22.389  0.00  0.00    +0.000 C 
ATOM     25  F   UNL     1      -1.688  10.805  23.464  0.00  0.00    +0.000 F 
ATOM     26  F   UNL     1      -0.584  12.591  22.897  0.00  0.00    +0.000 F 
ATOM     27  F   UNL     1      -2.421  12.073  21.854  0.00  0.00    +0.000 F 
ENDBRANCH  21  24
ENDBRANCH   2  18
TORSDOF 5
ENDMDL
MODEL 4
REMARK VINA RESULT:      -8.3      0.289      1.092
REMARK  Name = 
REMARK  5 active torsions:
REMARK  status: ('A' for Active; 'I' for Inactive)
REMARK    1  A    between atoms: C_2  and  C_16
REMARK    2  A    between atoms: N_3  and  C_4
REMARK    3  A    between atoms: C_7  and  C_8
REMARK    4  A    between atoms: C_8  and  C_9
REMARK    5  A    between atoms: C_19  and  C_20
REMARK                            x       y       z     vdW  Elec       q    Type
REMARK                         _______ _______ _______ _____ _____    ______ ____
ROOT
ATOM      1  O   UNL     1       1.940   9.012  17.381  0.00  0.00    +0.000 OA
ATOM      2  C   UNL     1       1.795   8.589  18.523  0.00  0.00    +0.000 C 
ATOM      3  N   UNL     1       2.218   7.366  19.016  0.00  0.00    +0.000 N 
ATOM      4  H   UNL     1       1.853   7.071  19.913  0.00  0.00    +0.000 HD
ENDROOT
BRANCH   3   5
ATOM      5  C   UNL     1       2.983   6.410  18.315  0.00  0.00    +0.000 A 
ATOM      6  C   UNL     1       2.547   5.104  18.095  0.00  0.00    +0.000 A 
ATOM      7  C   UNL     1       3.352   4.190  17.414  0.00  0.00    +0.000 A 
ATOM      8  C   UNL     1       4.613   4.563  16.935  0.00  0.00    +0.000 A 
ATOM      9  C   UNL     1       5.042   5.882  17.132  0.00  0.00    +0.000 A 
ATOM     10  C   UNL     1       4.230   6.801  17.813  0.00  0.00    +0.000 A 
BRANCH   8  11
ATOM     11  C   UNL     1       5.476   3.550  16.221  0.00  0.00    +0.000 C 
BRANCH  11  12
ATOM     12  C   UNL     1       6.270   4.305  15.224  0.00  0.00    +0.000 A 
ATOM     13  N   UNL     1       7.462   4.908  15.532  0.00  0.00    +0.000 NA
ATOM     14  N   UNL     1       7.907   5.451  14.407  0.00  0.00    +0.000 NA
ATOM     15  N   UNL     1       6.977   5.149  13.492  0.00  0.00    +0.000 N 
ATOM     16  N   UNL     1       5.943   4.410  13.924  0.00  0.00    +0.000 NA
ATOM     17  H   UNL     1       7.059   5.455  12.526  0.00  0.00    +0.000 HD
ENDBRANCH  11  12
ENDBRANCH   8  11
ENDBRANCH   3   5
BRANCH   2  18
ATOM     18  C   UNL     1       1.024   9.428  19.476  0.00  0.00    +0.000 A 
ATOM     19  C   UNL     1       0.731   8.896  20.737  0.00  0.00    +0.000 A 
ATOM     20  C   UNL     1       0.022   9.651  21.672  0.00  0.00    +0.000 A 
ATOM     21  C   UNL     1      -0.410  10.947  21.354  0.00  0.00    +0.000 A 
ATOM     22  C   UNL     1      -0.141  11.461  20.074  0.00  0.00    +0.000 A 
ATOM     23  C   UNL     1       0.568  10.706  19.135  0.00  0.00    +0.000 A 
BRANCH  21  24
ATOM     24  C   UNL     1      -1.151  11.790  22.363  0.00  0.00    +0.000 C 
ATOM     25  F   UNL     1      -2.329  12.292  21.897  0.00  0.00    +0.000 F 
ATOM     26  F   UNL     1      -1.466  11.088  23.488  0.00  0.00    +0.000 F 
ATOM     27  F   UNL     1      -0.424  12.862  22.783  0.00  0.00    +0.000 F 
ENDBRANCH  21  24
ENDBRANCH   2  18
TORSDOF 5
ENDMDL
MODEL 5
REMARK VINA RESULT:      -8.3      0.190      1.223
REMARK  Name = 
REMARK  5 active torsions:
REMARK  status: ('A' for Active; 'I' for Inactive)
REMARK    1  A    between atoms: C_2  and  C_16
REMARK    2  A    between atoms: N_3  and  C_4
REMARK    3  A    between atoms: C_7  and  C_8
REMARK    4  A    between atoms: C_8  and  C_9
REMARK    5  A    between atoms: C_19  and  C_20
REMARK                            x       y       z     vdW  Elec       q    Type
REMARK                         _______ _______ _______ _____ _____    ______ ____
ROOT
ATOM      1  O   UNL     1       2.143   8.863  17.419  0.00  0.00    +0.000 OA
ATOM      2  C   UNL     1       1.983   8.407  18.546  0.00  0.00    +0.000 C 
ATOM      3  N   UNL     1       2.438   7.189  19.022  0.00  0.00    +0.000 N 
ATOM      4  H   UNL     1       2.061   6.859  19.902  0.00  0.00    +0.000 HD
ENDROOT
BRANCH   3   5
ATOM      5  C   UNL     1       3.255   6.278  18.319  0.00  0.00    +0.000 A 
ATOM      6  C   UNL     1       4.600   6.521  18.043  0.00  0.00    +0.000 A 
ATOM      7  C   UNL     1       5.358   5.596  17.325  0.00  0.00    +0.000 A 
ATOM      8  C   UNL     1       4.787   4.404  16.866  0.00  0.00    +0.000 A 
ATOM      9  C   UNL     1       3.443   4.145  17.165  0.00  0.00    +0.000 A 
ATOM     10  C   UNL     1       2.684   5.073  17.891  0.00  0.00    +0.000 A 
BRANCH   8  11
ATOM     11  C   UNL     1       5.621   3.428  16.071  0.00  0.00    +0.000 C 
BRANCH  11  12
ATOM     12  C   UNL     1       6.477   4.240  15.176  0.00  0.00    +0.000 A 
ATOM     13  N   UNL     1       6.258   4.331  13.826  0.00  0.00    +0.000 NA
ATOM     14  N   UNL     1       7.179   5.160  13.352  0.00  0.00    +0.000 NA
ATOM     15  N   UNL     1       7.892   5.524  14.426  0.00  0.00    +0.000 N 
ATOM     16  N   UNL     1       7.492   5.013  15.601  0.00  0.00    +0.000 NA
ATOM     17  H   UNL     1       8.683   6.159  14.351  0.00  0.00    +0.000 HD
ENDBRANCH  11  12
ENDBRANCH   8  11
ENDBRANCH   3   5
BRANCH   2  18
ATOM     18  C   UNL     1       1.158   9.195  19.497  0.00  0.00    +0.000 A 
ATOM     19  C   UNL     1       1.073   8.752  20.822  0.00  0.00    +0.000 A 
ATOM     20  C   UNL     1       0.323   9.465  21.757  0.00  0.00    +0.000 A 
ATOM     21  C   UNL     1      -0.360  10.630  21.376  0.00  0.00    +0.000 A 
ATOM     22  C   UNL     1      -0.297  11.049  20.036  0.00  0.00    +0.000 A 
ATOM     23  C   UNL     1       0.453  10.336  19.098  0.00  0.00    +0.000 A 
BRANCH  21  24
ATOM     24  C   UNL     1      -1.152  11.432  22.380  0.00  0.00    +0.000 C 
ATOM     25  F   UNL     1      -0.482  12.515  22.864  0.00  0.00    +0.000 F 
ATOM     26  F   UNL     1      -2.311  11.917  21.851  0.00  0.00    +0.000 F 
ATOM     27  F   UNL     1      -1.515  10.697  23.466  0.00  0.00    +0.000 F 
ENDBRANCH  21  24
ENDBRANCH   2  18
TORSDOF 5
ENDMDL
MODEL 6
REMARK VINA RESULT:      -8.3      0.197      1.558
REMARK  Name = 
REMARK  5 active torsions:
REMARK  status: ('A' for Active; 'I' for Inactive)
REMARK    1  A    between atoms: C_2  and  C_16
REMARK    2  A    between atoms: N_3  and  C_4
REMARK    3  A    between atoms: C_7  and  C_8
REMARK    4  A    between atoms: C_8  and  C_9
REMARK    5  A    between atoms: C_19  and  C_20
REMARK                            x       y       z     vdW  Elec       q    Type
REMARK                         _______ _______ _______ _____ _____    ______ ____
ROOT
ATOM      1  O   UNL     1       2.018   8.942  17.444  0.00  0.00    +0.000 OA
ATOM      2  C   UNL     1       1.922   8.464  18.569  0.00  0.00    +0.000 C 
ATOM      3  N   UNL     1       2.410   7.241  18.996  0.00  0.00    +0.000 N 
ATOM      4  H   UNL     1       2.082   6.892  19.889  0.00  0.00    +0.000 HD
ENDROOT
BRANCH   3   5
ATOM      5  C   UNL     1       3.193   6.349  18.233  0.00  0.00    +0.000 A 
ATOM      6  C   UNL     1       4.264   6.765  17.442  0.00  0.00    +0.000 A 
ATOM      7  C   UNL     1       4.993   5.844  16.689  0.00  0.00    +0.000 A 
ATOM      8  C   UNL     1       4.667   4.483  16.711  0.00  0.00    +0.000 A 
ATOM      9  C   UNL     1       3.609   4.059  17.526  0.00  0.00    +0.000 A 
ATOM     10  C   UNL     1       2.880   4.985  18.286  0.00  0.00    +0.000 A 
BRANCH   8  11
ATOM     11  C   UNL     1       5.456   3.508  15.871  0.00  0.00    +0.000 C 
BRANCH  11  12
ATOM     12  C   UNL     1       6.424   4.313  15.091  0.00  0.00    +0.000 A 
ATOM     13  N   UNL     1       6.319   4.487  13.735  0.00  0.00    +0.000 NA
ATOM     14  N   UNL     1       7.319   5.284  13.382  0.00  0.00    +0.000 NA
ATOM     15  N   UNL     1       7.962   5.550  14.526  0.00  0.00    +0.000 N 
ATOM     16  N   UNL     1       7.442   5.003  15.636  0.00  0.00    +0.000 NA
ATOM     17  H   UNL     1       8.789   6.140  14.548  0.00  0.00    +0.000 HD
ENDBRANCH  11  12
ENDBRANCH   8  11
ENDBRANCH   3   5
BRANCH   2  18
ATOM     18  C   UNL     1       1.145   9.229  19.578  0.00  0.00    +0.000 A 
ATOM     19  C   UNL     1       0.574  10.446  19.188  0.00  0.00    +0.000 A 
ATOM     20  C   UNL     1      -0.176  11.194  20.095  0.00  0.00    +0.000 A 
ATOM     21  C   UNL     1      -0.360  10.737  21.409  0.00  0.00    +0.000 A 
ATOM     22  C   UNL     1       0.245   9.531  21.802  0.00  0.00    +0.000 A 
ATOM     23  C   UNL     1       0.999   8.781  20.895  0.00  0.00    +0.000 A 
BRANCH  21  24
ATOM     24  C   UNL     1      -1.194  11.517  22.396  0.00  0.00    +0.000 C 
ATOM     25  F   UNL     1      -0.565  12.619  22.893  0.00  0.00    +0.000 F 
ATOM     26  F   UNL     1      -2.355  11.970  21.844  0.00  0.00    +0.000 F 
ATOM     27  F   UNL     1      -1.559  10.772  23.475  0.00  0.00    +0.000 F 
ENDBRANCH  21  24
ENDBRANCH   2  18
TORSDOF 5
ENDMDL
MODEL 7
REMARK VINA RESULT:      -8.3      1.455      2.417
REMARK  Name = 
REMARK  5 active torsions:
REMARK  status: ('A' for Active; 'I' for Inactive)
REMARK    1  A    between atoms: C_2  and  C_16
REMARK    2  A    between atoms: N_3  and  C_4
REMARK    3  A    between atoms: C_7  and  C_8
REMARK    4  A    between atoms: C_8  and  C_9
REMARK    5  A    between atoms: C_19  and  C_20
REMARK                            x       y       z     vdW  Elec       q    Type
REMARK                         _______ _______ _______ _____ _____    ______ ____
ROOT
ATOM      1  O   UNL     1       1.155   9.616  18.130  0.00  0.00    +0.000 OA
ATOM      2  C   UNL     1       1.091   9.227  19.290  0.00  0.00    +0.000 C 
ATOM      3  N   UNL     1       1.589   8.040  19.798  0.00  0.00    +0.000 N 
ATOM      4  H   UNL     1       1.287   7.762  20.724  0.00  0.00    +0.000 HD
ENDROOT
BRANCH   3   5
ATOM      5  C   UNL     1       2.349   7.088  19.085  0.00  0.00    +0.000 A 
ATOM      6  C   UNL     1       3.187   7.428  18.023  0.00  0.00    +0.000 A 
ATOM      7  C   UNL     1       3.900   6.445  17.336  0.00  0.00    +0.000 A 
ATOM      8  C   UNL     1       3.793   5.097  17.697  0.00  0.00    +0.000 A 
ATOM      9  C   UNL     1       2.973   4.756  18.781  0.00  0.00    +0.000 A 
ATOM     10  C   UNL     1       2.260   5.746  19.473  0.00  0.00    +0.000 A 
BRANCH   8  11
ATOM     11  C   UNL     1       4.557   4.049  16.925  0.00  0.00    +0.000 C 
BRANCH  11  12
ATOM     12  C   UNL     1       5.992   4.286  17.202  0.00  0.00    +0.000 A 
ATOM     13  N   UNL     1       6.493   4.384  18.475  0.00  0.00    +0.000 NA
ATOM     14  N   UNL     1       7.802   4.558  18.349  0.00  0.00    +0.000 NA
ATOM     15  N   UNL     1       8.020   4.551  17.028  0.00  0.00    +0.000 N 
ATOM     16  N   UNL     1       6.942   4.356  16.253  0.00  0.00    +0.000 NA
ATOM     17  H   UNL     1       8.952   4.676  16.640  0.00  0.00    +0.000 HD
ENDBRANCH  11  12
ENDBRANCH   8  11
ENDBRANCH   3   5
BRANCH   2  18
ATOM     18  C   UNL     1       0.344  10.071  20.259  0.00  0.00    +0.000 A 
ATOM     19  C   UNL     1      -0.370  11.169  19.765  0.00  0.00    +0.000 A 
ATOM     20  C   UNL     1      -1.099  11.983  20.632  0.00  0.00    +0.000 A 
ATOM     21  C   UNL     1      -1.117  11.713  22.009  0.00  0.00    +0.000 A 
ATOM     22  C   UNL     1      -0.370  10.629  22.501  0.00  0.00    +0.000 A 
ATOM     23  C   UNL     1       0.362   9.812  21.634  0.00  0.00    +0.000 A 
BRANCH  21  24
ATOM     24  C   UNL     1      -1.924  12.563  22.959  0.00  0.00    +0.000 C 
ATOM     25  F   UNL     1      -2.755  11.844  23.765  0.00  0.00    +0.000 F 
ATOM     26  F   UNL     1      -1.133  13.292  23.796  0.00  0.00    +0.000 F 
ATOM     27  F   UNL     1      -2.714  13.464  22.312  0.00  0.00    +0.000 F 
ENDBRANCH  21  24
ENDBRANCH   2  18
TORSDOF 5
ENDMDL
MODEL 8
REMARK VINA RESULT:      -8.2      1.778      2.395
REMARK  Name = 
REMARK  5 active torsions:
REMARK  status: ('A' for Active; 'I' for Inactive)
REMARK    1  A    between atoms: C_2  and  C_16
REMARK    2  A    between atoms: N_3  and  C_4
REMARK    3  A    between atoms: C_7  and  C_8
REMARK    4  A    between atoms: C_8  and  C_9
REMARK    5  A    between atoms: C_19  and  C_20
REMARK                            x       y       z     vdW  Elec       q    Type
REMARK                         _______ _______ _______ _____ _____    ______ ____
ROOT
ATOM      1  O   UNL     1       1.231   7.403  21.538  0.00  0.00    +0.000 OA
ATOM      2  C   UNL     1       1.193   8.351  20.761  0.00  0.00    +0.000 C 
ATOM      3  N   UNL     1       1.744   8.408  19.492  0.00  0.00    +0.000 N 
ATOM      4  H   UNL     1       1.810   9.316  19.050  0.00  0.00    +0.000 HD
ENDROOT
BRANCH   3   5
ATOM      5  C   UNL     1       2.380   7.344  18.817  0.00  0.00    +0.000 A 
ATOM      6  C   UNL     1       2.094   6.004  19.072  0.00  0.00    +0.000 A 
ATOM      7  C   UNL     1       2.768   4.989  18.391  0.00  0.00    +0.000 A 
ATOM      8  C   UNL     1       3.745   5.294  17.437  0.00  0.00    +0.000 A 
ATOM      9  C   UNL     1       4.016   6.640  17.159  0.00  0.00    +0.000 A 
ATOM     10  C   UNL     1       3.334   7.658  17.841  0.00  0.00    +0.000 A 
BRANCH   8  11
ATOM     11  C   UNL     1       4.478   4.179  16.730  0.00  0.00    +0.000 C 
BRANCH  11  12
ATOM     12  C   UNL     1       5.892   4.267  17.161  0.00  0.00    +0.000 A 
ATOM     13  N   UNL     1       6.929   4.403  16.274  0.00  0.00    +0.000 NA
ATOM     14  N   UNL     1       8.035   4.487  17.000  0.00  0.00    +0.000 NA
ATOM     15  N   UNL     1       7.615   4.403  18.269  0.00  0.00    +0.000 N 
ATOM     16  N   UNL     1       6.289   4.295  18.446  0.00  0.00    +0.000 NA
ATOM     17  H   UNL     1       8.265   4.430  19.050  0.00  0.00    +0.000 HD
ENDBRANCH  11  12
ENDBRANCH   8  11
ENDBRANCH   3   5
BRANCH   2  18
ATOM     18  C   UNL     1       0.553   9.605  21.235  0.00  0.00    +0.000 A 
ATOM     19  C   UNL     1      -0.253   9.544  22.378  0.00  0.00    +0.000 A 
ATOM     20  C   UNL     1      -0.864  10.697  22.870  0.00  0.00    +0.000 A 
ATOM     21  C   UNL     1      -0.682  11.927  22.221  0.00  0.00    +0.000 A 
ATOM     22  C   UNL     1       0.101  11.973  21.055  0.00  0.00    +0.000 A 
ATOM     23  C   UNL     1       0.713  10.819  20.559  0.00  0.00    +0.000 A 
BRANCH  21  24
ATOM     24  C   UNL     1      -1.310  13.191  22.756  0.00  0.00    +0.000 C 
ATOM     25  F   UNL     1      -2.095  13.838  21.850  0.00  0.00    +0.000 F 
ATOM     26  F   UNL     1      -2.107  12.953  23.836  0.00  0.00    +0.000 F 
ATOM     27  F   UNL     1      -0.384  14.100  23.168  0.00  0.00    +0.000 F 
ENDBRANCH  21  24
ENDBRANCH   2  18
TORSDOF 5
ENDMDL
MODEL 9
REMARK VINA RESULT:      -8.1      5.822     10.261
REMARK  Name = 
REMARK  5 active torsions:
REMARK  status: ('A' for Active; 'I' for Inactive)
REMARK    1  A    between atoms: C_2  and  C_16
REMARK    2  A    between atoms: N_3  and  C_4
REMARK    3  A    between atoms: C_7  and  C_8
REMARK    4  A    between atoms: C_8  and  C_9
REMARK    5  A    between atoms: C_19  and  C_20
REMARK                            x       y       z     vdW  Elec       q    Type
REMARK                         _______ _______ _______ _____ _____    ______ ____
ROOT
ATOM      1  O   UNL     1       2.196   8.673  19.126  0.00  0.00    +0.000 OA
ATOM      2  C   UNL     1       1.766   7.771  19.837  0.00  0.00    +0.000 C 
ATOM      3  N   UNL     1       0.923   7.902  20.927  0.00  0.00    +0.000 N 
ATOM      4  H   UNL     1       0.815   7.100  21.535  0.00  0.00    +0.000 HD
ENDROOT
BRANCH   3   5
ATOM      5  C   UNL     1       0.324   9.100  21.372  0.00  0.00    +0.000 A 
ATOM      6  C   UNL     1       0.128  10.204  20.543  0.00  0.00    +0.000 A 
ATOM      7  C   UNL     1      -0.449  11.374  21.039  0.00  0.00    +0.000 A 
ATOM      8  C   UNL     1      -0.845  11.465  22.378  0.00  0.00    +0.000 A 
ATOM      9  C   UNL     1      -0.673  10.348  23.207  0.00  0.00    +0.000 A 
ATOM     10  C   UNL     1      -0.098   9.172  22.705  0.00  0.00    +0.000 A 
BRANCH   8  11
ATOM     11  C   UNL     1      -1.446  12.749  22.898  0.00  0.00    +0.000 C 
BRANCH  11  12
ATOM     12  C   UNL     1      -2.913  12.552  22.905  0.00  0.00    +0.000 A 
ATOM     13  N   UNL     1      -3.619  12.294  24.052  0.00  0.00    +0.000 NA
ATOM     14  N   UNL     1      -4.894  12.213  23.697  0.00  0.00    +0.000 NA
ATOM     15  N   UNL     1      -4.893  12.428  22.375  0.00  0.00    +0.000 N 
ATOM     16  N   UNL     1      -3.696  12.676  21.819  0.00  0.00    +0.000 NA
ATOM     17  H   UNL     1      -5.751  12.413  21.830  0.00  0.00    +0.000 HD
ENDBRANCH  11  12
ENDBRANCH   8  11
ENDBRANCH   3   5
BRANCH   2  18
ATOM     18  C   UNL     1       2.241   6.391  19.561  0.00  0.00    +0.000 A 
ATOM     19  C   UNL     1       1.936   5.389  20.490  0.00  0.00    +0.000 A 
ATOM     20  C   UNL     1       2.348   4.075  20.270  0.00  0.00    +0.000 A 
ATOM     21  C   UNL     1       3.078   3.746  19.118  0.00  0.00    +0.000 A 
ATOM     22  C   UNL     1       3.410   4.763  18.207  0.00  0.00    +0.000 A 
ATOM     23  C   UNL     1       2.999   6.081  18.427  0.00  0.00    +0.000 A 
BRANCH  21  24
ATOM     24  C   UNL     1       3.506   2.324  18.846  0.00  0.00    +0.000 C 
ATOM     25  F   UNL     1       3.951   2.121  17.575  0.00  0.00    +0.000 F 
ATOM     26  F   UNL     1       4.521   1.927  19.664  0.00  0.00    +0.000 F 
ATOM     27  F   UNL     1       2.498   1.429  19.040  0.00  0.00    +0.000 F 
ENDBRANCH  21  24
ENDBRANCH   2  18
TORSDOF 5
ENDMDL
