MODEL 1
REMARK VINA RESULT:      -8.9      0.000      0.000
REMARK  Name = 
REMARK  6 active torsions:
REMARK  status: ('A' for Active; 'I' for Inactive)
REMARK    1  A    between atoms: C_2  and  C_7
REMARK    2  A    between atoms: N_3  and  C_4
REMARK    3  A    between atoms: C_12  and  C_14
REMARK    4  A    between atoms: C_18  and  C_19
REMARK    5  A    between atoms: C_25  and  C_26
REMARK    6  A    between atoms: N_28  and  C_29
REMARK                            x       y       z     vdW  Elec       q    Type
REMARK                         _______ _______ _______ _____ _____    ______ ____
ROOT
ATOM      1  C   UNL     1       2.384   7.200  19.476  0.00  0.00    +0.000 A 
ATOM      2  C   UNL     1       2.488   7.963  18.311  0.00  0.00    +0.000 A 
ATOM      3  C   UNL     1       1.730   9.121  18.194  0.00  0.00    +0.000 A 
ATOM      4  C   UNL     1       0.880   9.471  19.234  0.00  0.00    +0.000 A 
ATOM      5  C   UNL     1       0.797   8.639  20.351  0.00  0.00    +0.000 A 
ATOM      6  N   UNL     1       1.537   7.504  20.496  0.00  0.00    +0.000 NA
ENDROOT
BRANCH   1  12
ATOM      7  C   UNL     1       3.181   2.396  19.245  0.00  0.00    +0.000 C 
ATOM      8  C   UNL     1       1.715   2.037  19.591  0.00  0.00    +0.000 C 
ATOM      9  C   UNL     1       0.773   3.249  19.630  0.00  0.00    +0.000 C 
ATOM     10  C   UNL     1       1.348   4.431  20.404  0.00  0.00    +0.000 C 
ATOM     11  N   UNL     1       2.703   4.723  19.941  0.00  0.00    +0.000 N 
ATOM     12  C   UNL     1       3.225   5.961  19.550  0.00  0.00    +0.000 C 
ATOM     13  O   UNL     1       4.425   6.086  19.270  0.00  0.00    +0.000 OA
ATOM     14  C   UNL     1       3.625   3.596  20.075  0.00  0.00    +0.000 C 
BRANCH   7  16
ATOM     15  O   UNL     1       2.660   2.076  16.927  0.00  0.00    +0.000 OA
ATOM     16  C   UNL     1       3.409   2.594  17.746  0.00  0.00    +0.000 C 
ATOM     17  N   UNL     1       4.558   3.277  17.392  0.00  0.00    +0.000 N 
ATOM     18  H   UNL     1       5.254   3.464  18.101  0.00  0.00    +0.000 HD
BRANCH  17  19
ATOM     19  C   UNL     1       4.895   3.681  16.061  0.00  0.00    +0.000 C 
ATOM     20  C   UNL     1       5.328   5.097  15.763  0.00  0.00    +0.000 C 
ATOM     21  C   UNL     1       6.328   3.989  15.710  0.00  0.00    +0.000 C 
ENDBRANCH  17  19
ENDBRANCH   7  16
ENDBRANCH   1  12
BRANCH   5  22
ATOM     22  C   UNL     1      -0.093   9.100  21.468  0.00  0.00    +0.000 C 
ATOM     23  O   UNL     1      -0.836   8.244  21.960  0.00  0.00    +0.000 OA
ATOM     24  N   UNL     1      -0.067  10.409  21.958  0.00  0.00    +0.000 N 
ATOM     25  C   UNL     1      -0.876  10.717  23.139  0.00  0.00    +0.000 C 
ATOM     26  C   UNL     1      -1.706  11.971  22.913  0.00  0.00    +0.000 C 
ATOM     27  C   UNL     1      -0.825  13.134  22.491  0.00  0.00    +0.000 C 
ATOM     28  C   UNL     1       0.110  12.785  21.315  0.00  0.00    +0.000 C 
ATOM     29  C   UNL     1       0.860  11.475  21.576  0.00  0.00    +0.000 C 
BRANCH  28  30
ATOM     30  C   UNL     1       1.070  13.950  21.132  0.00  0.00    +0.000 C 
ATOM     31  O   UNL     1       1.652  14.446  22.101  0.00  0.00    +0.000 OA
ATOM     32  N   UNL     1       1.216  14.428  19.860  0.00  0.00    +0.000 N 
ATOM     33  H   UNL     1       0.547  14.207  19.131  0.00  0.00    +0.000 HD
BRANCH  32  34
ATOM     34  C   UNL     1       2.055  15.565  19.647  0.00  0.00    +0.000 C 
ATOM     35  C   UNL     1       2.720  15.802  18.325  0.00  0.00    +0.000 C 
ATOM     36  C   UNL     1       1.596  16.678  18.757  0.00  0.00    +0.000 C 
ENDBRANCH  32  34
ENDBRANCH  28  30
ENDBRANCH   5  22
TORSDOF 6
ENDMDL
MODEL 2
REMARK VINA RESULT:      -8.9      1.107      1.232
REMARK  Name = 
REMARK  6 active torsions:
REMARK  status: ('A' for Active; 'I' for Inactive)
REMARK    1  A    between atoms: C_2  and  C_7
REMARK    2  A    between atoms: N_3  and  C_4
REMARK    3  A    between atoms: C_12  and  C_14
REMARK    4  A    between atoms: C_18  and  C_19
REMARK    5  A    between atoms: C_25  and  C_26
REMARK    6  A    between atoms: N_28  and  C_29
REMARK                            x       y       z     vdW  Elec       q    Type
REMARK                         _______ _______ _______ _____ _____    ______ ____
ROOT
ATOM      1  C   UNL     1       2.426   7.307  19.413  0.00  0.00    +0.000 A 
ATOM      2  C   UNL     1       2.467   7.924  18.160  0.00  0.00    +0.000 A 
ATOM      3  C   UNL     1       1.717   9.074  17.951  0.00  0.00    +0.000 A 
ATOM      4  C   UNL     1       0.936   9.561  18.990  0.00  0.00    +0.000 A 
ATOM      5  C   UNL     1       0.912   8.869  20.201  0.00  0.00    +0.000 A 
ATOM      6  N   UNL     1       1.647   7.746  20.437  0.00  0.00    +0.000 NA
ENDROOT
BRANCH   1  12
ATOM      7  C   UNL     1       3.191   2.493  19.499  0.00  0.00    +0.000 C 
ATOM      8  C   UNL     1       1.713   2.165  19.830  0.00  0.00    +0.000 C 
ATOM      9  C   UNL     1       0.780   3.383  19.770  0.00  0.00    +0.000 C 
ATOM     10  C   UNL     1       1.346   4.608  20.484  0.00  0.00    +0.000 C 
ATOM     11  N   UNL     1       2.714   4.862  20.037  0.00  0.00    +0.000 N 
ATOM     12  C   UNL     1       3.255   6.070  19.583  0.00  0.00    +0.000 C 
ATOM     13  O   UNL     1       4.463   6.169  19.327  0.00  0.00    +0.000 OA
ATOM     14  C   UNL     1       3.624   3.739  20.264  0.00  0.00    +0.000 C 
BRANCH   7  16
ATOM     15  O   UNL     1       2.779   1.961  17.199  0.00  0.00    +0.000 OA
ATOM     16  C   UNL     1       3.457   2.596  17.997  0.00  0.00    +0.000 C 
ATOM     17  N   UNL     1       4.563   3.338  17.627  0.00  0.00    +0.000 N 
ATOM     18  H   UNL     1       5.217   3.631  18.340  0.00  0.00    +0.000 HD
BRANCH  17  19
ATOM     19  C   UNL     1       4.917   3.667  16.279  0.00  0.00    +0.000 C 
ATOM     20  C   UNL     1       5.195   5.095  15.873  0.00  0.00    +0.000 C 
ATOM     21  C   UNL     1       6.319   4.116  15.959  0.00  0.00    +0.000 C 
ENDBRANCH  17  19
ENDBRANCH   7  16
ENDBRANCH   1  12
BRANCH   5  22
ATOM     22  C   UNL     1       0.098   9.476  21.306  0.00  0.00    +0.000 C 
ATOM     23  O   UNL     1      -0.367   8.688  22.136  0.00  0.00    +0.000 OA
ATOM     24  N   UNL     1      -0.101  10.855  21.423  0.00  0.00    +0.000 N 
ATOM     25  C   UNL     1      -0.795  11.351  22.613  0.00  0.00    +0.000 C 
ATOM     26  C   UNL     1      -1.903  12.318  22.227  0.00  0.00    +0.000 C 
ATOM     27  C   UNL     1      -1.364  13.441  21.358  0.00  0.00    +0.000 C 
ATOM     28  C   UNL     1      -0.537  12.929  20.160  0.00  0.00    +0.000 C 
ATOM     29  C   UNL     1       0.510  11.905  20.607  0.00  0.00    +0.000 C 
BRANCH  28  30
ATOM     30  C   UNL     1       0.109  14.137  19.500  0.00  0.00    +0.000 C 
ATOM     31  O   UNL     1       1.336  14.214  19.390  0.00  0.00    +0.000 OA
ATOM     32  N   UNL     1      -0.732  15.128  19.079  0.00  0.00    +0.000 N 
ATOM     33  H   UNL     1      -1.688  15.188  19.410  0.00  0.00    +0.000 HD
BRANCH  32  34
ATOM     34  C   UNL     1      -0.167  16.313  18.514  0.00  0.00    +0.000 C 
ATOM     35  C   UNL     1      -1.010  17.522  18.243  0.00  0.00    +0.000 C 
ATOM     36  C   UNL     1      -0.016  17.544  19.353  0.00  0.00    +0.000 C 
ENDBRANCH  32  34
ENDBRANCH  28  30
ENDBRANCH   5  22
TORSDOF 6
ENDMDL
MODEL 3
REMARK VINA RESULT:      -8.4      3.222      4.030
REMARK  Name = 
REMARK  6 active torsions:
REMARK  status: ('A' for Active; 'I' for Inactive)
REMARK    1  A    between atoms: C_2  and  C_7
REMARK    2  A    between atoms: N_3  and  C_4
REMARK    3  A    between atoms: C_12  and  C_14
REMARK    4  A    between atoms: C_18  and  C_19
REMARK    5  A    between atoms: C_25  and  C_26
REMARK    6  A    between atoms: N_28  and  C_29
REMARK                            x       y       z     vdW  Elec       q    Type
REMARK                         _______ _______ _______ _____ _____    ______ ____
ROOT
ATOM      1  C   UNL     1       1.972   7.187  19.530  0.00  0.00    +0.000 A 
ATOM      2  C   UNL     1       2.398   7.412  18.219  0.00  0.00    +0.000 A 
ATOM      3  C   UNL     1       2.242   8.677  17.669  0.00  0.00    +0.000 A 
ATOM      4  C   UNL     1       1.650   9.671  18.435  0.00  0.00    +0.000 A 
ATOM      5  C   UNL     1       1.212   9.364  19.723  0.00  0.00    +0.000 A 
ATOM      6  N   UNL     1       1.362   8.134  20.291  0.00  0.00    +0.000 NA
ENDROOT
BRANCH   1  12
ATOM      7  C   UNL     1       3.019   2.435  19.218  0.00  0.00    +0.000 C 
ATOM      8  C   UNL     1       2.611   2.343  17.726  0.00  0.00    +0.000 C 
ATOM      9  C   UNL     1       2.304   3.703  17.083  0.00  0.00    +0.000 C 
ATOM     10  C   UNL     1       1.406   4.585  17.945  0.00  0.00    +0.000 C 
ATOM     11  N   UNL     1       1.930   4.656  19.308  0.00  0.00    +0.000 N 
ATOM     12  C   UNL     1       2.165   5.803  20.075  0.00  0.00    +0.000 C 
ATOM     13  O   UNL     1       2.521   5.715  21.257  0.00  0.00    +0.000 OA
ATOM     14  C   UNL     1       2.052   3.353  19.959  0.00  0.00    +0.000 C 
BRANCH   7  16
ATOM     15  O   UNL     1       5.143   2.353  20.326  0.00  0.00    +0.000 OA
ATOM     16  C   UNL     1       4.482   2.834  19.413  0.00  0.00    +0.000 C 
ATOM     17  N   UNL     1       4.953   3.837  18.588  0.00  0.00    +0.000 N 
ATOM     18  H   UNL     1       4.294   4.359  18.026  0.00  0.00    +0.000 HD
BRANCH  17  19
ATOM     19  C   UNL     1       6.316   4.269  18.517  0.00  0.00    +0.000 C 
ATOM     20  C   UNL     1       6.681   5.592  17.884  0.00  0.00    +0.000 C 
ATOM     21  C   UNL     1       6.783   5.424  19.365  0.00  0.00    +0.000 C 
ENDBRANCH  17  19
ENDBRANCH   7  16
ENDBRANCH   1  12
BRANCH   5  22
ATOM     22  C   UNL     1       0.635  10.493  20.525  0.00  0.00    +0.000 C 
ATOM     23  O   UNL     1       1.177  10.722  21.612  0.00  0.00    +0.000 OA
ATOM     24  N   UNL     1      -0.431  11.273  20.066  0.00  0.00    +0.000 N 
ATOM     25  C   UNL     1      -0.827  12.434  20.865  0.00  0.00    +0.000 C 
ATOM     26  C   UNL     1      -2.331  12.448  21.090  0.00  0.00    +0.000 C 
ATOM     27  C   UNL     1      -3.076  12.368  19.770  0.00  0.00    +0.000 C 
ATOM     28  C   UNL     1      -2.590  11.211  18.873  0.00  0.00    +0.000 C 
ATOM     29  C   UNL     1      -1.064  11.212  18.748  0.00  0.00    +0.000 C 
BRANCH  28  30
ATOM     30  C   UNL     1      -3.261  11.368  17.518  0.00  0.00    +0.000 C 
ATOM     31  O   UNL     1      -4.364  11.914  17.419  0.00  0.00    +0.000 OA
ATOM     32  N   UNL     1      -2.600  10.845  16.443  0.00  0.00    +0.000 N 
ATOM     33  H   UNL     1      -1.851  10.172  16.558  0.00  0.00    +0.000 HD
BRANCH  32  34
ATOM     34  C   UNL     1      -3.222  10.908  15.158  0.00  0.00    +0.000 C 
ATOM     35  C   UNL     1      -2.810   9.987  14.049  0.00  0.00    +0.000 C 
ATOM     36  C   UNL     1      -4.131   9.805  14.711  0.00  0.00    +0.000 C 
ENDBRANCH  32  34
ENDBRANCH  28  30
ENDBRANCH   5  22
TORSDOF 6
ENDMDL
MODEL 4
REMARK VINA RESULT:      -8.1      2.875      3.674
REMARK  Name = 
REMARK  6 active torsions:
REMARK  status: ('A' for Active; 'I' for Inactive)
REMARK    1  A    between atoms: C_2  and  C_7
REMARK    2  A    between atoms: N_3  and  C_4
REMARK    3  A    between atoms: C_12  and  C_14
REMARK    4  A    between atoms: C_18  and  C_19
REMARK    5  A    between atoms: C_25  and  C_26
REMARK    6  A    between atoms: N_28  and  C_29
REMARK                            x       y       z     vdW  Elec       q    Type
REMARK                         _______ _______ _______ _____ _____    ______ ____
ROOT
ATOM      1  C   UNL     1       2.644   7.153  19.232  0.00  0.00    +0.000 A 
ATOM      2  C   UNL     1       2.645   7.352  17.849  0.00  0.00    +0.000 A 
ATOM      3  C   UNL     1       2.048   8.496  17.334  0.00  0.00    +0.000 A 
ATOM      4  C   UNL     1       1.453   9.392  18.210  0.00  0.00    +0.000 A 
ATOM      5  C   UNL     1       1.454   9.107  19.576  0.00  0.00    +0.000 A 
ATOM      6  N   UNL     1       2.042   8.000  20.109  0.00  0.00    +0.000 NA
ENDROOT
BRANCH   1  12
ATOM      7  C   UNL     1       2.991   2.345  19.966  0.00  0.00    +0.000 C 
ATOM      8  C   UNL     1       1.459   2.127  19.913  0.00  0.00    +0.000 C 
ATOM      9  C   UNL     1       0.670   3.374  19.491  0.00  0.00    +0.000 C 
ATOM     10  C   UNL     1       1.118   4.641  20.215  0.00  0.00    +0.000 C 
ATOM     11  N   UNL     1       2.570   4.779  20.134  0.00  0.00    +0.000 N 
ATOM     12  C   UNL     1       3.302   5.903  19.734  0.00  0.00    +0.000 C 
ATOM     13  O   UNL     1       4.538   5.915  19.806  0.00  0.00    +0.000 OA
ATOM     14  C   UNL     1       3.300   3.645  20.701  0.00  0.00    +0.000 C 
BRANCH   7  16
ATOM     15  O   UNL     1       3.448   1.316  17.850  0.00  0.00    +0.000 OA
ATOM     16  C   UNL     1       3.653   2.271  18.589  0.00  0.00    +0.000 C 
ATOM     17  N   UNL     1       4.565   3.268  18.300  0.00  0.00    +0.000 N 
ATOM     18  H   UNL     1       4.869   3.884  19.042  0.00  0.00    +0.000 HD
BRANCH  17  19
ATOM     19  C   UNL     1       5.198   3.458  17.030  0.00  0.00    +0.000 C 
ATOM     20  C   UNL     1       5.024   4.746  16.259  0.00  0.00    +0.000 C 
ATOM     21  C   UNL     1       6.338   4.434  16.897  0.00  0.00    +0.000 C 
ENDBRANCH  17  19
ENDBRANCH   7  16
ENDBRANCH   1  12
BRANCH   5  22
ATOM     22  C   UNL     1       0.850  10.142  20.480  0.00  0.00    +0.000 C 
ATOM     23  O   UNL     1       1.373  10.266  21.592  0.00  0.00    +0.000 OA
ATOM     24  N   UNL     1      -0.221  10.951  20.086  0.00  0.00    +0.000 N 
ATOM     25  C   UNL     1      -0.644  12.020  20.991  0.00  0.00    +0.000 C 
ATOM     26  C   UNL     1      -2.151  11.991  21.193  0.00  0.00    +0.000 C 
ATOM     27  C   UNL     1      -2.877  12.036  19.860  0.00  0.00    +0.000 C 
ATOM     28  C   UNL     1      -2.361  10.983  18.858  0.00  0.00    +0.000 C 
ATOM     29  C   UNL     1      -0.833  11.016  18.758  0.00  0.00    +0.000 C 
BRANCH  28  30
ATOM     30  C   UNL     1      -3.015  11.268  17.515  0.00  0.00    +0.000 C 
ATOM     31  O   UNL     1      -4.060  11.922  17.449  0.00  0.00    +0.000 OA
ATOM     32  N   UNL     1      -2.408  10.736  16.413  0.00  0.00    +0.000 N 
ATOM     33  H   UNL     1      -1.727   9.989  16.492  0.00  0.00    +0.000 HD
BRANCH  32  34
ATOM     34  C   UNL     1      -3.022  10.920  15.136  0.00  0.00    +0.000 C 
ATOM     35  C   UNL     1      -2.793   9.949  14.017  0.00  0.00    +0.000 C 
ATOM     36  C   UNL     1      -4.119  10.002  14.694  0.00  0.00    +0.000 C 
ENDBRANCH  32  34
ENDBRANCH  28  30
ENDBRANCH   5  22
TORSDOF 6
ENDMDL
MODEL 5
REMARK VINA RESULT:      -8.1      1.144      1.366
REMARK  Name = 
REMARK  6 active torsions:
REMARK  status: ('A' for Active; 'I' for Inactive)
REMARK    1  A    between atoms: C_2  and  C_7
REMARK    2  A    between atoms: N_3  and  C_4
REMARK    3  A    between atoms: C_12  and  C_14
REMARK    4  A    between atoms: C_18  and  C_19
REMARK    5  A    between atoms: C_25  and  C_26
REMARK    6  A    between atoms: N_28  and  C_29
REMARK                            x       y       z     vdW  Elec       q    Type
REMARK                         _______ _______ _______ _____ _____    ______ ____
ROOT
ATOM      1  C   UNL     1       2.465   7.199  19.450  0.00  0.00    +0.000 A 
ATOM      2  C   UNL     1       2.565   7.947  18.274  0.00  0.00    +0.000 A 
ATOM      3  C   UNL     1       1.790   9.092  18.137  0.00  0.00    +0.000 A 
ATOM      4  C   UNL     1       0.927   9.442  19.165  0.00  0.00    +0.000 A 
ATOM      5  C   UNL     1       0.849   8.624  20.293  0.00  0.00    +0.000 A 
ATOM      6  N   UNL     1       1.605   7.503  20.459  0.00  0.00    +0.000 NA
ENDROOT
BRANCH   1  12
ATOM      7  C   UNL     1       4.074   2.823  18.023  0.00  0.00    +0.000 C 
ATOM      8  C   UNL     1       2.750   2.461  17.306  0.00  0.00    +0.000 C 
ATOM      9  C   UNL     1       1.751   3.624  17.225  0.00  0.00    +0.000 C 
ATOM     10  C   UNL     1       1.587   4.367  18.547  0.00  0.00    +0.000 C 
ATOM     11  N   UNL     1       2.897   4.721  19.091  0.00  0.00    +0.000 N 
ATOM     12  C   UNL     1       3.324   5.974  19.545  0.00  0.00    +0.000 C 
ATOM     13  O   UNL     1       4.434   6.113  20.075  0.00  0.00    +0.000 OA
ATOM     14  C   UNL     1       3.769   3.570  19.318  0.00  0.00    +0.000 C 
BRANCH   7  16
ATOM     15  O   UNL     1       4.973   3.489  15.904  0.00  0.00    +0.000 OA
ATOM     16  C   UNL     1       5.055   3.574  17.123  0.00  0.00    +0.000 C 
ATOM     17  N   UNL     1       6.084   4.237  17.766  0.00  0.00    +0.000 N 
ATOM     18  H   UNL     1       6.235   4.067  18.751  0.00  0.00    +0.000 HD
BRANCH  17  19
ATOM     19  C   UNL     1       7.030   5.100  17.127  0.00  0.00    +0.000 C 
ATOM     20  C   UNL     1       6.666   6.521  16.763  0.00  0.00    +0.000 C 
ATOM     21  C   UNL     1       7.618   6.263  17.884  0.00  0.00    +0.000 C 
ENDBRANCH  17  19
ENDBRANCH   7  16
ENDBRANCH   1  12
BRANCH   5  22
ATOM     22  C   UNL     1      -0.056   9.086  21.398  0.00  0.00    +0.000 C 
ATOM     23  O   UNL     1      -0.813   8.233  21.873  0.00  0.00    +0.000 OA
ATOM     24  N   UNL     1      -0.029  10.392  21.895  0.00  0.00    +0.000 N 
ATOM     25  C   UNL     1      -0.855  10.700  23.064  0.00  0.00    +0.000 C 
ATOM     26  C   UNL     1      -1.672  11.961  22.830  0.00  0.00    +0.000 C 
ATOM     27  C   UNL     1      -0.776  13.120  22.429  0.00  0.00    +0.000 C 
ATOM     28  C   UNL     1       0.177  12.770  21.268  0.00  0.00    +0.000 C 
ATOM     29  C   UNL     1       0.912  11.453  21.533  0.00  0.00    +0.000 C 
BRANCH  28  30
ATOM     30  C   UNL     1       1.148  13.929  21.106  0.00  0.00    +0.000 C 
ATOM     31  O   UNL     1       1.851  14.299  22.051  0.00  0.00    +0.000 OA
ATOM     32  N   UNL     1       1.167  14.546  19.888  0.00  0.00    +0.000 N 
ATOM     33  H   UNL     1       0.414  14.424  19.220  0.00  0.00    +0.000 HD
BRANCH  32  34
ATOM     34  C   UNL     1       2.014  15.682  19.708  0.00  0.00    +0.000 C 
ATOM     35  C   UNL     1       2.003  16.465  18.429  0.00  0.00    +0.000 C 
ATOM     36  C   UNL     1       1.423  17.058  19.667  0.00  0.00    +0.000 C 
ENDBRANCH  32  34
ENDBRANCH  28  30
ENDBRANCH   5  22
TORSDOF 6
ENDMDL
MODEL 6
REMARK VINA RESULT:      -8.0      2.905      3.551
REMARK  Name = 
REMARK  6 active torsions:
REMARK  status: ('A' for Active; 'I' for Inactive)
REMARK    1  A    between atoms: C_2  and  C_7
REMARK    2  A    between atoms: N_3  and  C_4
REMARK    3  A    between atoms: C_12  and  C_14
REMARK    4  A    between atoms: C_18  and  C_19
REMARK    5  A    between atoms: C_25  and  C_26
REMARK    6  A    between atoms: N_28  and  C_29
REMARK                            x       y       z     vdW  Elec       q    Type
REMARK                         _______ _______ _______ _____ _____    ______ ____
ROOT
ATOM      1  C   UNL     1       2.371   7.476  19.250  0.00  0.00    +0.000 A 
ATOM      2  C   UNL     1       2.089   7.718  17.903  0.00  0.00    +0.000 A 
ATOM      3  C   UNL     1       1.354   8.846  17.562  0.00  0.00    +0.000 A 
ATOM      4  C   UNL     1       0.909   9.685  18.573  0.00  0.00    +0.000 A 
ATOM      5  C   UNL     1       1.193   9.358  19.900  0.00  0.00    +0.000 A 
ATOM      6  N   UNL     1       1.920   8.265  20.262  0.00  0.00    +0.000 NA
ENDROOT
BRANCH   1  12
ATOM      7  C   UNL     1       3.046   2.673  19.748  0.00  0.00    +0.000 C 
ATOM      8  C   UNL     1       1.547   2.391  20.018  0.00  0.00    +0.000 C 
ATOM      9  C   UNL     1       0.640   3.612  19.812  0.00  0.00    +0.000 C 
ATOM     10  C   UNL     1       1.186   4.881  20.460  0.00  0.00    +0.000 C 
ATOM     11  N   UNL     1       2.581   5.082  20.075  0.00  0.00    +0.000 N 
ATOM     12  C   UNL     1       3.168   6.244  19.562  0.00  0.00    +0.000 C 
ATOM     13  O   UNL     1       4.389   6.308  19.369  0.00  0.00    +0.000 OA
ATOM     14  C   UNL     1       3.457   3.969  20.439  0.00  0.00    +0.000 C 
BRANCH   7  16
ATOM     15  O   UNL     1       2.842   1.877  17.496  0.00  0.00    +0.000 OA
ATOM     16  C   UNL     1       3.398   2.656  18.260  0.00  0.00    +0.000 C 
ATOM     17  N   UNL     1       4.444   3.473  17.875  0.00  0.00    +0.000 N 
ATOM     18  H   UNL     1       5.017   3.903  18.588  0.00  0.00    +0.000 HD
BRANCH  17  19
ATOM     19  C   UNL     1       4.850   3.704  16.522  0.00  0.00    +0.000 C 
ATOM     20  C   UNL     1       5.195   5.093  16.039  0.00  0.00    +0.000 C 
ATOM     21  C   UNL     1       6.278   4.081  16.220  0.00  0.00    +0.000 C 
ENDBRANCH  17  19
ENDBRANCH   7  16
ENDBRANCH   1  12
BRANCH   5  22
ATOM     22  C   UNL     1       0.738  10.334  20.945  0.00  0.00    +0.000 C 
ATOM     23  O   UNL     1       1.400  10.363  21.988  0.00  0.00    +0.000 OA
ATOM     24  N   UNL     1      -0.350  11.191  20.750  0.00  0.00    +0.000 N 
ATOM     25  C   UNL     1      -0.624  12.197  21.778  0.00  0.00    +0.000 C 
ATOM     26  C   UNL     1      -2.094  12.183  22.167  0.00  0.00    +0.000 C 
ATOM     27  C   UNL     1      -2.980  12.344  20.944  0.00  0.00    +0.000 C 
ATOM     28  C   UNL     1      -2.625  11.358  19.812  0.00  0.00    +0.000 C 
ATOM     29  C   UNL     1      -1.122  11.369  19.520  0.00  0.00    +0.000 C 
BRANCH  28  30
ATOM     30  C   UNL     1      -3.434  11.757  18.587  0.00  0.00    +0.000 C 
ATOM     31  O   UNL     1      -2.936  11.707  17.459  0.00  0.00    +0.000 OA
ATOM     32  N   UNL     1      -4.707  12.200  18.812  0.00  0.00    +0.000 N 
ATOM     33  H   UNL     1      -5.010  12.496  19.733  0.00  0.00    +0.000 HD
BRANCH  32  34
ATOM     34  C   UNL     1      -5.483  12.650  17.700  0.00  0.00    +0.000 C 
ATOM     35  C   UNL     1      -6.902  12.205  17.512  0.00  0.00    +0.000 C 
ATOM     36  C   UNL     1      -6.612  13.609  17.914  0.00  0.00    +0.000 C 
ENDBRANCH  32  34
ENDBRANCH  28  30
ENDBRANCH   5  22
TORSDOF 6
ENDMDL
MODEL 7
REMARK VINA RESULT:      -7.9      1.382      1.610
REMARK  Name = 
REMARK  6 active torsions:
REMARK  status: ('A' for Active; 'I' for Inactive)
REMARK    1  A    between atoms: C_2  and  C_7
REMARK    2  A    between atoms: N_3  and  C_4
REMARK    3  A    between atoms: C_12  and  C_14
REMARK    4  A    between atoms: C_18  and  C_19
REMARK    5  A    between atoms: C_25  and  C_26
REMARK    6  A    between atoms: N_28  and  C_29
REMARK                            x       y       z     vdW  Elec       q    Type
REMARK                         _______ _______ _______ _____ _____    ______ ____
ROOT
ATOM      1  C   UNL     1       2.444   7.250  19.379  0.00  0.00    +0.000 A 
ATOM      2  C   UNL     1       2.523   7.917  18.154  0.00  0.00    +0.000 A 
ATOM      3  C   UNL     1       1.776   9.073  17.967  0.00  0.00    +0.000 A 
ATOM      4  C   UNL     1       0.961   9.516  18.998  0.00  0.00    +0.000 A 
ATOM      5  C   UNL     1       0.900   8.776  20.180  0.00  0.00    +0.000 A 
ATOM      6  N   UNL     1       1.630   7.646  20.394  0.00  0.00    +0.000 NA
ENDROOT
BRANCH   1  12
ATOM      7  C   UNL     1       4.015   2.821  18.079  0.00  0.00    +0.000 C 
ATOM      8  C   UNL     1       2.715   2.478  17.311  0.00  0.00    +0.000 C 
ATOM      9  C   UNL     1       1.746   3.661  17.172  0.00  0.00    +0.000 C 
ATOM     10  C   UNL     1       1.543   4.426  18.477  0.00  0.00    +0.000 C 
ATOM     11  N   UNL     1       2.836   4.759  19.071  0.00  0.00    +0.000 N 
ATOM     12  C   UNL     1       3.271   6.008  19.527  0.00  0.00    +0.000 C 
ATOM     13  O   UNL     1       4.361   6.131  20.101  0.00  0.00    +0.000 OA
ATOM     14  C   UNL     1       3.673   3.593  19.350  0.00  0.00    +0.000 C 
BRANCH   7  16
ATOM     15  O   UNL     1       5.071   3.370  15.998  0.00  0.00    +0.000 OA
ATOM     16  C   UNL     1       5.050   3.539  17.211  0.00  0.00    +0.000 C 
ATOM     17  N   UNL     1       6.006   4.273  17.888  0.00  0.00    +0.000 N 
ATOM     18  H   UNL     1       6.079   4.174  18.891  0.00  0.00    +0.000 HD
BRANCH  17  19
ATOM     19  C   UNL     1       6.981   5.119  17.270  0.00  0.00    +0.000 C 
ATOM     20  C   UNL     1       6.704   6.585  17.037  0.00  0.00    +0.000 C 
ATOM     21  C   UNL     1       7.686   6.173  18.084  0.00  0.00    +0.000 C 
ENDBRANCH  17  19
ENDBRANCH   7  16
ENDBRANCH   1  12
BRANCH   5  22
ATOM     22  C   UNL     1       0.048   9.336  21.281  0.00  0.00    +0.000 C 
ATOM     23  O   UNL     1      -0.584   8.514  21.952  0.00  0.00    +0.000 OA
ATOM     24  N   UNL     1      -0.009  10.704  21.565  0.00  0.00    +0.000 N 
ATOM     25  C   UNL     1      -0.762  11.130  22.746  0.00  0.00    +0.000 C 
ATOM     26  C   UNL     1      -1.711  12.266  22.399  0.00  0.00    +0.000 C 
ATOM     27  C   UNL     1      -0.965  13.413  21.741  0.00  0.00    +0.000 C 
ATOM     28  C   UNL     1      -0.081  12.957  20.562  0.00  0.00    +0.000 C 
ATOM     29  C   UNL     1       0.795  11.764  20.956  0.00  0.00    +0.000 C 
BRANCH  28  30
ATOM     30  C   UNL     1       0.759  14.149  20.131  0.00  0.00    +0.000 C 
ATOM     31  O   UNL     1       0.268  15.280  20.076  0.00  0.00    +0.000 OA
ATOM     32  N   UNL     1       2.054  13.891  19.781  0.00  0.00    +0.000 N 
ATOM     33  H   UNL     1       2.368  12.950  19.566  0.00  0.00    +0.000 HD
BRANCH  32  34
ATOM     34  C   UNL     1       2.864  14.967  19.305  0.00  0.00    +0.000 C 
ATOM     35  C   UNL     1       4.353  14.831  19.200  0.00  0.00    +0.000 C 
ATOM     36  C   UNL     1       3.523  14.872  17.964  0.00  0.00    +0.000 C 
ENDBRANCH  32  34
ENDBRANCH  28  30
ENDBRANCH   5  22
TORSDOF 6
ENDMDL
MODEL 8
REMARK VINA RESULT:      -7.9      1.727      1.950
REMARK  Name = 
REMARK  6 active torsions:
REMARK  status: ('A' for Active; 'I' for Inactive)
REMARK    1  A    between atoms: C_2  and  C_7
REMARK    2  A    between atoms: N_3  and  C_4
REMARK    3  A    between atoms: C_12  and  C_14
REMARK    4  A    between atoms: C_18  and  C_19
REMARK    5  A    between atoms: C_25  and  C_26
REMARK    6  A    between atoms: N_28  and  C_29
REMARK                            x       y       z     vdW  Elec       q    Type
REMARK                         _______ _______ _______ _____ _____    ______ ____
ROOT
ATOM      1  C   UNL     1       2.382   7.347  19.320  0.00  0.00    +0.000 A 
ATOM      2  C   UNL     1       2.511   7.952  18.068  0.00  0.00    +0.000 A 
ATOM      3  C   UNL     1       1.792   9.110  17.802  0.00  0.00    +0.000 A 
ATOM      4  C   UNL     1       0.954   9.616  18.785  0.00  0.00    +0.000 A 
ATOM      5  C   UNL     1       0.844   8.937  19.999  0.00  0.00    +0.000 A 
ATOM      6  N   UNL     1       1.546   7.806  20.289  0.00  0.00    +0.000 NA
ENDROOT
BRANCH   1  12
ATOM      7  C   UNL     1       3.974   2.867  18.240  0.00  0.00    +0.000 C 
ATOM      8  C   UNL     1       2.720   2.518  17.400  0.00  0.00    +0.000 C 
ATOM      9  C   UNL     1       1.778   3.708  17.168  0.00  0.00    +0.000 C 
ATOM     10  C   UNL     1       1.503   4.510  18.437  0.00  0.00    +0.000 C 
ATOM     11  N   UNL     1       2.760   4.844  19.103  0.00  0.00    +0.000 N 
ATOM     12  C   UNL     1       3.182   6.100  19.553  0.00  0.00    +0.000 C 
ATOM     13  O   UNL     1       4.235   6.225  20.193  0.00  0.00    +0.000 OA
ATOM     14  C   UNL     1       3.561   3.676  19.466  0.00  0.00    +0.000 C 
BRANCH   7  16
ATOM     15  O   UNL     1       5.081   3.462  16.200  0.00  0.00    +0.000 OA
ATOM     16  C   UNL     1       5.071   3.548  17.422  0.00  0.00    +0.000 C 
ATOM     17  N   UNL     1       6.085   4.145  18.146  0.00  0.00    +0.000 N 
ATOM     18  H   UNL     1       6.146   3.971  19.140  0.00  0.00    +0.000 HD
BRANCH  17  19
ATOM     19  C   UNL     1       7.134   4.942  17.585  0.00  0.00    +0.000 C 
ATOM     20  C   UNL     1       6.885   6.371  17.161  0.00  0.00    +0.000 C 
ATOM     21  C   UNL     1       7.709   6.090  18.374  0.00  0.00    +0.000 C 
ENDBRANCH  17  19
ENDBRANCH   7  16
ENDBRANCH   1  12
BRANCH   5  22
ATOM     22  C   UNL     1      -0.030   9.564  21.045  0.00  0.00    +0.000 C 
ATOM     23  O   UNL     1      -0.527   8.794  21.873  0.00  0.00    +0.000 OA
ATOM     24  N   UNL     1      -0.249  10.944  21.112  0.00  0.00    +0.000 N 
ATOM     25  C   UNL     1      -1.006  11.464  22.252  0.00  0.00    +0.000 C 
ATOM     26  C   UNL     1      -2.103  12.408  21.785  0.00  0.00    +0.000 C 
ATOM     27  C   UNL     1      -1.533  13.511  20.912  0.00  0.00    +0.000 C 
ATOM     28  C   UNL     1      -0.643  12.977  19.771  0.00  0.00    +0.000 C 
ATOM     29  C   UNL     1       0.391  11.978  20.298  0.00  0.00    +0.000 C 
BRANCH  28  30
ATOM     30  C   UNL     1       0.023  14.173  19.110  0.00  0.00    +0.000 C 
ATOM     31  O   UNL     1       1.117  14.057  18.550  0.00  0.00    +0.000 OA
ATOM     32  N   UNL     1      -0.633  15.368  19.204  0.00  0.00    +0.000 N 
ATOM     33  H   UNL     1      -1.372  15.515  19.883  0.00  0.00    +0.000 HD
BRANCH  32  34
ATOM     34  C   UNL     1      -0.015  16.534  18.657  0.00  0.00    +0.000 C 
ATOM     35  C   UNL     1      -0.755  17.437  17.717  0.00  0.00    +0.000 C 
ATOM     36  C   UNL     1      -0.456  17.894  19.103  0.00  0.00    +0.000 C 
ENDBRANCH  32  34
ENDBRANCH  28  30
ENDBRANCH   5  22
TORSDOF 6
ENDMDL
MODEL 9
REMARK VINA RESULT:      -7.8      3.282      3.965
REMARK  Name = 
REMARK  6 active torsions:
REMARK  status: ('A' for Active; 'I' for Inactive)
REMARK    1  A    between atoms: C_2  and  C_7
REMARK    2  A    between atoms: N_3  and  C_4
REMARK    3  A    between atoms: C_12  and  C_14
REMARK    4  A    between atoms: C_18  and  C_19
REMARK    5  A    between atoms: C_25  and  C_26
REMARK    6  A    between atoms: N_28  and  C_29
REMARK                            x       y       z     vdW  Elec       q    Type
REMARK                         _______ _______ _______ _____ _____    ______ ____
ROOT
ATOM      1  C   UNL     1       1.923   7.113  19.549  0.00  0.00    +0.000 A 
ATOM      2  C   UNL     1       2.223   7.340  18.204  0.00  0.00    +0.000 A 
ATOM      3  C   UNL     1       2.085   8.623  17.690  0.00  0.00    +0.000 A 
ATOM      4  C   UNL     1       1.635   9.633  18.528  0.00  0.00    +0.000 A 
ATOM      5  C   UNL     1       1.315   9.325  19.851  0.00  0.00    +0.000 A 
ATOM      6  N   UNL     1       1.452   8.079  20.383  0.00  0.00    +0.000 NA
ENDROOT
BRANCH   1  12
ATOM      7  C   UNL     1       3.027   2.383  19.123  0.00  0.00    +0.000 C 
ATOM      8  C   UNL     1       2.720   2.348  17.605  0.00  0.00    +0.000 C 
ATOM      9  C   UNL     1       2.446   3.730  16.996  0.00  0.00    +0.000 C 
ATOM     10  C   UNL     1       1.485   4.573  17.830  0.00  0.00    +0.000 C 
ATOM     11  N   UNL     1       1.917   4.594  19.226  0.00  0.00    +0.000 N 
ATOM     12  C   UNL     1       2.091   5.710  20.051  0.00  0.00    +0.000 C 
ATOM     13  O   UNL     1       2.368   5.578  21.251  0.00  0.00    +0.000 OA
ATOM     14  C   UNL     1       2.006   3.266  19.833  0.00  0.00    +0.000 C 
BRANCH   7  16
ATOM     15  O   UNL     1       5.084   2.247  20.347  0.00  0.00    +0.000 OA
ATOM     16  C   UNL     1       4.471   2.782  19.432  0.00  0.00    +0.000 C 
ATOM     17  N   UNL     1       4.975   3.844  18.705  0.00  0.00    +0.000 N 
ATOM     18  H   UNL     1       4.342   4.397  18.142  0.00  0.00    +0.000 HD
BRANCH  17  19
ATOM     19  C   UNL     1       6.333   4.294  18.744  0.00  0.00    +0.000 C 
ATOM     20  C   UNL     1       7.069   4.660  17.477  0.00  0.00    +0.000 C 
ATOM     21  C   UNL     1       6.658   5.732  18.432  0.00  0.00    +0.000 C 
ENDBRANCH  17  19
ENDBRANCH   7  16
ENDBRANCH   1  12
BRANCH   5  22
ATOM     22  C   UNL     1       0.892  10.470  20.725  0.00  0.00    +0.000 C 
ATOM     23  O   UNL     1       1.584  10.674  21.728  0.00  0.00    +0.000 OA
ATOM     24  N   UNL     1      -0.199  11.288  20.415  0.00  0.00    +0.000 N 
ATOM     25  C   UNL     1      -0.441  12.458  21.261  0.00  0.00    +0.000 C 
ATOM     26  C   UNL     1      -1.900  12.522  21.687  0.00  0.00    +0.000 C 
ATOM     27  C   UNL     1      -2.820  12.475  20.480  0.00  0.00    +0.000 C 
ATOM     28  C   UNL     1      -2.500  11.307  19.525  0.00  0.00    +0.000 C 
ATOM     29  C   UNL     1      -1.005  11.256  19.195  0.00  0.00    +0.000 C 
BRANCH  28  30
ATOM     30  C   UNL     1      -3.342  11.494  18.273  0.00  0.00    +0.000 C 
ATOM     31  O   UNL     1      -2.828  11.438  17.152  0.00  0.00    +0.000 OA
ATOM     32  N   UNL     1      -4.669  11.760  18.462  0.00  0.00    +0.000 N 
ATOM     33  H   UNL     1      -5.024  12.072  19.359  0.00  0.00    +0.000 HD
BRANCH  32  34
ATOM     34  C   UNL     1      -5.488  12.010  17.319  0.00  0.00    +0.000 C 
ATOM     35  C   UNL     1      -6.977  12.132  17.441  0.00  0.00    +0.000 C 
ATOM     36  C   UNL     1      -6.155  13.341  17.152  0.00  0.00    +0.000 C 
ENDBRANCH  32  34
ENDBRANCH  28  30
ENDBRANCH   5  22
TORSDOF 6
ENDMDL
