MODEL 1
REMARK VINA RESULT:      -7.2      0.000      0.000
REMARK  Name = 
REMARK  8 active torsions:
REMARK  status: ('A' for Active; 'I' for Inactive)
REMARK    1  A    between atoms: C_1  and  C_2
REMARK    2  A    between atoms: C_2  and  C_3
REMARK    3  A    between atoms: C_2  and  N_4
REMARK    4  A    between atoms: C_8  and  C_11
REMARK    5  A    between atoms: N_9  and  O_10
REMARK    6  A    between atoms: C_16  and  O_17
REMARK    7  A    between atoms: O_17  and  C_18
REMARK    8  A    between atoms: C_22  and  C_23
REMARK                            x       y       z     vdW  Elec       q    Type
REMARK                         _______ _______ _______ _____ _____    ______ ____
ROOT
ATOM      1  C   UNL     1      -0.988  11.456  21.895  0.00  0.00    +0.000 A 
ATOM      2  C   UNL     1      -0.856  10.736  23.096  0.00  0.00    +0.000 A 
ATOM      3  C   UNL     1      -0.345   9.444  23.095  0.00  0.00    +0.000 A 
ATOM      4  C   UNL     1       0.011   8.892  21.882  0.00  0.00    +0.000 A 
ATOM      5  N   UNL     1      -0.100   9.541  20.708  0.00  0.00    +0.000 NA
ATOM      6  C   UNL     1      -0.571  10.825  20.722  0.00  0.00    +0.000 A 
ENDROOT
BRANCH   1  11
ATOM      7  N   UNL     1      -5.684  12.902  23.332  0.00  0.00    +0.000 NA
ATOM      8  C   UNL     1      -5.301  12.898  21.906  0.00  0.00    +0.000 C 
ATOM      9  C   UNL     1      -3.927  13.522  21.558  0.00  0.00    +0.000 C 
ATOM     10  N   UNL     1      -2.891  12.916  22.401  0.00  0.00    +0.000 N 
ATOM     11  C   UNL     1      -1.567  12.843  21.971  0.00  0.00    +0.000 C 
ATOM     12  N   UNL     1      -0.810  13.836  21.607  0.00  0.00    +0.000 NA
ATOM     13  C   UNL     1      -3.166  13.071  23.835  0.00  0.00    +0.000 C 
ATOM     14  C   UNL     1      -4.549  12.464  24.174  0.00  0.00    +0.000 C 
BRANCH   7  16
ATOM     15  C   UNL     1      -6.561  15.270  22.909  0.00  0.00    +0.000 C 
ATOM     16  C   UNL     1      -6.417  14.070  23.845  0.00  0.00    +0.000 C 
ATOM     17  C   UNL     1      -7.802  13.674  24.382  0.00  0.00    +0.000 C 
ENDBRANCH   7  16
BRANCH  12  18
ATOM     18  O   UNL     1      -1.448  15.075  21.736  0.00  0.00    +0.000 OA
ATOM     19  H   UNL     1      -1.309  15.464  20.854  0.00  0.00    +0.000 HD
ENDBRANCH  12  18
ENDBRANCH   1  11
BRANCH   6  20
ATOM     20  O   UNL     1      -0.620  11.509  19.513  0.00  0.00    +0.000 OA
BRANCH  20  21
ATOM     21  C   UNL     1      -1.588  11.161  18.593  0.00  0.00    +0.000 A 
ATOM     22  C   UNL     1      -1.246  10.194  17.646  0.00  0.00    +0.000 A 
ATOM     23  C   UNL     1      -2.188   9.763  16.705  0.00  0.00    +0.000 A 
ATOM     24  C   UNL     1      -3.475  10.301  16.709  0.00  0.00    +0.000 A 
ATOM     25  C   UNL     1      -3.839  11.262  17.663  0.00  0.00    +0.000 A 
ATOM     26  C   UNL     1      -2.892  11.665  18.619  0.00  0.00    +0.000 A 
BRANCH  25  27
ATOM     27  C   UNL     1      -5.211  11.886  17.671  0.00  0.00    +0.000 C 
ATOM     28  F   UNL     1      -5.413  12.750  18.705  0.00  0.00    +0.000 F 
ATOM     29  F   UNL     1      -5.468  12.599  16.539  0.00  0.00    +0.000 F 
ATOM     30  F   UNL     1      -6.208  10.962  17.762  0.00  0.00    +0.000 F 
ENDBRANCH  25  27
ENDBRANCH  20  21
ENDBRANCH   6  20
TORSDOF 6
ENDMDL
MODEL 2
REMARK VINA RESULT:      -7.1      3.173      6.159
REMARK  Name = 
REMARK  8 active torsions:
REMARK  status: ('A' for Active; 'I' for Inactive)
REMARK    1  A    between atoms: C_1  and  C_2
REMARK    2  A    between atoms: C_2  and  C_3
REMARK    3  A    between atoms: C_2  and  N_4
REMARK    4  A    between atoms: C_8  and  C_11
REMARK    5  A    between atoms: N_9  and  O_10
REMARK    6  A    between atoms: C_16  and  O_17
REMARK    7  A    between atoms: O_17  and  C_18
REMARK    8  A    between atoms: C_22  and  C_23
REMARK                            x       y       z     vdW  Elec       q    Type
REMARK                         _______ _______ _______ _____ _____    ______ ____
ROOT
ATOM      1  C   UNL     1      -0.549  11.052  20.788  0.00  0.00    +0.000 A 
ATOM      2  C   UNL     1      -0.031   9.746  20.729  0.00  0.00    +0.000 A 
ATOM      3  C   UNL     1       0.083   8.976  21.881  0.00  0.00    +0.000 A 
ATOM      4  C   UNL     1      -0.310   9.541  23.076  0.00  0.00    +0.000 A 
ATOM      5  N   UNL     1      -0.808  10.788  23.181  0.00  0.00    +0.000 NA
ATOM      6  C   UNL     1      -0.951  11.525  22.038  0.00  0.00    +0.000 A 
ENDROOT
BRANCH   1  11
ATOM      7  N   UNL     1       2.463  14.856  19.156  0.00  0.00    +0.000 NA
ATOM      8  C   UNL     1       1.108  15.137  19.669  0.00  0.00    +0.000 C 
ATOM      9  C   UNL     1      -0.031  14.226  19.149  0.00  0.00    +0.000 C 
ATOM     10  N   UNL     1       0.345  12.821  19.345  0.00  0.00    +0.000 N 
ATOM     11  C   UNL     1      -0.627  11.833  19.504  0.00  0.00    +0.000 C 
ATOM     12  N   UNL     1      -1.591  11.549  18.679  0.00  0.00    +0.000 NA
ATOM     13  C   UNL     1       1.609  12.475  18.683  0.00  0.00    +0.000 C 
ATOM     14  C   UNL     1       2.739  13.403  19.191  0.00  0.00    +0.000 C 
BRANCH   7  16
ATOM     15  C   UNL     1       2.501  17.006  17.764  0.00  0.00    +0.000 C 
ATOM     16  C   UNL     1       2.885  15.534  17.920  0.00  0.00    +0.000 C 
ATOM     17  C   UNL     1       4.394  15.374  17.678  0.00  0.00    +0.000 C 
ENDBRANCH   7  16
BRANCH  12  18
ATOM     18  O   UNL     1      -1.551  12.326  17.516  0.00  0.00    +0.000 OA
ATOM     19  H   UNL     1      -2.309  12.924  17.650  0.00  0.00    +0.000 HD
ENDBRANCH  12  18
ENDBRANCH   1  11
BRANCH   6  20
ATOM     20  O   UNL     1      -1.527  12.785  22.150  0.00  0.00    +0.000 OA
BRANCH  20  21
ATOM     21  C   UNL     1      -2.878  12.875  22.415  0.00  0.00    +0.000 A 
ATOM     22  C   UNL     1      -3.248  13.323  23.684  0.00  0.00    +0.000 A 
ATOM     23  C   UNL     1      -4.600  13.475  24.013  0.00  0.00    +0.000 A 
ATOM     24  C   UNL     1      -5.586  13.180  23.071  0.00  0.00    +0.000 A 
ATOM     25  C   UNL     1      -5.231  12.744  21.786  0.00  0.00    +0.000 A 
ATOM     26  C   UNL     1      -3.869  12.621  21.461  0.00  0.00    +0.000 A 
BRANCH  25  27
ATOM     27  C   UNL     1      -6.273  12.385  20.759  0.00  0.00    +0.000 C 
ATOM     28  F   UNL     1      -5.750  11.900  19.597  0.00  0.00    +0.000 F 
ATOM     29  F   UNL     1      -7.137  11.429  21.202  0.00  0.00    +0.000 F 
ATOM     30  F   UNL     1      -7.046  13.448  20.400  0.00  0.00    +0.000 F 
ENDBRANCH  25  27
ENDBRANCH  20  21
ENDBRANCH   6  20
TORSDOF 6
ENDMDL
MODEL 3
REMARK VINA RESULT:      -7.0      3.309      5.622
REMARK  Name = 
REMARK  8 active torsions:
REMARK  status: ('A' for Active; 'I' for Inactive)
REMARK    1  A    between atoms: C_1  and  C_2
REMARK    2  A    between atoms: C_2  and  C_3
REMARK    3  A    between atoms: C_2  and  N_4
REMARK    4  A    between atoms: C_8  and  C_11
REMARK    5  A    between atoms: N_9  and  O_10
REMARK    6  A    between atoms: C_16  and  O_17
REMARK    7  A    between atoms: O_17  and  C_18
REMARK    8  A    between atoms: C_22  and  C_23
REMARK                            x       y       z     vdW  Elec       q    Type
REMARK                         _______ _______ _______ _____ _____    ______ ____
ROOT
ATOM      1  C   UNL     1       0.409  10.896  20.875  0.00  0.00    +0.000 A 
ATOM      2  C   UNL     1       0.945   9.794  21.566  0.00  0.00    +0.000 A 
ATOM      3  C   UNL     1       0.373   9.357  22.755  0.00  0.00    +0.000 A 
ATOM      4  C   UNL     1      -0.721  10.047  23.236  0.00  0.00    +0.000 A 
ATOM      5  N   UNL     1      -1.266  11.107  22.611  0.00  0.00    +0.000 NA
ATOM      6  C   UNL     1      -0.719  11.508  21.424  0.00  0.00    +0.000 A 
ENDROOT
BRANCH   1  11
ATOM      7  N   UNL     1       1.794  15.599  19.401  0.00  0.00    +0.000 NA
ATOM      8  C   UNL     1       0.612  14.941  18.808  0.00  0.00    +0.000 C 
ATOM      9  C   UNL     1       0.788  13.466  18.370  0.00  0.00    +0.000 C 
ATOM     10  N   UNL     1       1.338  12.691  19.488  0.00  0.00    +0.000 N 
ATOM     11  C   UNL     1       1.092  11.324  19.604  0.00  0.00    +0.000 C 
ATOM     12  N   UNL     1       1.363  10.406  18.723  0.00  0.00    +0.000 NA
ATOM     13  C   UNL     1       2.615  13.228  19.976  0.00  0.00    +0.000 C 
ATOM     14  C   UNL     1       2.438  14.709  20.391  0.00  0.00    +0.000 C 
BRANCH   7  16
ATOM     15  C   UNL     1       2.144  17.373  17.588  0.00  0.00    +0.000 C 
ATOM     16  C   UNL     1       2.725  16.287  18.494  0.00  0.00    +0.000 C 
ATOM     17  C   UNL     1       3.936  16.852  19.254  0.00  0.00    +0.000 C 
ENDBRANCH   7  16
BRANCH  12  18
ATOM     18  O   UNL     1       2.011  10.919  17.594  0.00  0.00    +0.000 OA
ATOM     19  H   UNL     1       2.472  11.694  17.963  0.00  0.00    +0.000 HD
ENDBRANCH  12  18
ENDBRANCH   1  11
BRANCH   6  20
ATOM     20  O   UNL     1      -1.329  12.562  20.753  0.00  0.00    +0.000 OA
BRANCH  20  21
ATOM     21  C   UNL     1      -2.440  12.299  19.978  0.00  0.00    +0.000 A 
ATOM     22  C   UNL     1      -3.673  12.737  20.466  0.00  0.00    +0.000 A 
ATOM     23  C   UNL     1      -4.839  12.540  19.718  0.00  0.00    +0.000 A 
ATOM     24  C   UNL     1      -4.774  11.903  18.478  0.00  0.00    +0.000 A 
ATOM     25  C   UNL     1      -3.542  11.471  17.966  0.00  0.00    +0.000 A 
ATOM     26  C   UNL     1      -2.376  11.700  18.716  0.00  0.00    +0.000 A 
BRANCH  25  27
ATOM     27  C   UNL     1      -3.444  10.751  16.647  0.00  0.00    +0.000 C 
ATOM     28  F   UNL     1      -2.420  11.187  15.860  0.00  0.00    +0.000 F 
ATOM     29  F   UNL     1      -3.249   9.411  16.796  0.00  0.00    +0.000 F 
ATOM     30  F   UNL     1      -4.571  10.881  15.892  0.00  0.00    +0.000 F 
ENDBRANCH  25  27
ENDBRANCH  20  21
ENDBRANCH   6  20
TORSDOF 6
ENDMDL
MODEL 4
REMARK VINA RESULT:      -7.0      5.530      7.486
REMARK  Name = 
REMARK  8 active torsions:
REMARK  status: ('A' for Active; 'I' for Inactive)
REMARK    1  A    between atoms: C_1  and  C_2
REMARK    2  A    between atoms: C_2  and  C_3
REMARK    3  A    between atoms: C_2  and  N_4
REMARK    4  A    between atoms: C_8  and  C_11
REMARK    5  A    between atoms: N_9  and  O_10
REMARK    6  A    between atoms: C_16  and  O_17
REMARK    7  A    between atoms: O_17  and  C_18
REMARK    8  A    between atoms: C_22  and  C_23
REMARK                            x       y       z     vdW  Elec       q    Type
REMARK                         _______ _______ _______ _____ _____    ______ ____
ROOT
ATOM      1  C   UNL     1       0.470  10.296  19.912  0.00  0.00    +0.000 A 
ATOM      2  C   UNL     1       0.208  10.524  21.275  0.00  0.00    +0.000 A 
ATOM      3  C   UNL     1       0.609   9.605  22.237  0.00  0.00    +0.000 A 
ATOM      4  C   UNL     1       1.255   8.463  21.809  0.00  0.00    +0.000 A 
ATOM      5  N   UNL     1       1.525   8.201  20.516  0.00  0.00    +0.000 NA
ATOM      6  C   UNL     1       1.158   9.128  19.579  0.00  0.00    +0.000 A 
ENDROOT
BRANCH   1  11
ATOM      7  N   UNL     1       1.998  15.148  19.335  0.00  0.00    +0.000 NA
ATOM      8  C   UNL     1       0.706  14.837  19.979  0.00  0.00    +0.000 C 
ATOM      9  C   UNL     1      -0.185  13.786  19.271  0.00  0.00    +0.000 C 
ATOM     10  N   UNL     1       0.603  12.575  19.017  0.00  0.00    +0.000 N 
ATOM     11  C   UNL     1      -0.010  11.326  18.925  0.00  0.00    +0.000 C 
ATOM     12  N   UNL     1      -0.959  10.983  18.105  0.00  0.00    +0.000 NA
ATOM     13  C   UNL     1       1.806  12.838  18.217  0.00  0.00    +0.000 C 
ATOM     14  C   UNL     1       2.681  13.904  18.920  0.00  0.00    +0.000 C 
BRANCH   7  16
ATOM     15  C   UNL     1       1.642  17.630  18.815  0.00  0.00    +0.000 C 
ATOM     16  C   UNL     1       2.026  16.230  18.338  0.00  0.00    +0.000 C 
ATOM     17  C   UNL     1       3.381  16.292  17.615  0.00  0.00    +0.000 C 
ENDBRANCH   7  16
BRANCH  12  18
ATOM     18  O   UNL     1      -1.310  12.014  17.226  0.00  0.00    +0.000 OA
ATOM     19  H   UNL     1      -1.241  11.571  16.362  0.00  0.00    +0.000 HD
ENDBRANCH  12  18
ENDBRANCH   1  11
BRANCH   6  20
ATOM     20  O   UNL     1       1.500   8.879  18.255  0.00  0.00    +0.000 OA
BRANCH  20  21
ATOM     21  C   UNL     1       2.297   7.789  17.970  0.00  0.00    +0.000 A 
ATOM     22  C   UNL     1       3.613   8.049  17.582  0.00  0.00    +0.000 A 
ATOM     23  C   UNL     1       4.491   6.993  17.313  0.00  0.00    +0.000 A 
ATOM     24  C   UNL     1       4.054   5.673  17.432  0.00  0.00    +0.000 A 
ATOM     25  C   UNL     1       2.740   5.395  17.835  0.00  0.00    +0.000 A 
ATOM     26  C   UNL     1       1.877   6.464  18.128  0.00  0.00    +0.000 A 
BRANCH  25  27
ATOM     27  C   UNL     1       2.229   3.982  17.939  0.00  0.00    +0.000 C 
ATOM     28  F   UNL     1       0.879   3.899  18.110  0.00  0.00    +0.000 F 
ATOM     29  F   UNL     1       2.506   3.242  16.830  0.00  0.00    +0.000 F 
ATOM     30  F   UNL     1       2.775   3.301  18.986  0.00  0.00    +0.000 F 
ENDBRANCH  25  27
ENDBRANCH  20  21
ENDBRANCH   6  20
TORSDOF 6
ENDMDL
MODEL 5
REMARK VINA RESULT:      -7.0      3.130      4.870
REMARK  Name = 
REMARK  8 active torsions:
REMARK  status: ('A' for Active; 'I' for Inactive)
REMARK    1  A    between atoms: C_1  and  C_2
REMARK    2  A    between atoms: C_2  and  C_3
REMARK    3  A    between atoms: C_2  and  N_4
REMARK    4  A    between atoms: C_8  and  C_11
REMARK    5  A    between atoms: N_9  and  O_10
REMARK    6  A    between atoms: C_16  and  O_17
REMARK    7  A    between atoms: O_17  and  C_18
REMARK    8  A    between atoms: C_22  and  C_23
REMARK                            x       y       z     vdW  Elec       q    Type
REMARK                         _______ _______ _______ _____ _____    ______ ____
ROOT
ATOM      1  C   UNL     1      -6.480  12.162  20.187  0.00  0.00    +0.000 A 
ATOM      2  C   UNL     1      -7.308  11.437  21.063  0.00  0.00    +0.000 A 
ATOM      3  C   UNL     1      -7.707  10.143  20.753  0.00  0.00    +0.000 A 
ATOM      4  C   UNL     1      -7.276   9.604  19.558  0.00  0.00    +0.000 A 
ATOM      5  N   UNL     1      -6.486  10.261  18.688  0.00  0.00    +0.000 NA
ATOM      6  C   UNL     1      -6.070  11.521  19.017  0.00  0.00    +0.000 A 
ENDROOT
BRANCH   1  11
ATOM      7  N   UNL     1      -3.090  13.717  23.694  0.00  0.00    +0.000 NA
ATOM      8  C   UNL     1      -4.539  13.790  23.964  0.00  0.00    +0.000 C 
ATOM      9  C   UNL     1      -5.424  14.375  22.835  0.00  0.00    +0.000 C 
ATOM     10  N   UNL     1      -5.139  13.669  21.581  0.00  0.00    +0.000 N 
ATOM     11  C   UNL     1      -6.104  13.566  20.580  0.00  0.00    +0.000 C 
ATOM     12  N   UNL     1      -6.720  14.546  19.987  0.00  0.00    +0.000 NA
ATOM     13  C   UNL     1      -3.723  13.740  21.199  0.00  0.00    +0.000 C 
ATOM     14  C   UNL     1      -2.842  13.174  22.340  0.00  0.00    +0.000 C 
BRANCH   7  16
ATOM     15  C   UNL     1      -2.214  15.274  25.528  0.00  0.00    +0.000 C 
ATOM     16  C   UNL     1      -2.263  14.880  24.052  0.00  0.00    +0.000 C 
ATOM     17  C   UNL     1      -0.830  14.739  23.515  0.00  0.00    +0.000 C 
ENDBRANCH   7  16
BRANCH  12  18
ATOM     18  O   UNL     1      -6.276  15.800  20.421  0.00  0.00    +0.000 OA
ATOM     19  H   UNL     1      -7.098  16.323  20.389  0.00  0.00    +0.000 HD
ENDBRANCH  12  18
ENDBRANCH   1  11
BRANCH   6  20
ATOM     20  O   UNL     1      -5.201  12.163  18.144  0.00  0.00    +0.000 OA
BRANCH  20  21
ATOM     21  C   UNL     1      -4.121  11.462  17.646  0.00  0.00    +0.000 A 
ATOM     22  C   UNL     1      -4.222  10.985  16.338  0.00  0.00    +0.000 A 
ATOM     23  C   UNL     1      -3.153  10.297  15.753  0.00  0.00    +0.000 A 
ATOM     24  C   UNL     1      -1.979  10.085  16.477  0.00  0.00    +0.000 A 
ATOM     25  C   UNL     1      -1.856  10.571  17.786  0.00  0.00    +0.000 A 
ATOM     26  C   UNL     1      -2.927  11.283  18.352  0.00  0.00    +0.000 A 
BRANCH  25  27
ATOM     27  C   UNL     1      -0.615  10.328  18.605  0.00  0.00    +0.000 C 
ATOM     28  F   UNL     1       0.279   9.491  18.006  0.00  0.00    +0.000 F 
ATOM     29  F   UNL     1       0.073  11.475  18.866  0.00  0.00    +0.000 F 
ATOM     30  F   UNL     1      -0.886   9.771  19.819  0.00  0.00    +0.000 F 
ENDBRANCH  25  27
ENDBRANCH  20  21
ENDBRANCH   6  20
TORSDOF 6
ENDMDL
MODEL 6
REMARK VINA RESULT:      -6.9      5.201      7.253
REMARK  Name = 
REMARK  8 active torsions:
REMARK  status: ('A' for Active; 'I' for Inactive)
REMARK    1  A    between atoms: C_1  and  C_2
REMARK    2  A    between atoms: C_2  and  C_3
REMARK    3  A    between atoms: C_2  and  N_4
REMARK    4  A    between atoms: C_8  and  C_11
REMARK    5  A    between atoms: N_9  and  O_10
REMARK    6  A    between atoms: C_16  and  O_17
REMARK    7  A    between atoms: O_17  and  C_18
REMARK    8  A    between atoms: C_22  and  C_23
REMARK                            x       y       z     vdW  Elec       q    Type
REMARK                         _______ _______ _______ _____ _____    ______ ____
ROOT
ATOM      1  C   UNL     1      -0.037  10.808  20.340  0.00  0.00    +0.000 A 
ATOM      2  C   UNL     1      -0.608  11.084  21.596  0.00  0.00    +0.000 A 
ATOM      3  C   UNL     1      -0.353  10.260  22.686  0.00  0.00    +0.000 A 
ATOM      4  C   UNL     1       0.459   9.163  22.490  0.00  0.00    +0.000 A 
ATOM      5  N   UNL     1       1.024   8.858  21.306  0.00  0.00    +0.000 NA
ATOM      6  C   UNL     1       0.797   9.693  20.248  0.00  0.00    +0.000 A 
ENDROOT
BRANCH   1  11
ATOM      7  N   UNL     1       1.882  15.438  19.294  0.00  0.00    +0.000 NA
ATOM      8  C   UNL     1       0.531  15.296  19.871  0.00  0.00    +0.000 C 
ATOM      9  C   UNL     1      -0.386  14.224  19.230  0.00  0.00    +0.000 C 
ATOM     10  N   UNL     1       0.325  12.941  19.187  0.00  0.00    +0.000 N 
ATOM     11  C   UNL     1      -0.372  11.734  19.201  0.00  0.00    +0.000 C 
ATOM     12  N   UNL     1      -1.287  11.352  18.359  0.00  0.00    +0.000 NA
ATOM     13  C   UNL     1       1.595  13.021  18.455  0.00  0.00    +0.000 C 
ATOM     14  C   UNL     1       2.498  14.109  19.087  0.00  0.00    +0.000 C 
BRANCH   7  16
ATOM     15  C   UNL     1       1.369  17.738  18.294  0.00  0.00    +0.000 C 
ATOM     16  C   UNL     1       2.059  16.379  18.177  0.00  0.00    +0.000 C 
ATOM     17  C   UNL     1       3.545  16.589  17.848  0.00  0.00    +0.000 C 
ENDBRANCH   7  16
BRANCH  12  18
ATOM     18  O   UNL     1      -1.500  12.284  17.337  0.00  0.00    +0.000 OA
ATOM     19  H   UNL     1      -1.389  13.128  17.811  0.00  0.00    +0.000 HD
ENDBRANCH  12  18
ENDBRANCH   1  11
BRANCH   6  20
ATOM     20  O   UNL     1       1.438   9.406  19.048  0.00  0.00    +0.000 OA
BRANCH  20  21
ATOM     21  C   UNL     1       2.025   8.167  18.890  0.00  0.00    +0.000 A 
ATOM     22  C   UNL     1       2.995   8.047  17.893  0.00  0.00    +0.000 A 
ATOM     23  C   UNL     1       3.661   6.831  17.699  0.00  0.00    +0.000 A 
ATOM     24  C   UNL     1       3.356   5.732  18.503  0.00  0.00    +0.000 A 
ATOM     25  C   UNL     1       2.396   5.841  19.519  0.00  0.00    +0.000 A 
ATOM     26  C   UNL     1       1.754   7.075  19.720  0.00  0.00    +0.000 A 
BRANCH  25  27
ATOM     27  C   UNL     1       2.021   4.663  20.381  0.00  0.00    +0.000 C 
ATOM     28  F   UNL     1       2.437   4.777  21.674  0.00  0.00    +0.000 F 
ATOM     29  F   UNL     1       0.675   4.467  20.442  0.00  0.00    +0.000 F 
ATOM     30  F   UNL     1       2.548   3.491  19.926  0.00  0.00    +0.000 F 
ENDBRANCH  25  27
ENDBRANCH  20  21
ENDBRANCH   6  20
TORSDOF 6
ENDMDL
MODEL 7
REMARK VINA RESULT:      -6.9      3.229      4.725
REMARK  Name = 
REMARK  8 active torsions:
REMARK  status: ('A' for Active; 'I' for Inactive)
REMARK    1  A    between atoms: C_1  and  C_2
REMARK    2  A    between atoms: C_2  and  C_3
REMARK    3  A    between atoms: C_2  and  N_4
REMARK    4  A    between atoms: C_8  and  C_11
REMARK    5  A    between atoms: N_9  and  O_10
REMARK    6  A    between atoms: C_16  and  O_17
REMARK    7  A    between atoms: O_17  and  C_18
REMARK    8  A    between atoms: C_22  and  C_23
REMARK                            x       y       z     vdW  Elec       q    Type
REMARK                         _______ _______ _______ _____ _____    ______ ____
ROOT
ATOM      1  C   UNL     1      -6.395  12.292  19.936  0.00  0.00    +0.000 A 
ATOM      2  C   UNL     1      -7.237  11.718  20.905  0.00  0.00    +0.000 A 
ATOM      3  C   UNL     1      -7.680  10.407  20.772  0.00  0.00    +0.000 A 
ATOM      4  C   UNL     1      -7.280   9.701  19.657  0.00  0.00    +0.000 A 
ATOM      5  N   UNL     1      -6.478  10.210  18.702  0.00  0.00    +0.000 NA
ATOM      6  C   UNL     1      -6.018  11.488  18.859  0.00  0.00    +0.000 A 
ENDROOT
BRANCH   1  11
ATOM      7  N   UNL     1      -4.327  14.477  24.078  0.00  0.00    +0.000 NA
ATOM      8  C   UNL     1      -5.742  14.711  23.731  0.00  0.00    +0.000 C 
ATOM      9  C   UNL     1      -6.045  15.041  22.248  0.00  0.00    +0.000 C 
ATOM     10  N   UNL     1      -5.437  14.017  21.390  0.00  0.00    +0.000 N 
ATOM     11  C   UNL     1      -5.970  13.722  20.136  0.00  0.00    +0.000 C 
ATOM     12  N   UNL     1      -6.160  14.554  19.155  0.00  0.00    +0.000 NA
ATOM     13  C   UNL     1      -3.988  13.896  21.594  0.00  0.00    +0.000 C 
ATOM     14  C   UNL     1      -3.690  13.588  23.081  0.00  0.00    +0.000 C 
BRANCH   7  16
ATOM     15  C   UNL     1      -4.262  16.877  24.968  0.00  0.00    +0.000 C 
ATOM     16  C   UNL     1      -3.515  15.637  24.477  0.00  0.00    +0.000 C 
ATOM     17  C   UNL     1      -2.444  15.246  25.508  0.00  0.00    +0.000 C 
ENDBRANCH   7  16
BRANCH  12  18
ATOM     18  O   UNL     1      -5.712  15.846  19.450  0.00  0.00    +0.000 OA
ATOM     19  H   UNL     1      -5.029  15.671  20.123  0.00  0.00    +0.000 HD
ENDBRANCH  12  18
ENDBRANCH   1  11
BRANCH   6  20
ATOM     20  O   UNL     1      -5.138  11.980  17.902  0.00  0.00    +0.000 OA
BRANCH  20  21
ATOM     21  C   UNL     1      -3.965  11.293  17.665  0.00  0.00    +0.000 A 
ATOM     22  C   UNL     1      -3.852  10.633  16.439  0.00  0.00    +0.000 A 
ATOM     23  C   UNL     1      -2.678   9.947  16.112  0.00  0.00    +0.000 A 
ATOM     24  C   UNL     1      -1.612   9.919  17.012  0.00  0.00    +0.000 A 
ATOM     25  C   UNL     1      -1.703  10.589  18.241  0.00  0.00    +0.000 A 
ATOM     26  C   UNL     1      -2.878  11.296  18.544  0.00  0.00    +0.000 A 
BRANCH  25  27
ATOM     27  C   UNL     1      -0.582  10.548  19.247  0.00  0.00    +0.000 C 
ATOM     28  F   UNL     1      -0.443  11.703  19.958  0.00  0.00    +0.000 F 
ATOM     29  F   UNL     1      -0.746   9.563  20.173  0.00  0.00    +0.000 F 
ATOM     30  F   UNL     1       0.632  10.320  18.672  0.00  0.00    +0.000 F 
ENDBRANCH  25  27
ENDBRANCH  20  21
ENDBRANCH   6  20
TORSDOF 6
ENDMDL
MODEL 8
REMARK VINA RESULT:      -6.9      4.209      5.733
REMARK  Name = 
REMARK  8 active torsions:
REMARK  status: ('A' for Active; 'I' for Inactive)
REMARK    1  A    between atoms: C_1  and  C_2
REMARK    2  A    between atoms: C_2  and  C_3
REMARK    3  A    between atoms: C_2  and  N_4
REMARK    4  A    between atoms: C_8  and  C_11
REMARK    5  A    between atoms: N_9  and  O_10
REMARK    6  A    between atoms: C_16  and  O_17
REMARK    7  A    between atoms: O_17  and  C_18
REMARK    8  A    between atoms: C_22  and  C_23
REMARK                            x       y       z     vdW  Elec       q    Type
REMARK                         _______ _______ _______ _____ _____    ______ ____
ROOT
ATOM      1  C   UNL     1      -1.674  11.922  18.625  0.00  0.00    +0.000 A 
ATOM      2  C   UNL     1      -3.077  11.879  18.521  0.00  0.00    +0.000 A 
ATOM      3  C   UNL     1      -3.712  10.778  17.958  0.00  0.00    +0.000 A 
ATOM      4  C   UNL     1      -2.923   9.746  17.494  0.00  0.00    +0.000 A 
ATOM      5  N   UNL     1      -1.579   9.745  17.569  0.00  0.00    +0.000 NA
ATOM      6  C   UNL     1      -0.964  10.816  18.157  0.00  0.00    +0.000 A 
ENDROOT
BRANCH   1  11
ATOM      7  N   UNL     1      -2.150  13.751  23.383  0.00  0.00    +0.000 NA
ATOM      8  C   UNL     1      -2.860  14.389  22.256  0.00  0.00    +0.000 C 
ATOM      9  C   UNL     1      -2.034  14.640  20.971  0.00  0.00    +0.000 C 
ATOM     10  N   UNL     1      -1.378  13.392  20.564  0.00  0.00    +0.000 N 
ATOM     11  C   UNL     1      -1.055  13.154  19.229  0.00  0.00    +0.000 C 
ATOM     12  N   UNL     1      -0.309  13.895  18.464  0.00  0.00    +0.000 NA
ATOM     13  C   UNL     1      -0.518  12.836  21.615  0.00  0.00    +0.000 C 
ATOM     14  C   UNL     1      -1.344  12.606  22.904  0.00  0.00    +0.000 C 
BRANCH   7  16
ATOM     15  C   UNL     1      -0.701  15.824  23.785  0.00  0.00    +0.000 C 
ATOM     16  C   UNL     1      -1.465  14.626  24.348  0.00  0.00    +0.000 C 
ATOM     17  C   UNL     1      -2.423  15.105  25.450  0.00  0.00    +0.000 C 
ENDBRANCH   7  16
BRANCH  12  18
ATOM     18  O   UNL     1       0.223  14.999  19.137  0.00  0.00    +0.000 OA
ATOM     19  H   UNL     1       0.977  15.236  18.567  0.00  0.00    +0.000 HD
ENDBRANCH  12  18
ENDBRANCH   1  11
BRANCH   6  20
ATOM     20  O   UNL     1       0.419  10.775  18.289  0.00  0.00    +0.000 OA
BRANCH  20  21
ATOM     21  C   UNL     1       0.996   9.671  18.883  0.00  0.00    +0.000 A 
ATOM     22  C   UNL     1       0.708   9.453  20.232  0.00  0.00    +0.000 A 
ATOM     23  C   UNL     1       1.227   8.334  20.893  0.00  0.00    +0.000 A 
ATOM     24  C   UNL     1       2.035   7.428  20.204  0.00  0.00    +0.000 A 
ATOM     25  C   UNL     1       2.321   7.624  18.845  0.00  0.00    +0.000 A 
ATOM     26  C   UNL     1       1.772   8.738  18.188  0.00  0.00    +0.000 A 
BRANCH  25  27
ATOM     27  C   UNL     1       3.218   6.683  18.084  0.00  0.00    +0.000 C 
ATOM     28  F   UNL     1       3.853   7.267  17.029  0.00  0.00    +0.000 F 
ATOM     29  F   UNL     1       4.204   6.155  18.862  0.00  0.00    +0.000 F 
ATOM     30  F   UNL     1       2.543   5.618  17.565  0.00  0.00    +0.000 F 
ENDBRANCH  25  27
ENDBRANCH  20  21
ENDBRANCH   6  20
TORSDOF 6
ENDMDL
MODEL 9
REMARK VINA RESULT:      -6.8      3.434      6.503
REMARK  Name = 
REMARK  8 active torsions:
REMARK  status: ('A' for Active; 'I' for Inactive)
REMARK    1  A    between atoms: C_1  and  C_2
REMARK    2  A    between atoms: C_2  and  C_3
REMARK    3  A    between atoms: C_2  and  N_4
REMARK    4  A    between atoms: C_8  and  C_11
REMARK    5  A    between atoms: N_9  and  O_10
REMARK    6  A    between atoms: C_16  and  O_17
REMARK    7  A    between atoms: O_17  and  C_18
REMARK    8  A    between atoms: C_22  and  C_23
REMARK                            x       y       z     vdW  Elec       q    Type
REMARK                         _______ _______ _______ _____ _____    ______ ____
ROOT
ATOM      1  C   UNL     1      -0.366  11.195  20.705  0.00  0.00    +0.000 A 
ATOM      2  C   UNL     1      -0.342   9.805  20.494  0.00  0.00    +0.000 A 
ATOM      3  C   UNL     1      -0.302   8.926  21.569  0.00  0.00    +0.000 A 
ATOM      4  C   UNL     1      -0.271   9.462  22.840  0.00  0.00    +0.000 A 
ATOM      5  N   UNL     1      -0.290  10.785  23.090  0.00  0.00    +0.000 NA
ATOM      6  C   UNL     1      -0.365  11.642  22.027  0.00  0.00    +0.000 A 
ENDROOT
BRANCH   1  11
ATOM      7  N   UNL     1       2.461  15.348  19.715  0.00  0.00    +0.000 NA
ATOM      8  C   UNL     1       1.045  15.478  20.115  0.00  0.00    +0.000 C 
ATOM      9  C   UNL     1       0.037  14.539  19.408  0.00  0.00    +0.000 C 
ATOM     10  N   UNL     1       0.507  13.153  19.516  0.00  0.00    +0.000 N 
ATOM     11  C   UNL     1      -0.390  12.087  19.492  0.00  0.00    +0.000 C 
ATOM     12  N   UNL     1      -1.249  11.812  18.555  0.00  0.00    +0.000 NA
ATOM     13  C   UNL     1       1.851  12.966  18.953  0.00  0.00    +0.000 C 
ATOM     14  C   UNL     1       2.850  13.922  19.649  0.00  0.00    +0.000 C 
BRANCH   7  16
ATOM     15  C   UNL     1       3.569  15.436  17.408  0.00  0.00    +0.000 C 
ATOM     16  C   UNL     1       2.936  16.169  18.591  0.00  0.00    +0.000 C 
ATOM     17  C   UNL     1       1.835  17.109  18.076  0.00  0.00    +0.000 C 
ENDBRANCH   7  16
BRANCH  12  18
ATOM     18  O   UNL     1      -1.167  12.696  17.474  0.00  0.00    +0.000 OA
ATOM     19  H   UNL     1      -1.201  12.087  16.715  0.00  0.00    +0.000 HD
ENDBRANCH  12  18
ENDBRANCH   1  11
BRANCH   6  20
ATOM     20  O   UNL     1      -0.451  13.002  22.298  0.00  0.00    +0.000 OA
BRANCH  20  21
ATOM     21  C   UNL     1      -1.526  13.466  23.029  0.00  0.00    +0.000 A 
ATOM     22  C   UNL     1      -1.259  14.412  24.021  0.00  0.00    +0.000 A 
ATOM     23  C   UNL     1      -2.303  14.956  24.777  0.00  0.00    +0.000 A 
ATOM     24  C   UNL     1      -3.619  14.554  24.542  0.00  0.00    +0.000 A 
ATOM     25  C   UNL     1      -3.906  13.617  23.539  0.00  0.00    +0.000 A 
ATOM     26  C   UNL     1      -2.850  13.099  22.769  0.00  0.00    +0.000 A 
BRANCH  25  27
ATOM     27  C   UNL     1      -5.311  13.138  23.285  0.00  0.00    +0.000 C 
ATOM     28  F   UNL     1      -5.805  12.341  24.274  0.00  0.00    +0.000 F 
ATOM     29  F   UNL     1      -6.199  14.164  23.161  0.00  0.00    +0.000 F 
ATOM     30  F   UNL     1      -5.420  12.412  22.137  0.00  0.00    +0.000 F 
ENDBRANCH  25  27
ENDBRANCH  20  21
ENDBRANCH   6  20
TORSDOF 6
ENDMDL
