MODEL 1
REMARK VINA RESULT:      -7.6      0.000      0.000
REMARK  Name = 
REMARK  5 active torsions:
REMARK  status: ('A' for Active; 'I' for Inactive)
REMARK    1  A    between atoms: C_1  and  O_2
REMARK    2  A    between atoms: O_2  and  C_3
REMARK    3  A    between atoms: C_7  and  C_8
REMARK    4  A    between atoms: C_14  and  C_16
REMARK    5  A    between atoms: C_16  and  C_17
REMARK                            x       y       z     vdW  Elec       q    Type
REMARK                         _______ _______ _______ _____ _____    ______ ____
ROOT
ATOM      1  C   UNL     1       3.890   4.667  18.888  0.00  0.00    +0.000 C 
ATOM      2  O   UNL     1       4.027   3.729  19.667  0.00  0.00    +0.000 OA
ATOM      3  N   UNL     1       2.907   5.646  19.044  0.00  0.00    +0.000 N 
ATOM      4  C   UNL     1       2.108   5.682  20.278  0.00  0.00    +0.000 C 
ATOM      5  C   UNL     1       1.989   7.120  20.831  0.00  0.00    +0.000 C 
ATOM      6  N   UNL     1       1.644   8.104  19.784  0.00  0.00    +0.000 N 
ATOM      7  C   UNL     1       0.704   9.091  20.045  0.00  0.00    +0.000 C 
ATOM      8  O   UNL     1       0.112   9.161  21.120  0.00  0.00    +0.000 OA
ATOM      9  C   UNL     1       2.471   8.015  18.573  0.00  0.00    +0.000 C 
ATOM     10  C   UNL     1       2.429   6.585  18.019  0.00  0.00    +0.000 C 
ENDROOT
BRANCH   1  15
ATOM     11  C   UNL     1       6.731   5.850  16.679  0.00  0.00    +0.000 A 
ATOM     12  C   UNL     1       6.539   5.056  15.549  0.00  0.00    +0.000 A 
ATOM     13  C   UNL     1       5.535   4.083  15.528  0.00  0.00    +0.000 A 
ATOM     14  C   UNL     1       4.672   3.947  16.620  0.00  0.00    +0.000 A 
ATOM     15  C   UNL     1       4.841   4.764  17.741  0.00  0.00    +0.000 A 
ATOM     16  C   UNL     1       5.932   5.638  17.799  0.00  0.00    +0.000 A 
BRANCH  11  18
ATOM     17  C   UNL     1       7.664   7.855  17.541  0.00  0.00    +0.000 C 
ATOM     18  O   UNL     1       7.706   6.805  16.578  0.00  0.00    +0.000 OA
ENDBRANCH  11  18
ENDBRANCH   1  15
BRANCH   7  19
ATOM     19  C   UNL     1       0.405  10.080  18.919  0.00  0.00    +0.000 C 
BRANCH  19  20
ATOM     20  C   UNL     1      -1.082  10.424  18.760  0.00  0.00    +0.000 C 
ATOM     21  C   UNL     1      -1.294  11.941  18.607  0.00  0.00    +0.000 C 
ATOM     22  C   UNL     1      -2.794  12.113  18.402  0.00  0.00    +0.000 C 
ATOM     23  S   UNL     1      -3.226  10.823  17.246  0.00  0.00    +0.000 S 
ATOM     24  O   UNL     1      -3.152  11.372  15.908  0.00  0.00    +0.000 OA
ATOM     25  O   UNL     1      -4.403  10.140  17.739  0.00  0.00    +0.000 OA
ATOM     26  C   UNL     1      -1.772   9.807  17.532  0.00  0.00    +0.000 C 
ENDBRANCH  19  20
ENDBRANCH   7  19
TORSDOF 4
ENDMDL
MODEL 2
REMARK VINA RESULT:      -7.3      1.567      1.720
REMARK  Name = 
REMARK  5 active torsions:
REMARK  status: ('A' for Active; 'I' for Inactive)
REMARK    1  A    between atoms: C_1  and  O_2
REMARK    2  A    between atoms: O_2  and  C_3
REMARK    3  A    between atoms: C_7  and  C_8
REMARK    4  A    between atoms: C_14  and  C_16
REMARK    5  A    between atoms: C_16  and  C_17
REMARK                            x       y       z     vdW  Elec       q    Type
REMARK                         _______ _______ _______ _____ _____    ______ ____
ROOT
ATOM      1  C   UNL     1       3.390   3.677  18.329  0.00  0.00    +0.000 C 
ATOM      2  O   UNL     1       3.122   2.511  18.598  0.00  0.00    +0.000 OA
ATOM      3  N   UNL     1       2.610   4.753  18.759  0.00  0.00    +0.000 N 
ATOM      4  C   UNL     1       1.523   4.522  19.721  0.00  0.00    +0.000 C 
ATOM      5  C   UNL     1       1.535   5.580  20.849  0.00  0.00    +0.000 C 
ATOM      6  N   UNL     1       1.691   6.957  20.335  0.00  0.00    +0.000 N 
ATOM      7  C   UNL     1       0.924   7.984  20.866  0.00  0.00    +0.000 C 
ATOM      8  O   UNL     1       0.082   7.786  21.740  0.00  0.00    +0.000 OA
ATOM      9  C   UNL     1       2.787   7.123  19.372  0.00  0.00    +0.000 C 
ATOM     10  C   UNL     1       2.626   6.121  18.221  0.00  0.00    +0.000 C 
ENDROOT
BRANCH   1  15
ATOM     11  C   UNL     1       6.904   4.756  17.410  0.00  0.00    +0.000 A 
ATOM     12  C   UNL     1       6.884   4.577  16.027  0.00  0.00    +0.000 A 
ATOM     13  C   UNL     1       5.758   4.037  15.398  0.00  0.00    +0.000 A 
ATOM     14  C   UNL     1       4.618   3.734  16.146  0.00  0.00    +0.000 A 
ATOM     15  C   UNL     1       4.622   3.942  17.528  0.00  0.00    +0.000 A 
ATOM     16  C   UNL     1       5.800   4.357  18.159  0.00  0.00    +0.000 A 
BRANCH  11  18
ATOM     17  C   UNL     1       7.936   5.842  19.251  0.00  0.00    +0.000 C 
ATOM     18  O   UNL     1       8.031   5.338  17.921  0.00  0.00    +0.000 OA
ENDBRANCH  11  18
ENDBRANCH   1  15
BRANCH   7  19
ATOM     19  C   UNL     1       1.145   9.382  20.293  0.00  0.00    +0.000 C 
BRANCH  19  20
ATOM     20  C   UNL     1      -0.143  10.109  19.885  0.00  0.00    +0.000 C 
ATOM     21  C   UNL     1      -0.372  11.369  20.739  0.00  0.00    +0.000 C 
ATOM     22  C   UNL     1      -1.641  12.001  20.180  0.00  0.00    +0.000 C 
ATOM     23  S   UNL     1      -1.436  11.898  18.409  0.00  0.00    +0.000 S 
ATOM     24  O   UNL     1      -0.824  13.129  17.953  0.00  0.00    +0.000 OA
ATOM     25  O   UNL     1      -2.659  11.382  17.834  0.00  0.00    +0.000 OA
ATOM     26  C   UNL     1      -0.185  10.608  18.431  0.00  0.00    +0.000 C 
ENDBRANCH  19  20
ENDBRANCH   7  19
TORSDOF 4
ENDMDL
MODEL 3
REMARK VINA RESULT:      -7.3      2.682      8.439
REMARK  Name = 
REMARK  5 active torsions:
REMARK  status: ('A' for Active; 'I' for Inactive)
REMARK    1  A    between atoms: C_1  and  O_2
REMARK    2  A    between atoms: O_2  and  C_3
REMARK    3  A    between atoms: C_7  and  C_8
REMARK    4  A    between atoms: C_14  and  C_16
REMARK    5  A    between atoms: C_16  and  C_17
REMARK                            x       y       z     vdW  Elec       q    Type
REMARK                         _______ _______ _______ _____ _____    ______ ____
ROOT
ATOM      1  C   UNL     1       0.982   8.788  20.905  0.00  0.00    +0.000 C 
ATOM      2  O   UNL     1       0.779   8.888  22.110  0.00  0.00    +0.000 OA
ATOM      3  N   UNL     1       1.691   7.725  20.340  0.00  0.00    +0.000 N 
ATOM      4  C   UNL     1       2.062   6.575  21.177  0.00  0.00    +0.000 C 
ATOM      5  C   UNL     1       1.762   5.238  20.463  0.00  0.00    +0.000 C 
ATOM      6  N   UNL     1       2.233   5.224  19.062  0.00  0.00    +0.000 N 
ATOM      7  C   UNL     1       2.867   4.098  18.557  0.00  0.00    +0.000 C 
ATOM      8  O   UNL     1       3.087   3.105  19.249  0.00  0.00    +0.000 OA
ATOM      9  C   UNL     1       1.837   6.402  18.279  0.00  0.00    +0.000 C 
ATOM     10  C   UNL     1       2.287   7.680  18.998  0.00  0.00    +0.000 C 
ENDROOT
BRANCH   1  15
ATOM     11  C   UNL     1      -1.328  10.600  18.511  0.00  0.00    +0.000 A 
ATOM     12  C   UNL     1      -0.582  11.746  18.236  0.00  0.00    +0.000 A 
ATOM     13  C   UNL     1       0.638  11.970  18.882  0.00  0.00    +0.000 A 
ATOM     14  C   UNL     1       1.149  11.010  19.761  0.00  0.00    +0.000 A 
ATOM     15  C   UNL     1       0.419   9.846  20.014  0.00  0.00    +0.000 A 
ATOM     16  C   UNL     1      -0.859   9.699  19.463  0.00  0.00    +0.000 A 
BRANCH  11  18
ATOM     17  C   UNL     1      -2.512  11.080  16.511  0.00  0.00    +0.000 C 
ATOM     18  O   UNL     1      -2.481  10.451  17.789  0.00  0.00    +0.000 OA
ENDBRANCH  11  18
ENDBRANCH   1  15
BRANCH   7  19
ATOM     19  C   UNL     1       3.318   4.151  17.098  0.00  0.00    +0.000 C 
BRANCH  19  20
ATOM     20  C   UNL     1       4.834   4.014  16.900  0.00  0.00    +0.000 C 
ATOM     21  C   UNL     1       5.246   4.362  15.458  0.00  0.00    +0.000 C 
ATOM     22  C   UNL     1       6.764   4.237  15.439  0.00  0.00    +0.000 C 
ATOM     23  S   UNL     1       7.286   5.030  16.950  0.00  0.00    +0.000 S 
ATOM     24  O   UNL     1       7.567   6.421  16.657  0.00  0.00    +0.000 OA
ATOM     25  O   UNL     1       8.243   4.170  17.613  0.00  0.00    +0.000 OA
ATOM     26  C   UNL     1       5.699   4.927  17.785  0.00  0.00    +0.000 C 
ENDBRANCH  19  20
ENDBRANCH   7  19
TORSDOF 4
ENDMDL
MODEL 4
REMARK VINA RESULT:      -7.2      2.413      2.824
REMARK  Name = 
REMARK  5 active torsions:
REMARK  status: ('A' for Active; 'I' for Inactive)
REMARK    1  A    between atoms: C_1  and  O_2
REMARK    2  A    between atoms: O_2  and  C_3
REMARK    3  A    between atoms: C_7  and  C_8
REMARK    4  A    between atoms: C_14  and  C_16
REMARK    5  A    between atoms: C_16  and  C_17
REMARK                            x       y       z     vdW  Elec       q    Type
REMARK                         _______ _______ _______ _____ _____    ______ ____
ROOT
ATOM      1  C   UNL     1       3.815   4.360  18.625  0.00  0.00    +0.000 C 
ATOM      2  O   UNL     1       3.902   3.300  19.237  0.00  0.00    +0.000 OA
ATOM      3  N   UNL     1       2.876   5.344  18.943  0.00  0.00    +0.000 N 
ATOM      4  C   UNL     1       2.068   5.209  20.164  0.00  0.00    +0.000 C 
ATOM      5  C   UNL     1       2.009   6.538  20.951  0.00  0.00    +0.000 C 
ATOM      6  N   UNL     1       1.720   7.700  20.083  0.00  0.00    +0.000 N 
ATOM      7  C   UNL     1       0.823   8.671  20.505  0.00  0.00    +0.000 C 
ATOM      8  O   UNL     1       0.225   8.588  21.576  0.00  0.00    +0.000 OA
ATOM      9  C   UNL     1       2.553   7.776  18.876  0.00  0.00    +0.000 C 
ATOM     10  C   UNL     1       2.451   6.463  18.089  0.00  0.00    +0.000 C 
ENDROOT
BRANCH   1  15
ATOM     11  C   UNL     1       6.707   5.787  16.639  0.00  0.00    +0.000 A 
ATOM     12  C   UNL     1       6.506   5.178  15.400  0.00  0.00    +0.000 A 
ATOM     13  C   UNL     1       5.478   4.247  15.227  0.00  0.00    +0.000 A 
ATOM     14  C   UNL     1       4.601   3.971  16.279  0.00  0.00    +0.000 A 
ATOM     15  C   UNL     1       4.780   4.604  17.512  0.00  0.00    +0.000 A 
ATOM     16  C   UNL     1       5.892   5.430  17.709  0.00  0.00    +0.000 A 
BRANCH  11  18
ATOM     17  C   UNL     1       7.483   7.840  17.543  0.00  0.00    +0.000 C 
ATOM     18  O   UNL     1       7.707   6.720  16.690  0.00  0.00    +0.000 OA
ENDBRANCH  11  18
ENDBRANCH   1  15
BRANCH   7  19
ATOM     19  C   UNL     1       0.580   9.847  19.561  0.00  0.00    +0.000 C 
BRANCH  19  20
ATOM     20  C   UNL     1       1.133  11.187  20.066  0.00  0.00    +0.000 C 
ATOM     21  C   UNL     1       1.591  12.082  18.900  0.00  0.00    +0.000 C 
ATOM     22  C   UNL     1       2.052  13.378  19.553  0.00  0.00    +0.000 C 
ATOM     23  S   UNL     1       0.794  13.724  20.772  0.00  0.00    +0.000 S 
ATOM     24  O   UNL     1      -0.201  14.583  20.163  0.00  0.00    +0.000 OA
ATOM     25  O   UNL     1       1.445  14.057  22.021  0.00  0.00    +0.000 OA
ATOM     26  C   UNL     1       0.138  12.053  20.857  0.00  0.00    +0.000 C 
ENDBRANCH  19  20
ENDBRANCH   7  19
TORSDOF 4
ENDMDL
MODEL 5
REMARK VINA RESULT:      -7.2      2.243      2.922
REMARK  Name = 
REMARK  5 active torsions:
REMARK  status: ('A' for Active; 'I' for Inactive)
REMARK    1  A    between atoms: C_1  and  O_2
REMARK    2  A    between atoms: O_2  and  C_3
REMARK    3  A    between atoms: C_7  and  C_8
REMARK    4  A    between atoms: C_14  and  C_16
REMARK    5  A    between atoms: C_16  and  C_17
REMARK                            x       y       z     vdW  Elec       q    Type
REMARK                         _______ _______ _______ _____ _____    ______ ____
ROOT
ATOM      1  C   UNL     1       3.697   5.139  18.980  0.00  0.00    +0.000 C 
ATOM      2  O   UNL     1       3.824   4.261  19.827  0.00  0.00    +0.000 OA
ATOM      3  N   UNL     1       2.712   6.126  19.052  0.00  0.00    +0.000 N 
ATOM      4  C   UNL     1       1.898   6.252  20.270  0.00  0.00    +0.000 C 
ATOM      5  C   UNL     1       1.772   7.726  20.715  0.00  0.00    +0.000 C 
ATOM      6  N   UNL     1       1.441   8.632  19.594  0.00  0.00    +0.000 N 
ATOM      7  C   UNL     1       0.498   9.634  19.771  0.00  0.00    +0.000 C 
ATOM      8  O   UNL     1      -0.108   9.783  20.830  0.00  0.00    +0.000 OA
ATOM      9  C   UNL     1       2.283   8.454  18.404  0.00  0.00    +0.000 C 
ATOM     10  C   UNL     1       2.248   6.988  17.955  0.00  0.00    +0.000 C 
ENDROOT
BRANCH   1  15
ATOM     11  C   UNL     1       6.605   6.120  16.759  0.00  0.00    +0.000 A 
ATOM     12  C   UNL     1       6.392   5.289  15.659  0.00  0.00    +0.000 A 
ATOM     13  C   UNL     1       5.350   4.357  15.665  0.00  0.00    +0.000 A 
ATOM     14  C   UNL     1       4.471   4.299  16.751  0.00  0.00    +0.000 A 
ATOM     15  C   UNL     1       4.662   5.152  17.841  0.00  0.00    +0.000 A 
ATOM     16  C   UNL     1       5.787   5.984  17.877  0.00  0.00    +0.000 A 
BRANCH  11  18
ATOM     17  C   UNL     1       7.825   7.904  17.739  0.00  0.00    +0.000 C 
ATOM     18  O   UNL     1       7.618   7.030  16.632  0.00  0.00    +0.000 OA
ENDBRANCH  11  18
ENDBRANCH   1  15
BRANCH   7  19
ATOM     19  C   UNL     1       0.214  10.538  18.572  0.00  0.00    +0.000 C 
BRANCH  19  20
ATOM     20  C   UNL     1       0.536  12.019  18.808  0.00  0.00    +0.000 C 
ATOM     21  C   UNL     1      -0.671  12.770  19.400  0.00  0.00    +0.000 C 
ATOM     22  C   UNL     1      -0.180  14.193  19.628  0.00  0.00    +0.000 C 
ATOM     23  S   UNL     1       1.442  13.985  20.346  0.00  0.00    +0.000 S 
ATOM     24  O   UNL     1       1.300  13.984  21.788  0.00  0.00    +0.000 OA
ATOM     25  O   UNL     1       2.364  14.864  19.659  0.00  0.00    +0.000 OA
ATOM     26  C   UNL     1       1.687  12.294  19.790  0.00  0.00    +0.000 C 
ENDBRANCH  19  20
ENDBRANCH   7  19
TORSDOF 4
ENDMDL
MODEL 6
REMARK VINA RESULT:      -7.2      1.122      1.738
REMARK  Name = 
REMARK  5 active torsions:
REMARK  status: ('A' for Active; 'I' for Inactive)
REMARK    1  A    between atoms: C_1  and  O_2
REMARK    2  A    between atoms: O_2  and  C_3
REMARK    3  A    between atoms: C_7  and  C_8
REMARK    4  A    between atoms: C_14  and  C_16
REMARK    5  A    between atoms: C_16  and  C_17
REMARK                            x       y       z     vdW  Elec       q    Type
REMARK                         _______ _______ _______ _____ _____    ______ ____
ROOT
ATOM      1  C   UNL     1       3.875   4.313  18.947  0.00  0.00    +0.000 C 
ATOM      2  O   UNL     1       3.859   3.288  19.621  0.00  0.00    +0.000 OA
ATOM      3  N   UNL     1       2.931   5.332  19.093  0.00  0.00    +0.000 N 
ATOM      4  C   UNL     1       1.979   5.284  20.212  0.00  0.00    +0.000 C 
ATOM      5  C   UNL     1       1.861   6.657  20.912  0.00  0.00    +0.000 C 
ATOM      6  N   UNL     1       1.710   7.772  19.954  0.00  0.00    +0.000 N 
ATOM      7  C   UNL     1       0.796   8.784  20.210  0.00  0.00    +0.000 C 
ATOM      8  O   UNL     1       0.070   8.774  21.202  0.00  0.00    +0.000 OA
ATOM      9  C   UNL     1       2.684   7.762  18.855  0.00  0.00    +0.000 C 
ATOM     10  C   UNL     1       2.643   6.408  18.135  0.00  0.00    +0.000 C 
ENDROOT
BRANCH   1  15
ATOM     11  C   UNL     1       5.855   4.058  15.728  0.00  0.00    +0.000 A 
ATOM     12  C   UNL     1       7.065   4.635  16.113  0.00  0.00    +0.000 A 
ATOM     13  C   UNL     1       7.217   5.176  17.393  0.00  0.00    +0.000 A 
ATOM     14  C   UNL     1       6.175   5.080  18.320  0.00  0.00    +0.000 A 
ATOM     15  C   UNL     1       4.973   4.472  17.948  0.00  0.00    +0.000 A 
ATOM     16  C   UNL     1       4.790   4.057  16.624  0.00  0.00    +0.000 A 
BRANCH  11  18
ATOM     17  C   UNL     1       6.638   4.149  13.489  0.00  0.00    +0.000 C 
ATOM     18  O   UNL     1       5.826   3.513  14.473  0.00  0.00    +0.000 OA
ENDBRANCH  11  18
ENDBRANCH   1  15
BRANCH   7  19
ATOM     19  C   UNL     1       0.701   9.909  19.180  0.00  0.00    +0.000 C 
BRANCH  19  20
ATOM     20  C   UNL     1      -0.732  10.365  18.875  0.00  0.00    +0.000 C 
ATOM     21  C   UNL     1      -0.783  11.867  18.537  0.00  0.00    +0.000 C 
ATOM     22  C   UNL     1      -2.244  12.148  18.206  0.00  0.00    +0.000 C 
ATOM     23  S   UNL     1      -2.730  10.775  17.175  0.00  0.00    +0.000 S 
ATOM     24  O   UNL     1      -2.519  11.151  15.792  0.00  0.00    +0.000 OA
ATOM     25  O   UNL     1      -3.997  10.266  17.655  0.00  0.00    +0.000 OA
ATOM     26  C   UNL     1      -1.404   9.672  17.679  0.00  0.00    +0.000 C 
ENDBRANCH  19  20
ENDBRANCH   7  19
TORSDOF 4
ENDMDL
MODEL 7
REMARK VINA RESULT:      -7.2      3.078      8.325
REMARK  Name = 
REMARK  5 active torsions:
REMARK  status: ('A' for Active; 'I' for Inactive)
REMARK    1  A    between atoms: C_1  and  O_2
REMARK    2  A    between atoms: O_2  and  C_3
REMARK    3  A    between atoms: C_7  and  C_8
REMARK    4  A    between atoms: C_14  and  C_16
REMARK    5  A    between atoms: C_16  and  C_17
REMARK                            x       y       z     vdW  Elec       q    Type
REMARK                         _______ _______ _______ _____ _____    ______ ____
ROOT
ATOM      1  C   UNL     1       0.972   9.073  20.724  0.00  0.00    +0.000 C 
ATOM      2  O   UNL     1       0.770   9.232  21.923  0.00  0.00    +0.000 OA
ATOM      3  N   UNL     1       1.679   7.983  20.211  0.00  0.00    +0.000 N 
ATOM      4  C   UNL     1       2.050   6.875  21.102  0.00  0.00    +0.000 C 
ATOM      5  C   UNL     1       1.749   5.505  20.455  0.00  0.00    +0.000 C 
ATOM      6  N   UNL     1       2.217   5.422  19.055  0.00  0.00    +0.000 N 
ATOM      7  C   UNL     1       2.851   4.273  18.605  0.00  0.00    +0.000 C 
ATOM      8  O   UNL     1       3.071   3.315  19.345  0.00  0.00    +0.000 OA
ATOM      9  C   UNL     1       1.822   6.561  18.216  0.00  0.00    +0.000 C 
ATOM     10  C   UNL     1       2.274   7.872  18.871  0.00  0.00    +0.000 C 
ENDROOT
BRANCH   1  15
ATOM     11  C   UNL     1       0.534  12.277  18.750  0.00  0.00    +0.000 A 
ATOM     12  C   UNL     1      -0.699  12.048  18.140  0.00  0.00    +0.000 A 
ATOM     13  C   UNL     1      -1.356  10.825  18.306  0.00  0.00    +0.000 A 
ATOM     14  C   UNL     1      -0.810   9.847  19.143  0.00  0.00    +0.000 A 
ATOM     15  C   UNL     1       0.409  10.086  19.783  0.00  0.00    +0.000 A 
ATOM     16  C   UNL     1       1.117  11.260  19.500  0.00  0.00    +0.000 A 
BRANCH  11  18
ATOM     17  C   UNL     1       0.363  14.608  19.162  0.00  0.00    +0.000 C 
ATOM     18  O   UNL     1       1.069  13.523  18.566  0.00  0.00    +0.000 OA
ENDBRANCH  11  18
ENDBRANCH   1  15
BRANCH   7  19
ATOM     19  C   UNL     1       3.299   4.254  17.145  0.00  0.00    +0.000 C 
BRANCH  19  20
ATOM     20  C   UNL     1       4.811   4.076  16.951  0.00  0.00    +0.000 C 
ATOM     21  C   UNL     1       5.228   4.356  15.496  0.00  0.00    +0.000 C 
ATOM     22  C   UNL     1       6.743   4.197  15.480  0.00  0.00    +0.000 C 
ATOM     23  S   UNL     1       7.285   5.039  16.958  0.00  0.00    +0.000 S 
ATOM     24  O   UNL     1       7.596   6.410  16.608  0.00  0.00    +0.000 OA
ATOM     25  O   UNL     1       8.224   4.185  17.655  0.00  0.00    +0.000 OA
ATOM     26  C   UNL     1       5.697   5.005  17.798  0.00  0.00    +0.000 C 
ENDBRANCH  19  20
ENDBRANCH   7  19
TORSDOF 4
ENDMDL
MODEL 8
REMARK VINA RESULT:      -7.2      1.739      2.389
REMARK  Name = 
REMARK  5 active torsions:
REMARK  status: ('A' for Active; 'I' for Inactive)
REMARK    1  A    between atoms: C_1  and  O_2
REMARK    2  A    between atoms: O_2  and  C_3
REMARK    3  A    between atoms: C_7  and  C_8
REMARK    4  A    between atoms: C_14  and  C_16
REMARK    5  A    between atoms: C_16  and  C_17
REMARK                            x       y       z     vdW  Elec       q    Type
REMARK                         _______ _______ _______ _____ _____    ______ ____
ROOT
ATOM      1  C   UNL     1       3.749   3.818  17.963  0.00  0.00    +0.000 C 
ATOM      2  O   UNL     1       3.498   2.626  18.109  0.00  0.00    +0.000 OA
ATOM      3  N   UNL     1       2.919   4.832  18.446  0.00  0.00    +0.000 N 
ATOM      4  C   UNL     1       1.792   4.490  19.325  0.00  0.00    +0.000 C 
ATOM      5  C   UNL     1       1.718   5.439  20.543  0.00  0.00    +0.000 C 
ATOM      6  N   UNL     1       1.863   6.861  20.165  0.00  0.00    +0.000 N 
ATOM      7  C   UNL     1       1.044   7.817  20.746  0.00  0.00    +0.000 C 
ATOM      8  O   UNL     1       0.164   7.522  21.553  0.00  0.00    +0.000 OA
ATOM      9  C   UNL     1       3.003   7.138  19.281  0.00  0.00    +0.000 C 
ATOM     10  C   UNL     1       2.927   6.244  18.037  0.00  0.00    +0.000 C 
ENDROOT
BRANCH   1  15
ATOM     11  C   UNL     1       6.259   4.411  15.188  0.00  0.00    +0.000 A 
ATOM     12  C   UNL     1       7.402   4.722  15.925  0.00  0.00    +0.000 A 
ATOM     13  C   UNL     1       7.344   4.813  17.319  0.00  0.00    +0.000 A 
ATOM     14  C   UNL     1       6.151   4.526  17.988  0.00  0.00    +0.000 A 
ATOM     15  C   UNL     1       5.012   4.182  17.255  0.00  0.00    +0.000 A 
ATOM     16  C   UNL     1       5.052   4.226  15.857  0.00  0.00    +0.000 A 
BRANCH  11  18
ATOM     17  C   UNL     1       5.401   3.621  13.121  0.00  0.00    +0.000 C 
ATOM     18  O   UNL     1       6.433   4.296  13.836  0.00  0.00    +0.000 OA
ENDBRANCH  11  18
ENDBRANCH   1  15
BRANCH   7  19
ATOM     19  C   UNL     1       1.257   9.268  20.316  0.00  0.00    +0.000 C 
BRANCH  19  20
ATOM     20  C   UNL     1      -0.033  10.014  19.949  0.00  0.00    +0.000 C 
ATOM     21  C   UNL     1      -0.206  11.287  20.798  0.00  0.00    +0.000 C 
ATOM     22  C   UNL     1      -1.483  11.936  20.281  0.00  0.00    +0.000 C 
ATOM     23  S   UNL     1      -1.348  11.812  18.505  0.00  0.00    +0.000 S 
ATOM     24  O   UNL     1      -0.732  13.027  18.013  0.00  0.00    +0.000 OA
ATOM     25  O   UNL     1      -2.602  11.313  17.983  0.00  0.00    +0.000 OA
ATOM     26  C   UNL     1      -0.121  10.499  18.493  0.00  0.00    +0.000 C 
ENDBRANCH  19  20
ENDBRANCH   7  19
TORSDOF 4
ENDMDL
MODEL 9
REMARK VINA RESULT:      -7.1      2.354      2.646
REMARK  Name = 
REMARK  5 active torsions:
REMARK  status: ('A' for Active; 'I' for Inactive)
REMARK    1  A    between atoms: C_1  and  O_2
REMARK    2  A    between atoms: O_2  and  C_3
REMARK    3  A    between atoms: C_7  and  C_8
REMARK    4  A    between atoms: C_14  and  C_16
REMARK    5  A    between atoms: C_16  and  C_17
REMARK                            x       y       z     vdW  Elec       q    Type
REMARK                         _______ _______ _______ _____ _____    ______ ____
ROOT
ATOM      1  C   UNL     1       3.908   3.929  18.024  0.00  0.00    +0.000 C 
ATOM      2  O   UNL     1       3.879   2.775  18.440  0.00  0.00    +0.000 OA
ATOM      3  N   UNL     1       3.022   4.915  18.463  0.00  0.00    +0.000 N 
ATOM      4  C   UNL     1       2.130   4.636  19.598  0.00  0.00    +0.000 C 
ATOM      5  C   UNL     1       2.114   5.808  20.605  0.00  0.00    +0.000 C 
ATOM      6  N   UNL     1       1.964   7.122  19.945  0.00  0.00    +0.000 N 
ATOM      7  C   UNL     1       1.114   8.075  20.487  0.00  0.00    +0.000 C 
ATOM      8  O   UNL     1       0.443   7.855  21.494  0.00  0.00    +0.000 OA
ATOM      9  C   UNL     1       2.877   7.339  18.815  0.00  0.00    +0.000 C 
ATOM     10  C   UNL     1       2.733   6.196  17.803  0.00  0.00    +0.000 C 
ENDROOT
BRANCH   1  15
ATOM     11  C   UNL     1       6.830   5.675  16.362  0.00  0.00    +0.000 A 
ATOM     12  C   UNL     1       6.834   5.056  15.112  0.00  0.00    +0.000 A 
ATOM     13  C   UNL     1       5.939   4.020  14.831  0.00  0.00    +0.000 A 
ATOM     14  C   UNL     1       4.986   3.643  15.781  0.00  0.00    +0.000 A 
ATOM     15  C   UNL     1       4.957   4.283  17.023  0.00  0.00    +0.000 A 
ATOM     16  C   UNL     1       5.945   5.223  17.337  0.00  0.00    +0.000 A 
BRANCH  11  18
ATOM     17  C   UNL     1       7.451   7.603  17.599  0.00  0.00    +0.000 C 
ATOM     18  O   UNL     1       7.711   6.710  16.519  0.00  0.00    +0.000 OA
ENDBRANCH  11  18
ENDBRANCH   1  15
BRANCH   7  19
ATOM     19  C   UNL     1       1.016   9.413  19.757  0.00  0.00    +0.000 C 
BRANCH  19  20
ATOM     20  C   UNL     1       0.843  10.625  20.682  0.00  0.00    +0.000 C 
ATOM     21  C   UNL     1       1.263  11.931  19.981  0.00  0.00    +0.000 C 
ATOM     22  C   UNL     1       0.981  13.032  20.995  0.00  0.00    +0.000 C 
ATOM     23  S   UNL     1      -0.621  12.611  21.662  0.00  0.00    +0.000 S 
ATOM     24  O   UNL     1      -1.630  13.302  20.885  0.00  0.00    +0.000 OA
ATOM     25  O   UNL     1      -0.557  12.705  23.105  0.00  0.00    +0.000 OA
ATOM     26  C   UNL     1      -0.593  10.885  21.165  0.00  0.00    +0.000 C 
ENDBRANCH  19  20
ENDBRANCH   7  19
TORSDOF 4
ENDMDL
