MODEL 1
REMARK VINA RESULT:     -10.1      0.000      0.000
REMARK  Name = 
REMARK  4 active torsions:
REMARK  status: ('A' for Active; 'I' for Inactive)
REMARK    1  A    between atoms: C_2  and  C_12
REMARK    2  A    between atoms: N_3  and  C_4
REMARK    3  A    between atoms: C_4  and  C_5
REMARK    4  A    between atoms: C_5  and  N_6
REMARK                            x       y       z     vdW  Elec       q    Type
REMARK                         _______ _______ _______ _____ _____    ______ ____
ROOT
ATOM      1  C   UNL     1       6.395   5.685  17.868  0.00  0.00    +0.000 A 
ATOM      2  C   UNL     1       5.382   5.435  18.812  0.00  0.00    +0.000 A 
ATOM      3  C   UNL     1       4.270   4.660  18.464  0.00  0.00    +0.000 A 
ATOM      4  C   UNL     1       3.096   4.265  19.176  0.00  0.00    +0.000 A 
ATOM      5  C   UNL     1       2.631   4.488  20.487  0.00  0.00    +0.000 A 
ATOM      6  C   UNL     1       1.398   3.959  20.878  0.00  0.00    +0.000 A 
ATOM      7  C   UNL     1       0.630   3.220  19.980  0.00  0.00    +0.000 A 
ATOM      8  C   UNL     1       1.070   2.987  18.673  0.00  0.00    +0.000 A 
ATOM      9  C   UNL     1       2.310   3.521  18.300  0.00  0.00    +0.000 A 
ATOM     10  N   UNL     1       2.989   3.464  17.108  0.00  0.00    +0.000 N 
ATOM     11  C   UNL     1       4.185   4.147  17.168  0.00  0.00    +0.000 A 
ATOM     12  C   UNL     1       5.200   4.367  16.195  0.00  0.00    +0.000 A 
ATOM     13  C   UNL     1       5.081   3.829  14.894  0.00  0.00    +0.000 A 
ATOM     14  C   UNL     1       6.093   4.054  13.951  0.00  0.00    +0.000 A 
ATOM     15 BR   UNL     1       5.928   3.341  12.212  0.00  0.00    +0.000 Br
ATOM     16  C   UNL     1       7.212   4.792  14.291  0.00  0.00    +0.000 A 
ATOM     17  C   UNL     1       7.328   5.325  15.575  0.00  0.00    +0.000 A 
ATOM     18  C   UNL     1       6.328   5.145  16.560  0.00  0.00    +0.000 A 
ATOM     19  H   UNL     1       2.640   2.989  16.282  0.00  0.00    +0.000 HD
ENDROOT
BRANCH   1  21
ATOM     20  O   UNL     1       8.320   6.311  19.106  0.00  0.00    +0.000 OA
ATOM     21  C   UNL     1       7.487   6.618  18.265  0.00  0.00    +0.000 C 
ATOM     22  N   UNL     1       7.529   7.828  17.612  0.00  0.00    +0.000 N 
ATOM     23  H   UNL     1       6.739   8.141  17.048  0.00  0.00    +0.000 HD
BRANCH  22  24
ATOM     24  C   UNL     1       8.557   8.793  17.918  0.00  0.00    +0.000 C 
BRANCH  24  25
ATOM     25  C   UNL     1       8.010  10.224  18.030  0.00  0.00    +0.000 C 
BRANCH  25  26
ATOM     26  N   UNL     1       9.011  11.152  18.603  0.00  0.00    +0.000 NA
ATOM     27  C   UNL     1       9.359  10.763  19.979  0.00  0.00    +0.000 C 
ATOM     28  C   UNL     1      10.374  11.713  20.609  0.00  0.00    +0.000 C 
ATOM     29  C   UNL     1      11.627  11.817  19.755  0.00  0.00    +0.000 C 
ATOM     30  C   UNL     1      11.257  12.173  18.319  0.00  0.00    +0.000 C 
ATOM     31  C   UNL     1      10.214  11.205  17.755  0.00  0.00    +0.000 C 
ENDBRANCH  25  26
ENDBRANCH  24  25
ENDBRANCH  22  24
ENDBRANCH   1  21
TORSDOF 4
ENDMDL
MODEL 2
REMARK VINA RESULT:      -8.7      2.094      4.914
REMARK  Name = 
REMARK  4 active torsions:
REMARK  status: ('A' for Active; 'I' for Inactive)
REMARK    1  A    between atoms: C_2  and  C_12
REMARK    2  A    between atoms: N_3  and  C_4
REMARK    3  A    between atoms: C_4  and  C_5
REMARK    4  A    between atoms: C_5  and  N_6
REMARK                            x       y       z     vdW  Elec       q    Type
REMARK                         _______ _______ _______ _____ _____    ______ ____
ROOT
ATOM      1  C   UNL     1       6.843   6.205  17.404  0.00  0.00    +0.000 A 
ATOM      2  C   UNL     1       7.269   5.976  16.083  0.00  0.00    +0.000 A 
ATOM      3  C   UNL     1       6.531   5.136  15.240  0.00  0.00    +0.000 A 
ATOM      4  C   UNL     1       6.719   4.698  13.893  0.00  0.00    +0.000 A 
ATOM      5  C   UNL     1       7.695   4.960  12.912  0.00  0.00    +0.000 A 
ATOM      6  C   UNL     1       7.594   4.344  11.661  0.00  0.00    +0.000 A 
ATOM      7  C   UNL     1       6.539   3.476  11.385  0.00  0.00    +0.000 A 
ATOM      8  C   UNL     1       5.560   3.200  12.344  0.00  0.00    +0.000 A 
ATOM      9  C   UNL     1       5.675   3.828  13.590  0.00  0.00    +0.000 A 
ATOM     10  N   UNL     1       4.885   3.751  14.711  0.00  0.00    +0.000 N 
ATOM     11  C   UNL     1       5.374   4.532  15.736  0.00  0.00    +0.000 A 
ATOM     12  C   UNL     1       4.907   4.756  17.061  0.00  0.00    +0.000 A 
ATOM     13  C   UNL     1       3.730   4.129  17.527  0.00  0.00    +0.000 A 
ATOM     14  C   UNL     1       3.284   4.366  18.835  0.00  0.00    +0.000 A 
ATOM     15 BR   UNL     1       1.716   3.522  19.457  0.00  0.00    +0.000 Br
ATOM     16  C   UNL     1       3.987   5.218  19.667  0.00  0.00    +0.000 A 
ATOM     17  C   UNL     1       5.150   5.835  19.209  0.00  0.00    +0.000 A 
ATOM     18  C   UNL     1       5.655   5.616  17.905  0.00  0.00    +0.000 A 
ATOM     19  H   UNL     1       4.051   3.175  14.775  0.00  0.00    +0.000 HD
ENDROOT
BRANCH   1  21
ATOM     20  O   UNL     1       8.306   6.514  19.248  0.00  0.00    +0.000 OA
ATOM     21  C   UNL     1       7.739   7.008  18.283  0.00  0.00    +0.000 C 
ATOM     22  N   UNL     1       7.923   8.325  17.932  0.00  0.00    +0.000 N 
ATOM     23  H   UNL     1       7.318   8.767  17.240  0.00  0.00    +0.000 HD
BRANCH  22  24
ATOM     24  C   UNL     1       8.783   9.182  18.713  0.00  0.00    +0.000 C 
BRANCH  24  25
ATOM     25  C   UNL     1       8.859  10.611  18.155  0.00  0.00    +0.000 C 
BRANCH  25  26
ATOM     26  N   UNL     1      10.232  11.158  18.231  0.00  0.00    +0.000 NA
ATOM     27  C   UNL     1      10.339  12.413  17.469  0.00  0.00    +0.000 C 
ATOM     28  C   UNL     1      11.750  12.994  17.509  0.00  0.00    +0.000 C 
ATOM     29  C   UNL     1      12.215  13.202  18.941  0.00  0.00    +0.000 C 
ATOM     30  C   UNL     1      12.057  11.912  19.738  0.00  0.00    +0.000 C 
ATOM     31  C   UNL     1      10.633  11.362  19.633  0.00  0.00    +0.000 C 
ENDBRANCH  25  26
ENDBRANCH  24  25
ENDBRANCH  22  24
ENDBRANCH   1  21
TORSDOF 4
ENDMDL
MODEL 3
REMARK VINA RESULT:      -8.3      7.238     10.721
REMARK  Name = 
REMARK  4 active torsions:
REMARK  status: ('A' for Active; 'I' for Inactive)
REMARK    1  A    between atoms: C_2  and  C_12
REMARK    2  A    between atoms: N_3  and  C_4
REMARK    3  A    between atoms: C_4  and  C_5
REMARK    4  A    between atoms: C_5  and  N_6
REMARK                            x       y       z     vdW  Elec       q    Type
REMARK                         _______ _______ _______ _____ _____    ______ ____
ROOT
ATOM      1  C   UNL     1       0.860  10.601  18.491  0.00  0.00    +0.000 A 
ATOM      2  C   UNL     1       1.655  11.730  18.763  0.00  0.00    +0.000 A 
ATOM      3  C   UNL     1       1.077  13.004  18.807  0.00  0.00    +0.000 A 
ATOM      4  C   UNL     1       1.614  14.310  19.024  0.00  0.00    +0.000 A 
ATOM      5  C   UNL     1       2.908  14.799  19.293  0.00  0.00    +0.000 A 
ATOM      6  C   UNL     1       3.105  16.174  19.444  0.00  0.00    +0.000 A 
ATOM      7  C   UNL     1       2.034  17.058  19.327  0.00  0.00    +0.000 A 
ATOM      8  C   UNL     1       0.742  16.596  19.059  0.00  0.00    +0.000 A 
ATOM      9  C   UNL     1       0.561  15.215  18.914  0.00  0.00    +0.000 A 
ATOM     10  N   UNL     1      -0.567  14.480  18.648  0.00  0.00    +0.000 N 
ATOM     11  C   UNL     1      -0.294  13.131  18.573  0.00  0.00    +0.000 A 
ATOM     12  C   UNL     1      -1.128  12.009  18.314  0.00  0.00    +0.000 A 
ATOM     13  C   UNL     1      -2.512  12.176  18.085  0.00  0.00    +0.000 A 
ATOM     14  C   UNL     1      -3.319  11.056  17.835  0.00  0.00    +0.000 A 
ATOM     15 BR   UNL     1      -5.165  11.283  17.522  0.00  0.00    +0.000 Br
ATOM     16  C   UNL     1      -2.766   9.789  17.820  0.00  0.00    +0.000 A 
ATOM     17  C   UNL     1      -1.399   9.624  18.042  0.00  0.00    +0.000 A 
ATOM     18  C   UNL     1      -0.537  10.720  18.281  0.00  0.00    +0.000 A 
ATOM     19  H   UNL     1      -1.486  14.888  18.508  0.00  0.00    +0.000 HD
ENDROOT
BRANCH   1  21
ATOM     20  O   UNL     1       2.068   8.957  17.279  0.00  0.00    +0.000 OA
ATOM     21  C   UNL     1       1.557   9.293  18.338  0.00  0.00    +0.000 C 
ATOM     22  N   UNL     1       1.626   8.499  19.459  0.00  0.00    +0.000 N 
ATOM     23  H   UNL     1       1.053   8.706  20.277  0.00  0.00    +0.000 HD
BRANCH  22  24
ATOM     24  C   UNL     1       2.293   7.220  19.414  0.00  0.00    +0.000 C 
BRANCH  24  25
ATOM     25  C   UNL     1       1.980   6.347  20.639  0.00  0.00    +0.000 C 
BRANCH  25  26
ATOM     26  N   UNL     1       1.486   5.007  20.247  0.00  0.00    +0.000 NA
ATOM     27  C   UNL     1       1.902   4.677  18.874  0.00  0.00    +0.000 C 
ATOM     28  C   UNL     1       1.391   3.309  18.429  0.00  0.00    +0.000 C 
ATOM     29  C   UNL     1       1.832   2.221  19.393  0.00  0.00    +0.000 C 
ATOM     30  C   UNL     1       1.442   2.591  20.820  0.00  0.00    +0.000 C 
ATOM     31  C   UNL     1       1.954   3.983  21.195  0.00  0.00    +0.000 C 
ENDBRANCH  25  26
ENDBRANCH  24  25
ENDBRANCH  22  24
ENDBRANCH   1  21
TORSDOF 4
ENDMDL
MODEL 4
REMARK VINA RESULT:      -8.3      0.904      1.256
REMARK  Name = 
REMARK  4 active torsions:
REMARK  status: ('A' for Active; 'I' for Inactive)
REMARK    1  A    between atoms: C_2  and  C_12
REMARK    2  A    between atoms: N_3  and  C_4
REMARK    3  A    between atoms: C_4  and  C_5
REMARK    4  A    between atoms: C_5  and  N_6
REMARK                            x       y       z     vdW  Elec       q    Type
REMARK                         _______ _______ _______ _____ _____    ______ ____
ROOT
ATOM      1  C   UNL     1       6.277   6.048  17.339  0.00  0.00    +0.000 A 
ATOM      2  C   UNL     1       5.325   5.828  18.352  0.00  0.00    +0.000 A 
ATOM      3  C   UNL     1       4.289   4.906  18.157  0.00  0.00    +0.000 A 
ATOM      4  C   UNL     1       3.185   4.497  18.966  0.00  0.00    +0.000 A 
ATOM      5  C   UNL     1       2.740   4.848  20.255  0.00  0.00    +0.000 A 
ATOM      6  C   UNL     1       1.581   4.257  20.766  0.00  0.00    +0.000 A 
ATOM      7  C   UNL     1       0.867   3.331  20.009  0.00  0.00    +0.000 A 
ATOM      8  C   UNL     1       1.290   2.969  18.725  0.00  0.00    +0.000 A 
ATOM      9  C   UNL     1       2.455   3.567  18.231  0.00  0.00    +0.000 A 
ATOM     10  N   UNL     1       3.100   3.418  17.028  0.00  0.00    +0.000 N 
ATOM     11  C   UNL     1       4.219   4.217  16.945  0.00  0.00    +0.000 A 
ATOM     12  C   UNL     1       5.175   4.403  15.908  0.00  0.00    +0.000 A 
ATOM     13  C   UNL     1       5.074   3.686  14.696  0.00  0.00    +0.000 A 
ATOM     14  C   UNL     1       6.028   3.880  13.687  0.00  0.00    +0.000 A 
ATOM     15 BR   UNL     1       5.886   2.926  12.066  0.00  0.00    +0.000 Br
ATOM     16  C   UNL     1       7.074   4.764  13.878  0.00  0.00    +0.000 A 
ATOM     17  C   UNL     1       7.173   5.475  15.074  0.00  0.00    +0.000 A 
ATOM     18  C   UNL     1       6.227   5.331  16.117  0.00  0.00    +0.000 A 
ATOM     19  H   UNL     1       2.777   2.803  16.287  0.00  0.00    +0.000 HD
ENDROOT
BRANCH   1  21
ATOM     20  O   UNL     1       7.498   7.986  16.718  0.00  0.00    +0.000 OA
ATOM     21  C   UNL     1       7.277   7.129  17.562  0.00  0.00    +0.000 C 
ATOM     22  N   UNL     1       7.914   7.134  18.781  0.00  0.00    +0.000 N 
ATOM     23  H   UNL     1       7.854   6.326  19.401  0.00  0.00    +0.000 HD
BRANCH  22  24
ATOM     24  C   UNL     1       8.890   8.149  19.097  0.00  0.00    +0.000 C 
BRANCH  24  25
ATOM     25  C   UNL     1       8.508   9.529  18.540  0.00  0.00    +0.000 C 
BRANCH  25  26
ATOM     26  N   UNL     1       9.538  10.548  18.844  0.00  0.00    +0.000 NA
ATOM     27  C   UNL     1       9.344  11.751  18.019  0.00  0.00    +0.000 C 
ATOM     28  C   UNL     1      10.403  12.816  18.292  0.00  0.00    +0.000 C 
ATOM     29  C   UNL     1      10.440  13.185  19.765  0.00  0.00    +0.000 C 
ATOM     30  C   UNL     1      10.592  11.930  20.618  0.00  0.00    +0.000 C 
ATOM     31  C   UNL     1       9.523  10.890  20.276  0.00  0.00    +0.000 C 
ENDBRANCH  25  26
ENDBRANCH  24  25
ENDBRANCH  22  24
ENDBRANCH   1  21
TORSDOF 4
ENDMDL
MODEL 5
REMARK VINA RESULT:      -7.8      7.339     10.448
REMARK  Name = 
REMARK  4 active torsions:
REMARK  status: ('A' for Active; 'I' for Inactive)
REMARK    1  A    between atoms: C_2  and  C_12
REMARK    2  A    between atoms: N_3  and  C_4
REMARK    3  A    between atoms: C_4  and  C_5
REMARK    4  A    between atoms: C_5  and  N_6
REMARK                            x       y       z     vdW  Elec       q    Type
REMARK                         _______ _______ _______ _____ _____    ______ ____
ROOT
ATOM      1  C   UNL     1       0.839  10.681  18.515  0.00  0.00    +0.000 A 
ATOM      2  C   UNL     1       1.575  11.808  18.924  0.00  0.00    +0.000 A 
ATOM      3  C   UNL     1       0.935  13.040  19.106  0.00  0.00    +0.000 A 
ATOM      4  C   UNL     1       1.405  14.337  19.478  0.00  0.00    +0.000 A 
ATOM      5  C   UNL     1       2.671  14.853  19.817  0.00  0.00    +0.000 A 
ATOM      6  C   UNL     1       2.798  16.210  20.128  0.00  0.00    +0.000 A 
ATOM      7  C   UNL     1       1.686  17.049  20.100  0.00  0.00    +0.000 A 
ATOM      8  C   UNL     1       0.420  16.558  19.764  0.00  0.00    +0.000 A 
ATOM      9  C   UNL     1       0.309  15.196  19.460  0.00  0.00    +0.000 A 
ATOM     10  N   UNL     1      -0.780  14.443  19.097  0.00  0.00    +0.000 N 
ATOM     11  C   UNL     1      -0.439  13.126  18.871  0.00  0.00    +0.000 A 
ATOM     12  C   UNL     1      -1.215  12.002  18.475  0.00  0.00    +0.000 A 
ATOM     13  C   UNL     1      -2.604  12.127  18.249  0.00  0.00    +0.000 A 
ATOM     14  C   UNL     1      -3.352  11.006  17.862  0.00  0.00    +0.000 A 
ATOM     15 BR   UNL     1      -5.205  11.178  17.555  0.00  0.00    +0.000 Br
ATOM     16  C   UNL     1      -2.737   9.777  17.709  0.00  0.00    +0.000 A 
ATOM     17  C   UNL     1      -1.365   9.654  17.928  0.00  0.00    +0.000 A 
ATOM     18  C   UNL     1      -0.560  10.756  18.302  0.00  0.00    +0.000 A 
ATOM     19  H   UNL     1      -1.717  14.819  18.994  0.00  0.00    +0.000 HD
ENDROOT
BRANCH   1  21
ATOM     20  O   UNL     1       2.075   9.217  17.115  0.00  0.00    +0.000 OA
ATOM     21  C   UNL     1       1.602   9.435  18.221  0.00  0.00    +0.000 C 
ATOM     22  N   UNL     1       1.774   8.560  19.268  0.00  0.00    +0.000 N 
ATOM     23  H   UNL     1       1.233   8.665  20.126  0.00  0.00    +0.000 HD
BRANCH  22  24
ATOM     24  C   UNL     1       2.510   7.331  19.086  0.00  0.00    +0.000 C 
BRANCH  24  25
ATOM     25  C   UNL     1       2.049   6.220  20.041  0.00  0.00    +0.000 C 
BRANCH  25  26
ATOM     26  N   UNL     1       2.349   4.874  19.503  0.00  0.00    +0.000 NA
ATOM     27  C   UNL     1       1.988   4.787  18.079  0.00  0.00    +0.000 C 
ATOM     28  C   UNL     1       2.264   3.403  17.496  0.00  0.00    +0.000 C 
ATOM     29  C   UNL     1       3.717   3.006  17.700  0.00  0.00    +0.000 C 
ATOM     30  C   UNL     1       4.100   3.144  19.169  0.00  0.00    +0.000 C 
ATOM     31  C   UNL     1       3.769   4.540  19.702  0.00  0.00    +0.000 C 
ENDBRANCH  25  26
ENDBRANCH  24  25
ENDBRANCH  22  24
ENDBRANCH   1  21
TORSDOF 4
ENDMDL
MODEL 6
REMARK VINA RESULT:      -7.8      7.946     10.803
REMARK  Name = 
REMARK  4 active torsions:
REMARK  status: ('A' for Active; 'I' for Inactive)
REMARK    1  A    between atoms: C_2  and  C_12
REMARK    2  A    between atoms: N_3  and  C_4
REMARK    3  A    between atoms: C_4  and  C_5
REMARK    4  A    between atoms: C_5  and  N_6
REMARK                            x       y       z     vdW  Elec       q    Type
REMARK                         _______ _______ _______ _____ _____    ______ ____
ROOT
ATOM      1  C   UNL     1      -0.282  10.200  20.292  0.00  0.00    +0.000 A 
ATOM      2  C   UNL     1      -0.706   9.897  18.985  0.00  0.00    +0.000 A 
ATOM      3  C   UNL     1      -1.770  10.601  18.409  0.00  0.00    +0.000 A 
ATOM      4  C   UNL     1      -2.431  10.506  17.146  0.00  0.00    +0.000 A 
ATOM      5  C   UNL     1      -2.249   9.691  16.011  0.00  0.00    +0.000 A 
ATOM      6  C   UNL     1      -3.098   9.846  14.912  0.00  0.00    +0.000 A 
ATOM      7  C   UNL     1      -4.119  10.794  14.935  0.00  0.00    +0.000 A 
ATOM      8  C   UNL     1      -4.319  11.613  16.052  0.00  0.00    +0.000 A 
ATOM      9  C   UNL     1      -3.457  11.447  17.142  0.00  0.00    +0.000 A 
ATOM     10  N   UNL     1      -3.410  12.089  18.355  0.00  0.00    +0.000 N 
ATOM     11  C   UNL     1      -2.399  11.601  19.154  0.00  0.00    +0.000 A 
ATOM     12  C   UNL     1      -1.983  11.944  20.470  0.00  0.00    +0.000 A 
ATOM     13  C   UNL     1      -2.641  12.963  21.193  0.00  0.00    +0.000 A 
ATOM     14  C   UNL     1      -2.214  13.289  22.488  0.00  0.00    +0.000 A 
ATOM     15 BR   UNL     1      -3.100  14.646  23.453  0.00  0.00    +0.000 Br
ATOM     16  C   UNL     1      -1.144  12.623  23.057  0.00  0.00    +0.000 A 
ATOM     17  C   UNL     1      -0.496  11.614  22.346  0.00  0.00    +0.000 A 
ATOM     18  C   UNL     1      -0.898  11.232  21.043  0.00  0.00    +0.000 A 
ATOM     19  H   UNL     1      -4.056  12.823  18.630  0.00  0.00    +0.000 HD
ENDROOT
BRANCH   1  21
ATOM     20  O   UNL     1       1.237   9.554  21.998  0.00  0.00    +0.000 OA
ATOM     21  C   UNL     1       0.772   9.331  20.889  0.00  0.00    +0.000 C 
ATOM     22  N   UNL     1       1.168   8.247  20.142  0.00  0.00    +0.000 N 
ATOM     23  H   UNL     1       0.906   8.170  19.159  0.00  0.00    +0.000 HD
BRANCH  22  24
ATOM     24  C   UNL     1       2.173   7.338  20.640  0.00  0.00    +0.000 C 
BRANCH  24  25
ATOM     25  C   UNL     1       2.873   6.558  19.517  0.00  0.00    +0.000 C 
BRANCH  25  26
ATOM     26  N   UNL     1       2.537   5.117  19.557  0.00  0.00    +0.000 NA
ATOM     27  C   UNL     1       1.585   4.832  20.644  0.00  0.00    +0.000 C 
ATOM     28  C   UNL     1       1.232   3.349  20.727  0.00  0.00    +0.000 C 
ATOM     29  C   UNL     1       0.691   2.841  19.401  0.00  0.00    +0.000 C 
ATOM     30  C   UNL     1       1.658   3.182  18.273  0.00  0.00    +0.000 C 
ATOM     31  C   UNL     1       1.998   4.674  18.261  0.00  0.00    +0.000 C 
ENDBRANCH  25  26
ENDBRANCH  24  25
ENDBRANCH  22  24
ENDBRANCH   1  21
TORSDOF 4
ENDMDL
MODEL 7
REMARK VINA RESULT:      -7.8      7.463     10.605
REMARK  Name = 
REMARK  4 active torsions:
REMARK  status: ('A' for Active; 'I' for Inactive)
REMARK    1  A    between atoms: C_2  and  C_12
REMARK    2  A    between atoms: N_3  and  C_4
REMARK    3  A    between atoms: C_4  and  C_5
REMARK    4  A    between atoms: C_5  and  N_6
REMARK                            x       y       z     vdW  Elec       q    Type
REMARK                         _______ _______ _______ _____ _____    ______ ____
ROOT
ATOM      1  C   UNL     1       0.780  10.631  18.885  0.00  0.00    +0.000 A 
ATOM      2  C   UNL     1       1.440  11.613  19.645  0.00  0.00    +0.000 A 
ATOM      3  C   UNL     1       0.757  12.765  20.053  0.00  0.00    +0.000 A 
ATOM      4  C   UNL     1       1.153  13.924  20.789  0.00  0.00    +0.000 A 
ATOM      5  C   UNL     1       2.360  14.329  21.391  0.00  0.00    +0.000 A 
ATOM      6  C   UNL     1       2.422  15.564  22.043  0.00  0.00    +0.000 A 
ATOM      7  C   UNL     1       1.303  16.392  22.096  0.00  0.00    +0.000 A 
ATOM      8  C   UNL     1       0.095  16.011  21.503  0.00  0.00    +0.000 A 
ATOM      9  C   UNL     1       0.049  14.769  20.858  0.00  0.00    +0.000 A 
ATOM     10  N   UNL     1      -0.975  14.140  20.195  0.00  0.00    +0.000 N 
ATOM     11  C   UNL     1      -0.583  12.919  19.689  0.00  0.00    +0.000 A 
ATOM     12  C   UNL     1      -1.284  11.936  18.937  0.00  0.00    +0.000 A 
ATOM     13  C   UNL     1      -2.640  12.125  18.590  0.00  0.00    +0.000 A 
ATOM     14  C   UNL     1      -3.315  11.142  17.851  0.00  0.00    +0.000 A 
ATOM     15 BR   UNL     1      -5.123  11.400  17.382  0.00  0.00    +0.000 Br
ATOM     16  C   UNL     1      -2.660   9.986  17.468  0.00  0.00    +0.000 A 
ATOM     17  C   UNL     1      -1.320   9.801  17.808  0.00  0.00    +0.000 A 
ATOM     18  C   UNL     1      -0.587  10.767  18.536  0.00  0.00    +0.000 A 
ATOM     19  H   UNL     1      -1.902  14.538  20.080  0.00  0.00    +0.000 HD
ENDROOT
BRANCH   1  21
ATOM     20  O   UNL     1       2.065   9.486  17.250  0.00  0.00    +0.000 OA
ATOM     21  C   UNL     1       1.597   9.492  18.380  0.00  0.00    +0.000 C 
ATOM     22  N   UNL     1       1.828   8.463  19.264  0.00  0.00    +0.000 N 
ATOM     23  H   UNL     1       1.296   8.395  20.131  0.00  0.00    +0.000 HD
BRANCH  22  24
ATOM     24  C   UNL     1       2.620   7.321  18.873  0.00  0.00    +0.000 C 
BRANCH  24  25
ATOM     25  C   UNL     1       2.357   6.090  19.754  0.00  0.00    +0.000 C 
BRANCH  25  26
ATOM     26  N   UNL     1       1.951   4.916  18.949  0.00  0.00    +0.000 NA
ATOM     27  C   UNL     1       3.104   4.352  18.228  0.00  0.00    +0.000 C 
ATOM     28  C   UNL     1       2.716   3.150  17.370  0.00  0.00    +0.000 C 
ATOM     29  C   UNL     1       2.038   2.078  18.206  0.00  0.00    +0.000 C 
ATOM     30  C   UNL     1       0.875   2.678  18.989  0.00  0.00    +0.000 C 
ATOM     31  C   UNL     1       1.319   3.896  19.802  0.00  0.00    +0.000 C 
ENDBRANCH  25  26
ENDBRANCH  24  25
ENDBRANCH  22  24
ENDBRANCH   1  21
TORSDOF 4
ENDMDL
MODEL 8
REMARK VINA RESULT:      -7.7      4.388      7.153
REMARK  Name = 
REMARK  4 active torsions:
REMARK  status: ('A' for Active; 'I' for Inactive)
REMARK    1  A    between atoms: C_2  and  C_12
REMARK    2  A    between atoms: N_3  and  C_4
REMARK    3  A    between atoms: C_4  and  C_5
REMARK    4  A    between atoms: C_5  and  N_6
REMARK                            x       y       z     vdW  Elec       q    Type
REMARK                         _______ _______ _______ _____ _____    ______ ____
ROOT
ATOM      1  C   UNL     1       3.755   7.100  18.005  0.00  0.00    +0.000 A 
ATOM      2  C   UNL     1       3.159   8.374  18.036  0.00  0.00    +0.000 A 
ATOM      3  C   UNL     1       2.109   8.639  18.924  0.00  0.00    +0.000 A 
ATOM      4  C   UNL     1       1.305   9.795  19.164  0.00  0.00    +0.000 A 
ATOM      5  C   UNL     1       1.278  11.093  18.617  0.00  0.00    +0.000 A 
ATOM      6  C   UNL     1       0.329  12.012  19.074  0.00  0.00    +0.000 A 
ATOM      7  C   UNL     1      -0.587  11.650  20.060  0.00  0.00    +0.000 A 
ATOM      8  C   UNL     1      -0.580  10.366  20.616  0.00  0.00    +0.000 A 
ATOM      9  C   UNL     1       0.380   9.460  20.149  0.00  0.00    +0.000 A 
ATOM     10  N   UNL     1       0.624   8.154  20.494  0.00  0.00    +0.000 N 
ATOM     11  C   UNL     1       1.667   7.619  19.770  0.00  0.00    +0.000 A 
ATOM     12  C   UNL     1       2.260   6.326  19.775  0.00  0.00    +0.000 A 
ATOM     13  C   UNL     1       1.788   5.320  20.647  0.00  0.00    +0.000 A 
ATOM     14  C   UNL     1       2.388   4.053  20.640  0.00  0.00    +0.000 A 
ATOM     15 BR   UNL     1       1.751   2.709  21.800  0.00  0.00    +0.000 Br
ATOM     16  C   UNL     1       3.446   3.787  19.790  0.00  0.00    +0.000 A 
ATOM     17  C   UNL     1       3.910   4.779  18.927  0.00  0.00    +0.000 A 
ATOM     18  C   UNL     1       3.329   6.069  18.880  0.00  0.00    +0.000 A 
ATOM     19  H   UNL     1       0.087   7.644  21.189  0.00  0.00    +0.000 HD
ENDROOT
BRANCH   1  21
ATOM     20  O   UNL     1       4.516   6.937  15.763  0.00  0.00    +0.000 OA
ATOM     21  C   UNL     1       4.780   6.849  16.954  0.00  0.00    +0.000 C 
ATOM     22  N   UNL     1       6.048   6.547  17.393  0.00  0.00    +0.000 N 
ATOM     23  H   UNL     1       6.215   6.306  18.370  0.00  0.00    +0.000 HD
BRANCH  22  24
ATOM     24  C   UNL     1       7.114   6.301  16.450  0.00  0.00    +0.000 C 
BRANCH  24  25
ATOM     25  C   UNL     1       7.097   4.866  15.901  0.00  0.00    +0.000 C 
BRANCH  25  26
ATOM     26  N   UNL     1       6.719   4.831  14.470  0.00  0.00    +0.000 NA
ATOM     27  C   UNL     1       7.890   5.076  13.613  0.00  0.00    +0.000 C 
ATOM     28  C   UNL     1       7.531   5.068  12.129  0.00  0.00    +0.000 C 
ATOM     29  C   UNL     1       6.852   3.767  11.739  0.00  0.00    +0.000 C 
ATOM     30  C   UNL     1       5.668   3.493  12.660  0.00  0.00    +0.000 C 
ATOM     31  C   UNL     1       6.084   3.546  14.132  0.00  0.00    +0.000 C 
ENDBRANCH  25  26
ENDBRANCH  24  25
ENDBRANCH  22  24
ENDBRANCH   1  21
TORSDOF 4
ENDMDL
MODEL 9
REMARK VINA RESULT:      -7.7      8.548     10.966
REMARK  Name = 
REMARK  4 active torsions:
REMARK  status: ('A' for Active; 'I' for Inactive)
REMARK    1  A    between atoms: C_2  and  C_12
REMARK    2  A    between atoms: N_3  and  C_4
REMARK    3  A    between atoms: C_4  and  C_5
REMARK    4  A    between atoms: C_5  and  N_6
REMARK                            x       y       z     vdW  Elec       q    Type
REMARK                         _______ _______ _______ _____ _____    ______ ____
ROOT
ATOM      1  C   UNL     1      -0.830  10.962  20.682  0.00  0.00    +0.000 A 
ATOM      2  C   UNL     1      -1.360  11.835  21.649  0.00  0.00    +0.000 A 
ATOM      3  C   UNL     1      -2.464  12.640  21.341  0.00  0.00    +0.000 A 
ATOM      4  C   UNL     1      -3.191  13.621  22.083  0.00  0.00    +0.000 A 
ATOM      5  C   UNL     1      -3.085  14.128  23.393  0.00  0.00    +0.000 A 
ATOM      6  C   UNL     1      -3.969  15.123  23.818  0.00  0.00    +0.000 A 
ATOM      7  C   UNL     1      -4.947  15.615  22.956  0.00  0.00    +0.000 A 
ATOM      8  C   UNL     1      -5.070  15.128  21.651  0.00  0.00    +0.000 A 
ATOM      9  C   UNL     1      -4.179  14.128  21.242  0.00  0.00    +0.000 A 
ATOM     10  N   UNL     1      -4.055  13.472  20.043  0.00  0.00    +0.000 N 
ATOM     11  C   UNL     1      -3.022  12.559  20.063  0.00  0.00    +0.000 A 
ATOM     12  C   UNL     1      -2.520  11.674  19.070  0.00  0.00    +0.000 A 
ATOM     13  C   UNL     1      -3.112  11.618  17.788  0.00  0.00    +0.000 A 
ATOM     14  C   UNL     1      -2.606  10.735  16.823  0.00  0.00    +0.000 A 
ATOM     15 BR   UNL     1      -3.393  10.668  15.111  0.00  0.00    +0.000 Br
ATOM     16  C   UNL     1      -1.536   9.913  17.124  0.00  0.00    +0.000 A 
ATOM     17  C   UNL     1      -0.949   9.970  18.388  0.00  0.00    +0.000 A 
ATOM     18  C   UNL     1      -1.408  10.855  19.393  0.00  0.00    +0.000 A 
ATOM     19  H   UNL     1      -4.645  13.652  19.237  0.00  0.00    +0.000 HD
ENDROOT
BRANCH   1  21
ATOM     20  O   UNL     1       1.399  10.803  21.483  0.00  0.00    +0.000 OA
ATOM     21  C   UNL     1       0.418  10.227  21.034  0.00  0.00    +0.000 C 
ATOM     22  N   UNL     1       0.397   8.863  20.860  0.00  0.00    +0.000 N 
ATOM     23  H   UNL     1      -0.351   8.419  20.328  0.00  0.00    +0.000 HD
BRANCH  22  24
ATOM     24  C   UNL     1       1.553   8.062  21.186  0.00  0.00    +0.000 C 
BRANCH  24  25
ATOM     25  C   UNL     1       2.235   7.476  19.940  0.00  0.00    +0.000 C 
BRANCH  25  26
ATOM     26  N   UNL     1       1.647   6.174  19.554  0.00  0.00    +0.000 NA
ATOM     27  C   UNL     1       2.335   5.616  18.378  0.00  0.00    +0.000 C 
ATOM     28  C   UNL     1       1.738   4.282  17.938  0.00  0.00    +0.000 C 
ATOM     29  C   UNL     1       1.744   3.279  19.080  0.00  0.00    +0.000 C 
ATOM     30  C   UNL     1       1.073   3.879  20.311  0.00  0.00    +0.000 C 
ATOM     31  C   UNL     1       1.692   5.228  20.682  0.00  0.00    +0.000 C 
ENDBRANCH  25  26
ENDBRANCH  24  25
ENDBRANCH  22  24
ENDBRANCH   1  21
TORSDOF 4
ENDMDL
