MODEL 1
REMARK VINA RESULT:      -6.8      0.000      0.000
REMARK  Name = 
REMARK  7 active torsions:
REMARK  status: ('A' for Active; 'I' for Inactive)
REMARK    1  A    between atoms: C_1  and  C_2
REMARK    2  A    between atoms: C_6  and  C_7
REMARK    3  A    between atoms: C_8  and  O_9
REMARK    4  A    between atoms: O_9  and  C_10
REMARK    5  A    between atoms: C_10  and  C_11
REMARK    6  A    between atoms: N_13  and  C_14
REMARK    7  A    between atoms: C_19  and  O_20
REMARK                            x       y       z     vdW  Elec       q    Type
REMARK                         _______ _______ _______ _____ _____    ______ ____
ROOT
ATOM      1  C   UNL     1       4.967   3.664  16.563  0.00  0.00    +0.000 C 
ATOM      2  O   UNL     1       5.182   3.443  15.373  0.00  0.00    +0.000 OA
ATOM      3  N   UNL     1       5.891   4.253  17.401  0.00  0.00    +0.000 N 
ATOM      4  H   UNL     1       5.610   4.447  18.354  0.00  0.00    +0.000 HD
ENDROOT
BRANCH   3   5
ATOM      5  C   UNL     1       7.271   4.572  17.005  0.00  0.00    +0.000 C 
ATOM      6  C   UNL     1       8.195   4.562  18.231  0.00  0.00    +0.000 C 
ATOM      7  C   UNL     1       7.874   5.694  19.210  0.00  0.00    +0.000 C 
ATOM      8  C   UNL     1       7.839   7.062  18.531  0.00  0.00    +0.000 C 
ATOM      9  C   UNL     1       6.969   7.081  17.277  0.00  0.00    +0.000 C 
ATOM     10  C   UNL     1       7.335   5.951  16.314  0.00  0.00    +0.000 C 
BRANCH  10  11
ATOM     11  O   UNL     1       6.461   6.004  15.189  0.00  0.00    +0.000 OA
ATOM     12  H   UNL     1       5.820   6.719  15.357  0.00  0.00    +0.000 HD
ENDBRANCH  10  11
ENDBRANCH   3   5
BRANCH   1  13
ATOM     13  C   UNL     1       3.664   3.263  17.259  0.00  0.00    +0.000 C 
BRANCH  13  14
ATOM     14  O   UNL     1       2.727   4.319  17.282  0.00  0.00    +0.000 OA
BRANCH  14  22
ATOM     15  C   UNL     1       1.003   2.744  19.422  0.00  0.00    +0.000 C 
ATOM     16  C   UNL     1       1.507   4.161  19.474  0.00  0.00    +0.000 A 
ATOM     17  C   UNL     1       1.177   4.867  20.653  0.00  0.00    +0.000 A 
ATOM     18  C   UNL     1       1.570   6.183  20.857  0.00  0.00    +0.000 A 
ATOM     19  C   UNL     1       2.304   6.834  19.879  0.00  0.00    +0.000 A 
ATOM     20  C   UNL     1       2.657   6.167  18.694  0.00  0.00    +0.000 A 
ATOM     21  C   UNL     1       3.443   6.930  17.658  0.00  0.00    +0.000 C 
ATOM     22  C   UNL     1       2.265   4.818  18.479  0.00  0.00    +0.000 A 
ENDBRANCH  14  22
ENDBRANCH  13  14
ENDBRANCH   1  13
TORSDOF 5
ENDMDL
MODEL 2
REMARK VINA RESULT:      -6.6      0.219      1.967
REMARK  Name = 
REMARK  7 active torsions:
REMARK  status: ('A' for Active; 'I' for Inactive)
REMARK    1  A    between atoms: C_1  and  C_2
REMARK    2  A    between atoms: C_6  and  C_7
REMARK    3  A    between atoms: C_8  and  O_9
REMARK    4  A    between atoms: O_9  and  C_10
REMARK    5  A    between atoms: C_10  and  C_11
REMARK    6  A    between atoms: N_13  and  C_14
REMARK    7  A    between atoms: C_19  and  O_20
REMARK                            x       y       z     vdW  Elec       q    Type
REMARK                         _______ _______ _______ _____ _____    ______ ____
ROOT
ATOM      1  C   UNL     1       4.807   3.687  16.481  0.00  0.00    +0.000 C 
ATOM      2  O   UNL     1       4.893   3.654  15.255  0.00  0.00    +0.000 OA
ATOM      3  N   UNL     1       5.811   4.166  17.296  0.00  0.00    +0.000 N 
ATOM      4  H   UNL     1       5.633   4.207  18.292  0.00  0.00    +0.000 HD
ENDROOT
BRANCH   3   5
ATOM      5  C   UNL     1       7.136   4.579  16.810  0.00  0.00    +0.000 C 
ATOM      6  C   UNL     1       8.172   4.489  17.939  0.00  0.00    +0.000 C 
ATOM      7  C   UNL     1       7.910   5.507  19.051  0.00  0.00    +0.000 C 
ATOM      8  C   UNL     1       7.767   6.932  18.518  0.00  0.00    +0.000 C 
ATOM      9  C   UNL     1       6.782   7.036  17.356  0.00  0.00    +0.000 C 
ATOM     10  C   UNL     1       7.091   6.020  16.256  0.00  0.00    +0.000 C 
BRANCH  10  11
ATOM     11  O   UNL     1       6.113   6.145  15.227  0.00  0.00    +0.000 OA
ATOM     12  H   UNL     1       6.180   7.051  14.874  0.00  0.00    +0.000 HD
ENDBRANCH  10  11
ENDBRANCH   3   5
BRANCH   1  13
ATOM     13  C   UNL     1       3.592   3.151  17.241  0.00  0.00    +0.000 C 
BRANCH  13  14
ATOM     14  O   UNL     1       2.528   4.078  17.265  0.00  0.00    +0.000 OA
BRANCH  14  22
ATOM     15  C   UNL     1       3.529   7.046  17.734  0.00  0.00    +0.000 C 
ATOM     16  C   UNL     1       2.703   6.174  18.640  0.00  0.00    +0.000 A 
ATOM     17  C   UNL     1       2.310   6.783  19.854  0.00  0.00    +0.000 A 
ATOM     18  C   UNL     1       1.541   6.114  20.798  0.00  0.00    +0.000 A 
ATOM     19  C   UNL     1       1.148   4.808  20.553  0.00  0.00    +0.000 A 
ATOM     20  C   UNL     1       1.515   4.168  19.357  0.00  0.00    +0.000 A 
ATOM     21  C   UNL     1       1.071   2.742  19.152  0.00  0.00    +0.000 C 
ATOM     22  C   UNL     1       2.294   4.847  18.383  0.00  0.00    +0.000 A 
ENDBRANCH  14  22
ENDBRANCH  13  14
ENDBRANCH   1  13
TORSDOF 5
ENDMDL
MODEL 3
REMARK VINA RESULT:      -6.6      2.803      4.755
REMARK  Name = 
REMARK  7 active torsions:
REMARK  status: ('A' for Active; 'I' for Inactive)
REMARK    1  A    between atoms: C_1  and  C_2
REMARK    2  A    between atoms: C_6  and  C_7
REMARK    3  A    between atoms: C_8  and  O_9
REMARK    4  A    between atoms: O_9  and  C_10
REMARK    5  A    between atoms: C_10  and  C_11
REMARK    6  A    between atoms: N_13  and  C_14
REMARK    7  A    between atoms: C_19  and  O_20
REMARK                            x       y       z     vdW  Elec       q    Type
REMARK                         _______ _______ _______ _____ _____    ______ ____
ROOT
ATOM      1  C   UNL     1       2.315   4.863  20.700  0.00  0.00    +0.000 C 
ATOM      2  O   UNL     1       2.261   3.932  21.502  0.00  0.00    +0.000 OA
ATOM      3  N   UNL     1       3.200   4.899  19.643  0.00  0.00    +0.000 N 
ATOM      4  H   UNL     1       3.138   5.678  19.001  0.00  0.00    +0.000 HD
ENDROOT
BRANCH   3   5
ATOM      5  C   UNL     1       4.254   3.897  19.421  0.00  0.00    +0.000 C 
ATOM      6  C   UNL     1       5.517   4.565  18.860  0.00  0.00    +0.000 C 
ATOM      7  C   UNL     1       5.303   5.121  17.450  0.00  0.00    +0.000 C 
ATOM      8  C   UNL     1       4.733   4.076  16.491  0.00  0.00    +0.000 C 
ATOM      9  C   UNL     1       3.508   3.359  17.052  0.00  0.00    +0.000 C 
ATOM     10  C   UNL     1       3.768   2.799  18.451  0.00  0.00    +0.000 C 
BRANCH  10  11
ATOM     11  O   UNL     1       2.576   2.181  18.928  0.00  0.00    +0.000 OA
ATOM     12  H   UNL     1       1.826   2.691  18.571  0.00  0.00    +0.000 HD
ENDBRANCH  10  11
ENDBRANCH   3   5
BRANCH   1  13
ATOM     13  C   UNL     1       1.436   6.110  20.818  0.00  0.00    +0.000 C 
BRANCH  13  14
ATOM     14  O   UNL     1       2.132   7.287  20.463  0.00  0.00    +0.000 OA
BRANCH  14  22
ATOM     15  C   UNL     1      -0.002   8.999  22.058  0.00  0.00    +0.000 C 
ATOM     16  C   UNL     1       0.504   9.192  20.654  0.00  0.00    +0.000 A 
ATOM     17  C   UNL     1      -0.041  10.304  19.974  0.00  0.00    +0.000 A 
ATOM     18  C   UNL     1       0.325  10.621  18.672  0.00  0.00    +0.000 A 
ATOM     19  C   UNL     1       1.246   9.826  18.010  0.00  0.00    +0.000 A 
ATOM     20  C   UNL     1       1.814   8.712  18.653  0.00  0.00    +0.000 A 
ATOM     21  C   UNL     1       2.800   7.874  17.879  0.00  0.00    +0.000 C 
ATOM     22  C   UNL     1       1.452   8.385  19.987  0.00  0.00    +0.000 A 
ENDBRANCH  14  22
ENDBRANCH  13  14
ENDBRANCH   1  13
TORSDOF 5
ENDMDL
MODEL 4
REMARK VINA RESULT:      -6.5      2.818      4.866
REMARK  Name = 
REMARK  7 active torsions:
REMARK  status: ('A' for Active; 'I' for Inactive)
REMARK    1  A    between atoms: C_1  and  C_2
REMARK    2  A    between atoms: C_6  and  C_7
REMARK    3  A    between atoms: C_8  and  O_9
REMARK    4  A    between atoms: O_9  and  C_10
REMARK    5  A    between atoms: C_10  and  C_11
REMARK    6  A    between atoms: N_13  and  C_14
REMARK    7  A    between atoms: C_19  and  O_20
REMARK                            x       y       z     vdW  Elec       q    Type
REMARK                         _______ _______ _______ _____ _____    ______ ____
ROOT
ATOM      1  C   UNL     1       2.157   4.635  20.724  0.00  0.00    +0.000 C 
ATOM      2  O   UNL     1       2.283   3.928  21.722  0.00  0.00    +0.000 OA
ATOM      3  N   UNL     1       2.856   4.424  19.554  0.00  0.00    +0.000 N 
ATOM      4  H   UNL     1       2.649   5.022  18.765  0.00  0.00    +0.000 HD
ENDROOT
BRANCH   3   5
ATOM      5  C   UNL     1       3.912   3.412  19.402  0.00  0.00    +0.000 C 
ATOM      6  C   UNL     1       5.264   4.088  19.129  0.00  0.00    +0.000 C 
ATOM      7  C   UNL     1       5.298   4.791  17.770  0.00  0.00    +0.000 C 
ATOM      8  C   UNL     1       4.875   3.872  16.625  0.00  0.00    +0.000 C 
ATOM      9  C   UNL     1       3.561   3.146  16.899  0.00  0.00    +0.000 C 
ATOM     10  C   UNL     1       3.574   2.437  18.254  0.00  0.00    +0.000 C 
BRANCH  10  11
ATOM     11  O   UNL     1       2.307   1.818  18.461  0.00  0.00    +0.000 OA
ATOM     12  H   UNL     1       1.967   1.559  17.585  0.00  0.00    +0.000 HD
ENDBRANCH  10  11
ENDBRANCH   3   5
BRANCH   1  13
ATOM     13  C   UNL     1       1.242   5.862  20.689  0.00  0.00    +0.000 C 
BRANCH  13  14
ATOM     14  O   UNL     1       1.967   7.069  20.793  0.00  0.00    +0.000 OA
BRANCH  14  22
ATOM     15  C   UNL     1       2.954   7.449  17.808  0.00  0.00    +0.000 C 
ATOM     16  C   UNL     1       2.075   8.349  18.633  0.00  0.00    +0.000 A 
ATOM     17  C   UNL     1       1.618   9.508  17.965  0.00  0.00    +0.000 A 
ATOM     18  C   UNL     1       0.796  10.439  18.586  0.00  0.00    +0.000 A 
ATOM     19  C   UNL     1       0.411  10.237  19.902  0.00  0.00    +0.000 A 
ATOM     20  C   UNL     1       0.841   9.096  20.600  0.00  0.00    +0.000 A 
ATOM     21  C   UNL     1       0.403   8.936  22.034  0.00  0.00    +0.000 C 
ATOM     22  C   UNL     1       1.676   8.134  19.970  0.00  0.00    +0.000 A 
ENDBRANCH  14  22
ENDBRANCH  13  14
ENDBRANCH   1  13
TORSDOF 5
ENDMDL
MODEL 5
REMARK VINA RESULT:      -6.4      2.570      4.060
REMARK  Name = 
REMARK  7 active torsions:
REMARK  status: ('A' for Active; 'I' for Inactive)
REMARK    1  A    between atoms: C_1  and  C_2
REMARK    2  A    between atoms: C_6  and  C_7
REMARK    3  A    between atoms: C_8  and  O_9
REMARK    4  A    between atoms: O_9  and  C_10
REMARK    5  A    between atoms: C_10  and  C_11
REMARK    6  A    between atoms: N_13  and  C_14
REMARK    7  A    between atoms: C_19  and  O_20
REMARK                            x       y       z     vdW  Elec       q    Type
REMARK                         _______ _______ _______ _____ _____    ______ ____
ROOT
ATOM      1  C   UNL     1       2.792   4.853  20.060  0.00  0.00    +0.000 C 
ATOM      2  O   UNL     1       2.606   3.670  20.340  0.00  0.00    +0.000 OA
ATOM      3  N   UNL     1       3.900   5.303  19.374  0.00  0.00    +0.000 N 
ATOM      4  H   UNL     1       3.944   6.286  19.139  0.00  0.00    +0.000 HD
ENDROOT
BRANCH   3   5
ATOM      5  C   UNL     1       5.039   4.448  19.005  0.00  0.00    +0.000 C 
ATOM      6  C   UNL     1       6.339   5.265  18.995  0.00  0.00    +0.000 C 
ATOM      7  C   UNL     1       6.356   6.316  17.882  0.00  0.00    +0.000 C 
ATOM      8  C   UNL     1       6.042   5.721  16.510  0.00  0.00    +0.000 C 
ATOM      9  C   UNL     1       4.783   4.859  16.510  0.00  0.00    +0.000 C 
ATOM     10  C   UNL     1       4.813   3.806  17.619  0.00  0.00    +0.000 C 
BRANCH  10  11
ATOM     11  O   UNL     1       3.595   3.068  17.586  0.00  0.00    +0.000 OA
ATOM     12  H   UNL     1       3.158   3.196  18.448  0.00  0.00    +0.000 HD
ENDBRANCH  10  11
ENDBRANCH   3   5
BRANCH   1  13
ATOM     13  C   UNL     1       1.832   5.966  20.488  0.00  0.00    +0.000 C 
BRANCH  13  14
ATOM     14  O   UNL     1       2.380   7.250  20.281  0.00  0.00    +0.000 OA
BRANCH  14  22
ATOM     15  C   UNL     1       0.209   8.742  22.039  0.00  0.00    +0.000 C 
ATOM     16  C   UNL     1       0.610   9.003  20.613  0.00  0.00    +0.000 A 
ATOM     17  C   UNL     1      -0.068  10.077  19.992  0.00  0.00    +0.000 A 
ATOM     18  C   UNL     1       0.190  10.449  18.679  0.00  0.00    +0.000 A 
ATOM     19  C   UNL     1       1.134   9.748  17.946  0.00  0.00    +0.000 A 
ATOM     20  C   UNL     1       1.832   8.677  18.527  0.00  0.00    +0.000 A 
ATOM     21  C   UNL     1       2.837   7.942  17.677  0.00  0.00    +0.000 C 
ATOM     22  C   UNL     1       1.581   8.294  19.872  0.00  0.00    +0.000 A 
ENDBRANCH  14  22
ENDBRANCH  13  14
ENDBRANCH   1  13
TORSDOF 5
ENDMDL
MODEL 6
REMARK VINA RESULT:      -6.4      2.551      4.876
REMARK  Name = 
REMARK  7 active torsions:
REMARK  status: ('A' for Active; 'I' for Inactive)
REMARK    1  A    between atoms: C_1  and  C_2
REMARK    2  A    between atoms: C_6  and  C_7
REMARK    3  A    between atoms: C_8  and  O_9
REMARK    4  A    between atoms: O_9  and  C_10
REMARK    5  A    between atoms: C_10  and  C_11
REMARK    6  A    between atoms: N_13  and  C_14
REMARK    7  A    between atoms: C_19  and  O_20
REMARK                            x       y       z     vdW  Elec       q    Type
REMARK                         _______ _______ _______ _____ _____    ______ ____
ROOT
ATOM      1  C   UNL     1       4.192   5.920  17.619  0.00  0.00    +0.000 C 
ATOM      2  O   UNL     1       5.314   5.736  17.149  0.00  0.00    +0.000 OA
ATOM      3  N   UNL     1       3.349   4.892  17.987  0.00  0.00    +0.000 N 
ATOM      4  H   UNL     1       2.466   5.135  18.416  0.00  0.00    +0.000 HD
ENDROOT
BRANCH   3   5
ATOM      5  C   UNL     1       3.640   3.470  17.752  0.00  0.00    +0.000 C 
ATOM      6  C   UNL     1       2.353   2.715  17.387  0.00  0.00    +0.000 C 
ATOM      7  C   UNL     1       1.367   2.650  18.556  0.00  0.00    +0.000 C 
ATOM      8  C   UNL     1       2.007   2.107  19.833  0.00  0.00    +0.000 C 
ATOM      9  C   UNL     1       3.317   2.806  20.184  0.00  0.00    +0.000 C 
ATOM     10  C   UNL     1       4.285   2.830  19.000  0.00  0.00    +0.000 C 
BRANCH  10  11
ATOM     11  O   UNL     1       5.465   3.530  19.385  0.00  0.00    +0.000 OA
ATOM     12  H   UNL     1       5.318   3.868  20.287  0.00  0.00    +0.000 HD
ENDBRANCH  10  11
ENDBRANCH   3   5
BRANCH   1  13
ATOM     13  C   UNL     1       3.588   7.314  17.801  0.00  0.00    +0.000 C 
BRANCH  13  14
ATOM     14  O   UNL     1       2.252   7.261  18.253  0.00  0.00    +0.000 OA
BRANCH  14  22
ATOM     15  C   UNL     1       1.766  10.356  17.791  0.00  0.00    +0.000 C 
ATOM     16  C   UNL     1       1.546   9.542  19.037  0.00  0.00    +0.000 A 
ATOM     17  C   UNL     1       1.033  10.266  20.137  0.00  0.00    +0.000 A 
ATOM     18  C   UNL     1       0.772   9.660  21.359  0.00  0.00    +0.000 A 
ATOM     19  C   UNL     1       1.023   8.307  21.516  0.00  0.00    +0.000 A 
ATOM     20  C   UNL     1       1.530   7.550  20.446  0.00  0.00    +0.000 A 
ATOM     21  C   UNL     1       1.798   6.084  20.678  0.00  0.00    +0.000 C 
ATOM     22  C   UNL     1       1.793   8.159  19.190  0.00  0.00    +0.000 A 
ENDBRANCH  14  22
ENDBRANCH  13  14
ENDBRANCH   1  13
TORSDOF 5
ENDMDL
MODEL 7
REMARK VINA RESULT:      -6.4      2.517      4.518
REMARK  Name = 
REMARK  7 active torsions:
REMARK  status: ('A' for Active; 'I' for Inactive)
REMARK    1  A    between atoms: C_1  and  C_2
REMARK    2  A    between atoms: C_6  and  C_7
REMARK    3  A    between atoms: C_8  and  O_9
REMARK    4  A    between atoms: O_9  and  C_10
REMARK    5  A    between atoms: C_10  and  C_11
REMARK    6  A    between atoms: N_13  and  C_14
REMARK    7  A    between atoms: C_19  and  O_20
REMARK                            x       y       z     vdW  Elec       q    Type
REMARK                         _______ _______ _______ _____ _____    ______ ____
ROOT
ATOM      1  C   UNL     1       4.199   5.859  17.621  0.00  0.00    +0.000 C 
ATOM      2  O   UNL     1       5.233   5.589  17.012  0.00  0.00    +0.000 OA
ATOM      3  N   UNL     1       3.321   4.901  18.081  0.00  0.00    +0.000 N 
ATOM      4  H   UNL     1       2.522   5.210  18.620  0.00  0.00    +0.000 HD
ENDROOT
BRANCH   3   5
ATOM      5  C   UNL     1       3.453   3.464  17.798  0.00  0.00    +0.000 C 
ATOM      6  C   UNL     1       2.074   2.842  17.536  0.00  0.00    +0.000 C 
ATOM      7  C   UNL     1       1.191   2.840  18.786  0.00  0.00    +0.000 C 
ATOM      8  C   UNL     1       1.885   2.208  19.992  0.00  0.00    +0.000 C 
ATOM      9  C   UNL     1       3.281   2.773  20.237  0.00  0.00    +0.000 C 
ATOM     10  C   UNL     1       4.141   2.736  18.973  0.00  0.00    +0.000 C 
BRANCH  10  11
ATOM     11  O   UNL     1       5.411   3.313  19.263  0.00  0.00    +0.000 OA
ATOM     12  H   UNL     1       5.713   3.764  18.453  0.00  0.00    +0.000 HD
ENDBRANCH  10  11
ENDBRANCH   3   5
BRANCH   1  13
ATOM     13  C   UNL     1       3.748   7.297  17.891  0.00  0.00    +0.000 C 
BRANCH  13  14
ATOM     14  O   UNL     1       2.348   7.394  18.051  0.00  0.00    +0.000 OA
BRANCH  14  22
ATOM     15  C   UNL     1       1.824   5.944  20.817  0.00  0.00    +0.000 C 
ATOM     16  C   UNL     1       1.569   7.378  20.440  0.00  0.00    +0.000 A 
ATOM     17  C   UNL     1       1.042   8.181  21.478  0.00  0.00    +0.000 A 
ATOM     18  C   UNL     1       0.753   9.527  21.292  0.00  0.00    +0.000 A 
ATOM     19  C   UNL     1       0.980  10.107  20.055  0.00  0.00    +0.000 A 
ATOM     20  C   UNL     1       1.506   9.345  18.998  0.00  0.00    +0.000 A 
ATOM     21  C   UNL     1       1.718  10.026  17.670  0.00  0.00    +0.000 C 
ATOM     22  C   UNL     1       1.811   7.970  19.181  0.00  0.00    +0.000 A 
ENDBRANCH  14  22
ENDBRANCH  13  14
ENDBRANCH   1  13
TORSDOF 5
ENDMDL
MODEL 8
REMARK VINA RESULT:      -6.2      2.085      3.564
REMARK  Name = 
REMARK  7 active torsions:
REMARK  status: ('A' for Active; 'I' for Inactive)
REMARK    1  A    between atoms: C_1  and  C_2
REMARK    2  A    between atoms: C_6  and  C_7
REMARK    3  A    between atoms: C_8  and  O_9
REMARK    4  A    between atoms: O_9  and  C_10
REMARK    5  A    between atoms: C_10  and  C_11
REMARK    6  A    between atoms: N_13  and  C_14
REMARK    7  A    between atoms: C_19  and  O_20
REMARK                            x       y       z     vdW  Elec       q    Type
REMARK                         _______ _______ _______ _____ _____    ______ ____
ROOT
ATOM      1  C   UNL     1       3.504   4.478  19.272  0.00  0.00    +0.000 C 
ATOM      2  O   UNL     1       3.486   3.253  19.384  0.00  0.00    +0.000 OA
ATOM      3  N   UNL     1       4.629   5.187  18.905  0.00  0.00    +0.000 N 
ATOM      4  H   UNL     1       4.539   6.187  18.784  0.00  0.00    +0.000 HD
ENDROOT
BRANCH   3   5
ATOM      5  C   UNL     1       5.957   4.581  18.723  0.00  0.00    +0.000 C 
ATOM      6  C   UNL     1       7.056   5.574  19.127  0.00  0.00    +0.000 C 
ATOM      7  C   UNL     1       7.124   6.780  18.187  0.00  0.00    +0.000 C 
ATOM      8  C   UNL     1       7.233   6.371  16.718  0.00  0.00    +0.000 C 
ATOM      9  C   UNL     1       6.183   5.342  16.309  0.00  0.00    +0.000 C 
ATOM     10  C   UNL     1       6.161   4.142  17.257  0.00  0.00    +0.000 C 
BRANCH  10  11
ATOM     11  O   UNL     1       5.135   3.245  16.841  0.00  0.00    +0.000 OA
ATOM     12  H   UNL     1       4.770   3.593  16.007  0.00  0.00    +0.000 HD
ENDBRANCH  10  11
ENDBRANCH   3   5
BRANCH   1  13
ATOM     13  C   UNL     1       2.288   5.356  19.577  0.00  0.00    +0.000 C 
BRANCH  13  14
ATOM     14  O   UNL     1       2.659   6.630  20.058  0.00  0.00    +0.000 OA
BRANCH  14  22
ATOM     15  C   UNL     1       3.340   7.558  17.108  0.00  0.00    +0.000 C 
ATOM     16  C   UNL     1       2.460   8.228  18.129  0.00  0.00    +0.000 A 
ATOM     17  C   UNL     1       1.844   9.422  17.690  0.00  0.00    +0.000 A 
ATOM     18  C   UNL     1       1.000  10.158  18.511  0.00  0.00    +0.000 A 
ATOM     19  C   UNL     1       0.752   9.720  19.801  0.00  0.00    +0.000 A 
ATOM     20  C   UNL     1       1.342   8.536  20.275  0.00  0.00    +0.000 A 
ATOM     21  C   UNL     1       1.049   8.116  21.693  0.00  0.00    +0.000 C 
ATOM     22  C   UNL     1       2.201   7.772  19.440  0.00  0.00    +0.000 A 
ENDBRANCH  14  22
ENDBRANCH  13  14
ENDBRANCH   1  13
TORSDOF 5
ENDMDL
MODEL 9
REMARK VINA RESULT:      -6.1      2.059      2.655
REMARK  Name = 
REMARK  7 active torsions:
REMARK  status: ('A' for Active; 'I' for Inactive)
REMARK    1  A    between atoms: C_1  and  C_2
REMARK    2  A    between atoms: C_6  and  C_7
REMARK    3  A    between atoms: C_8  and  O_9
REMARK    4  A    between atoms: O_9  and  C_10
REMARK    5  A    between atoms: C_10  and  C_11
REMARK    6  A    between atoms: N_13  and  C_14
REMARK    7  A    between atoms: C_19  and  O_20
REMARK                            x       y       z     vdW  Elec       q    Type
REMARK                         _______ _______ _______ _____ _____    ______ ____
ROOT
ATOM      1  C   UNL     1       4.748   2.493  19.151  0.00  0.00    +0.000 C 
ATOM      2  O   UNL     1       5.124   2.313  20.308  0.00  0.00    +0.000 OA
ATOM      3  N   UNL     1       5.165   3.556  18.378  0.00  0.00    +0.000 N 
ATOM      4  H   UNL     1       4.847   3.597  17.418  0.00  0.00    +0.000 HD
ENDROOT
BRANCH   3   5
ATOM      5  C   UNL     1       6.006   4.654  18.878  0.00  0.00    +0.000 C 
ATOM      6  C   UNL     1       5.165   5.922  19.082  0.00  0.00    +0.000 C 
ATOM      7  C   UNL     1       4.646   6.494  17.761  0.00  0.00    +0.000 C 
ATOM      8  C   UNL     1       5.761   6.706  16.737  0.00  0.00    +0.000 C 
ATOM      9  C   UNL     1       6.645   5.475  16.559  0.00  0.00    +0.000 C 
ATOM     10  C   UNL     1       7.163   4.947  17.898  0.00  0.00    +0.000 C 
BRANCH  10  11
ATOM     11  O   UNL     1       7.944   3.779  17.661  0.00  0.00    +0.000 OA
ATOM     12  H   UNL     1       8.877   4.024  17.802  0.00  0.00    +0.000 HD
ENDBRANCH  10  11
ENDBRANCH   3   5
BRANCH   1  13
ATOM     13  C   UNL     1       3.733   1.581  18.458  0.00  0.00    +0.000 C 
BRANCH  13  14
ATOM     14  O   UNL     1       2.403   1.901  18.809  0.00  0.00    +0.000 OA
BRANCH  14  22
ATOM     15  C   UNL     1       2.141   2.495  21.909  0.00  0.00    +0.000 C 
ATOM     16  C   UNL     1       1.988   3.443  20.750  0.00  0.00    +0.000 A 
ATOM     17  C   UNL     1       1.709   4.781  21.110  0.00  0.00    +0.000 A 
ATOM     18  C   UNL     1       1.542   5.779  20.158  0.00  0.00    +0.000 A 
ATOM     19  C   UNL     1       1.644   5.461  18.814  0.00  0.00    +0.000 A 
ATOM     20  C   UNL     1       1.924   4.143  18.414  0.00  0.00    +0.000 A 
ATOM     21  C   UNL     1       2.009   3.854  16.937  0.00  0.00    +0.000 C 
ATOM     22  C   UNL     1       2.104   3.118  19.381  0.00  0.00    +0.000 A 
ENDBRANCH  14  22
ENDBRANCH  13  14
ENDBRANCH   1  13
TORSDOF 5
ENDMDL
