MODEL 1
REMARK VINA RESULT:      -8.7      0.000      0.000
REMARK  Name = 
REMARK  3 active torsions:
REMARK  status: ('A' for Active; 'I' for Inactive)
REMARK    1  A    between atoms: C_2  and  C_17
REMARK    2  A    between atoms: N_3  and  C_4
REMARK    3  A    between atoms: C_9  and  C_10
REMARK                            x       y       z     vdW  Elec       q    Type
REMARK                         _______ _______ _______ _____ _____    ______ ____
ROOT
ATOM      1  O   UNL     1       4.112   7.011  17.077  0.00  0.00    +0.000 OA
ATOM      2  C   UNL     1       3.970   5.883  17.538  0.00  0.00    +0.000 C 
ATOM      3  N   UNL     1       4.516   4.736  16.987  0.00  0.00    +0.000 N 
ATOM      4  H   UNL     1       4.581   3.934  17.611  0.00  0.00    +0.000 HD
ENDROOT
BRANCH   2   5
ATOM      5  C   UNL     1       3.247   5.664  18.775  0.00  0.00    +0.000 A 
ATOM      6  C   UNL     1       2.357   6.553  19.413  0.00  0.00    +0.000 A 
ATOM      7  N   UNL     1       1.797   6.036  20.507  0.00  0.00    +0.000 NA
ATOM      8  N   UNL     1       2.319   4.790  20.594  0.00  0.00    +0.000 N 
ATOM      9  C   UNL     1       2.004   3.799  21.516  0.00  0.00    +0.000 A 
ATOM     10  C   UNL     1       2.625   2.612  21.472  0.00  0.00    +0.000 A 
ATOM     11  C   UNL     1       3.656   2.475  20.407  0.00  0.00    +0.000 A 
ATOM     12  N   UNL     1       3.963   3.372  19.515  0.00  0.00    +0.000 NA
ATOM     13  C   UNL     1       3.260   4.549  19.588  0.00  0.00    +0.000 A 
ENDBRANCH   2   5
BRANCH   3  14
ATOM     14  C   UNL     1       5.349   4.761  15.851  0.00  0.00    +0.000 A 
ATOM     15  C   UNL     1       4.874   4.176  14.669  0.00  0.00    +0.000 A 
ATOM     16  C   UNL     1       5.702   4.088  13.559  0.00  0.00    +0.000 A 
ATOM     17  C   UNL     1       6.976   4.609  13.657  0.00  0.00    +0.000 A 
ATOM     18  N   UNL     1       7.468   5.181  14.780  0.00  0.00    +0.000 NA
ATOM     19  C   UNL     1       6.662   5.265  15.879  0.00  0.00    +0.000 A 
BRANCH  19  20
ATOM     20  C   UNL     1       7.294   5.954  17.036  0.00  0.00    +0.000 A 
ATOM     21  C   UNL     1       7.626   5.224  18.197  0.00  0.00    +0.000 A 
ATOM     22  C   UNL     1       8.194   5.837  19.319  0.00  0.00    +0.000 A 
ATOM     23  C   UNL     1       8.435   7.204  19.312  0.00  0.00    +0.000 A 
ATOM     24  C   UNL     1       8.153   7.942  18.170  0.00  0.00    +0.000 A 
ATOM     25 CL   UNL     1       8.439   9.641  18.150  0.00  0.00    +0.000 Cl
ATOM     26  C   UNL     1       7.621   7.322  17.037  0.00  0.00    +0.000 A 
ENDBRANCH  19  20
ENDBRANCH   3  14
TORSDOF 3
ENDMDL
MODEL 2
REMARK VINA RESULT:      -8.6      2.833      5.004
REMARK  Name = 
REMARK  3 active torsions:
REMARK  status: ('A' for Active; 'I' for Inactive)
REMARK    1  A    between atoms: C_2  and  C_17
REMARK    2  A    between atoms: N_3  and  C_4
REMARK    3  A    between atoms: C_9  and  C_10
REMARK                            x       y       z     vdW  Elec       q    Type
REMARK                         _______ _______ _______ _____ _____    ______ ____
ROOT
ATOM      1  O   UNL     1       2.912   6.200  20.135  0.00  0.00    +0.000 OA
ATOM      2  C   UNL     1       2.475   6.561  19.047  0.00  0.00    +0.000 C 
ATOM      3  N   UNL     1       2.209   5.711  17.987  0.00  0.00    +0.000 N 
ATOM      4  H   UNL     1       1.584   6.078  17.272  0.00  0.00    +0.000 HD
ENDROOT
BRANCH   2   5
ATOM      5  C   UNL     1       2.130   7.947  18.801  0.00  0.00    +0.000 A 
ATOM      6  C   UNL     1       2.437   8.713  17.658  0.00  0.00    +0.000 A 
ATOM      7  N   UNL     1       1.925   9.944  17.700  0.00  0.00    +0.000 NA
ATOM      8  N   UNL     1       1.268   9.993  18.882  0.00  0.00    +0.000 N 
ATOM      9  C   UNL     1       0.492  11.032  19.382  0.00  0.00    +0.000 A 
ATOM     10  C   UNL     1      -0.087  10.927  20.586  0.00  0.00    +0.000 A 
ATOM     11  C   UNL     1       0.194   9.659  21.315  0.00  0.00    +0.000 A 
ATOM     12  N   UNL     1       0.897   8.658  20.872  0.00  0.00    +0.000 NA
ATOM     13  C   UNL     1       1.426   8.812  19.613  0.00  0.00    +0.000 A 
ENDBRANCH   2   5
BRANCH   3  14
ATOM     14  C   UNL     1       2.369   4.314  18.075  0.00  0.00    +0.000 A 
ATOM     15  C   UNL     1       1.282   3.550  18.522  0.00  0.00    +0.000 A 
ATOM     16  C   UNL     1       1.431   2.185  18.721  0.00  0.00    +0.000 A 
ATOM     17  C   UNL     1       2.659   1.619  18.444  0.00  0.00    +0.000 A 
ATOM     18  N   UNL     1       3.729   2.324  18.010  0.00  0.00    +0.000 NA
ATOM     19  C   UNL     1       3.593   3.669  17.819  0.00  0.00    +0.000 A 
BRANCH  19  20
ATOM     20  C   UNL     1       4.820   4.329  17.297  0.00  0.00    +0.000 A 
ATOM     21  C   UNL     1       5.145   4.231  15.928  0.00  0.00    +0.000 A 
ATOM     22  C   UNL     1       6.303   4.811  15.400  0.00  0.00    +0.000 A 
ATOM     23  C   UNL     1       7.176   5.497  16.234  0.00  0.00    +0.000 A 
ATOM     24  C   UNL     1       6.863   5.641  17.579  0.00  0.00    +0.000 A 
ATOM     25 CL   UNL     1       7.941   6.481  18.628  0.00  0.00    +0.000 Cl
ATOM     26  C   UNL     1       5.687   5.094  18.098  0.00  0.00    +0.000 A 
ENDBRANCH  19  20
ENDBRANCH   3  14
TORSDOF 3
ENDMDL
MODEL 3
REMARK VINA RESULT:      -8.5      2.720      5.204
REMARK  Name = 
REMARK  3 active torsions:
REMARK  status: ('A' for Active; 'I' for Inactive)
REMARK    1  A    between atoms: C_2  and  C_17
REMARK    2  A    between atoms: N_3  and  C_4
REMARK    3  A    between atoms: C_9  and  C_10
REMARK                            x       y       z     vdW  Elec       q    Type
REMARK                         _______ _______ _______ _____ _____    ______ ____
ROOT
ATOM      1  O   UNL     1       1.889   5.602  17.855  0.00  0.00    +0.000 OA
ATOM      2  C   UNL     1       2.277   6.346  18.750  0.00  0.00    +0.000 C 
ATOM      3  N   UNL     1       2.954   5.926  19.882  0.00  0.00    +0.000 N 
ATOM      4  H   UNL     1       3.473   6.647  20.380  0.00  0.00    +0.000 HD
ENDROOT
BRANCH   2   5
ATOM      5  C   UNL     1       2.107   7.783  18.656  0.00  0.00    +0.000 A 
ATOM      6  C   UNL     1       2.431   8.612  17.562  0.00  0.00    +0.000 A 
ATOM      7  N   UNL     1       2.096   9.888  17.757  0.00  0.00    +0.000 NA
ATOM      8  N   UNL     1       1.541   9.905  18.991  0.00  0.00    +0.000 N 
ATOM      9  C   UNL     1       0.953  10.981  19.644  0.00  0.00    +0.000 A 
ATOM     10  C   UNL     1       0.456  10.834  20.880  0.00  0.00    +0.000 A 
ATOM     11  C   UNL     1       0.614   9.475  21.468  0.00  0.00    +0.000 A 
ATOM     12  N   UNL     1       1.139   8.440  20.880  0.00  0.00    +0.000 NA
ATOM     13  C   UNL     1       1.590   8.647  19.599  0.00  0.00    +0.000 A 
ENDBRANCH   2   5
BRANCH   3  14
ATOM     14  C   UNL     1       3.316   4.581  20.095  0.00  0.00    +0.000 A 
ATOM     15  C   UNL     1       2.501   3.800  20.925  0.00  0.00    +0.000 A 
ATOM     16  C   UNL     1       2.878   2.503  21.244  0.00  0.00    +0.000 A 
ATOM     17  C   UNL     1       4.051   2.017  20.702  0.00  0.00    +0.000 A 
ATOM     18  N   UNL     1       4.862   2.741  19.896  0.00  0.00    +0.000 NA
ATOM     19  C   UNL     1       4.501   4.020  19.584  0.00  0.00    +0.000 A 
BRANCH  19  20
ATOM     20  C   UNL     1       5.443   4.701  18.656  0.00  0.00    +0.000 A 
ATOM     21  C   UNL     1       6.491   5.494  19.170  0.00  0.00    +0.000 A 
ATOM     22  C   UNL     1       7.381   6.175  18.333  0.00  0.00    +0.000 A 
ATOM     23  C   UNL     1       7.239   6.089  16.954  0.00  0.00    +0.000 A 
ATOM     24  C   UNL     1       6.240   5.287  16.420  0.00  0.00    +0.000 A 
ATOM     25 CL   UNL     1       6.045   5.177  14.712  0.00  0.00    +0.000 Cl
ATOM     26  C   UNL     1       5.374   4.577  17.256  0.00  0.00    +0.000 A 
ENDBRANCH  19  20
ENDBRANCH   3  14
TORSDOF 3
ENDMDL
MODEL 4
REMARK VINA RESULT:      -8.5      3.030      5.102
REMARK  Name = 
REMARK  3 active torsions:
REMARK  status: ('A' for Active; 'I' for Inactive)
REMARK    1  A    between atoms: C_2  and  C_17
REMARK    2  A    between atoms: N_3  and  C_4
REMARK    3  A    between atoms: C_9  and  C_10
REMARK                            x       y       z     vdW  Elec       q    Type
REMARK                         _______ _______ _______ _____ _____    ______ ____
ROOT
ATOM      1  O   UNL     1       2.880   6.148  20.180  0.00  0.00    +0.000 OA
ATOM      2  C   UNL     1       2.493   6.495  19.069  0.00  0.00    +0.000 C 
ATOM      3  N   UNL     1       2.257   5.631  18.014  0.00  0.00    +0.000 N 
ATOM      4  H   UNL     1       1.667   5.994  17.268  0.00  0.00    +0.000 HD
ENDROOT
BRANCH   2   5
ATOM      5  C   UNL     1       2.181   7.882  18.784  0.00  0.00    +0.000 A 
ATOM      6  C   UNL     1       2.537   8.619  17.636  0.00  0.00    +0.000 A 
ATOM      7  N   UNL     1       2.046   9.859  17.638  0.00  0.00    +0.000 NA
ATOM      8  N   UNL     1       1.355   9.944  18.798  0.00  0.00    +0.000 N 
ATOM      9  C   UNL     1       0.583  11.006  19.253  0.00  0.00    +0.000 A 
ATOM     10  C   UNL     1      -0.034  10.936  20.440  0.00  0.00    +0.000 A 
ATOM     11  C   UNL     1       0.201   9.679  21.202  0.00  0.00    +0.000 A 
ATOM     12  N   UNL     1       0.899   8.657  20.802  0.00  0.00    +0.000 NA
ATOM     13  C   UNL     1       1.469   8.775  19.558  0.00  0.00    +0.000 A 
ENDBRANCH   2   5
BRANCH   3  14
ATOM     14  C   UNL     1       2.390   4.233  18.133  0.00  0.00    +0.000 A 
ATOM     15  C   UNL     1       1.269   3.493  18.529  0.00  0.00    +0.000 A 
ATOM     16  C   UNL     1       1.385   2.129  18.757  0.00  0.00    +0.000 A 
ATOM     17  C   UNL     1       2.618   1.541  18.560  0.00  0.00    +0.000 A 
ATOM     18  N   UNL     1       3.722   2.223  18.177  0.00  0.00    +0.000 NA
ATOM     19  C   UNL     1       3.617   3.566  17.958  0.00  0.00    +0.000 A 
BRANCH  19  20
ATOM     20  C   UNL     1       4.881   4.200  17.496  0.00  0.00    +0.000 A 
ATOM     21  C   UNL     1       5.730   4.840  18.424  0.00  0.00    +0.000 A 
ATOM     22  C   UNL     1       6.913   5.473  18.030  0.00  0.00    +0.000 A 
ATOM     23  C   UNL     1       7.273   5.494  16.689  0.00  0.00    +0.000 A 
ATOM     24  C   UNL     1       6.477   4.841  15.758  0.00  0.00    +0.000 A 
ATOM     25 CL   UNL     1       6.906   4.866  14.090  0.00  0.00    +0.000 Cl
ATOM     26  C   UNL     1       5.315   4.176  16.158  0.00  0.00    +0.000 A 
ENDBRANCH  19  20
ENDBRANCH   3  14
TORSDOF 3
ENDMDL
MODEL 5
REMARK VINA RESULT:      -8.4      2.196      6.442
REMARK  Name = 
REMARK  3 active torsions:
REMARK  status: ('A' for Active; 'I' for Inactive)
REMARK    1  A    between atoms: C_2  and  C_17
REMARK    2  A    between atoms: N_3  and  C_4
REMARK    3  A    between atoms: C_9  and  C_10
REMARK                            x       y       z     vdW  Elec       q    Type
REMARK                         _______ _______ _______ _____ _____    ______ ____
ROOT
ATOM      1  O   UNL     1       6.175   5.103  19.928  0.00  0.00    +0.000 OA
ATOM      2  C   UNL     1       5.654   4.925  18.832  0.00  0.00    +0.000 C 
ATOM      3  N   UNL     1       4.392   4.389  18.641  0.00  0.00    +0.000 N 
ATOM      4  H   UNL     1       3.967   4.571  17.734  0.00  0.00    +0.000 HD
ENDROOT
BRANCH   2   5
ATOM      5  C   UNL     1       6.319   5.335  17.611  0.00  0.00    +0.000 A 
ATOM      6  C   UNL     1       7.298   6.338  17.467  0.00  0.00    +0.000 A 
ATOM      7  N   UNL     1       7.767   6.438  16.222  0.00  0.00    +0.000 NA
ATOM      8  N   UNL     1       7.093   5.487  15.534  0.00  0.00    +0.000 N 
ATOM      9  C   UNL     1       7.262   5.119  14.205  0.00  0.00    +0.000 A 
ATOM     10  C   UNL     1       6.499   4.157  13.666  0.00  0.00    +0.000 A 
ATOM     11  C   UNL     1       5.482   3.570  14.581  0.00  0.00    +0.000 A 
ATOM     12  N   UNL     1       5.308   3.874  15.834  0.00  0.00    +0.000 NA
ATOM     13  C   UNL     1       6.150   4.836  16.336  0.00  0.00    +0.000 A 
ENDBRANCH   2   5
BRANCH   3  14
ATOM     14  C   UNL     1       3.545   4.039  19.711  0.00  0.00    +0.000 A 
ATOM     15  C   UNL     1       3.701   2.774  20.292  0.00  0.00    +0.000 A 
ATOM     16  C   UNL     1       2.820   2.351  21.278  0.00  0.00    +0.000 A 
ATOM     17  C   UNL     1       1.821   3.219  21.670  0.00  0.00    +0.000 A 
ATOM     18  N   UNL     1       1.641   4.447  21.134  0.00  0.00    +0.000 NA
ATOM     19  C   UNL     1       2.498   4.867  20.158  0.00  0.00    +0.000 A 
BRANCH  19  20
ATOM     20  C   UNL     1       2.232   6.249  19.677  0.00  0.00    +0.000 A 
ATOM     21  C   UNL     1       2.486   6.590  18.332  0.00  0.00    +0.000 A 
ATOM     22  C   UNL     1       2.277   7.885  17.845  0.00  0.00    +0.000 A 
ATOM     23  C   UNL     1       1.818   8.879  18.698  0.00  0.00    +0.000 A 
ATOM     24  C   UNL     1       1.524   8.564  20.018  0.00  0.00    +0.000 A 
ATOM     25 CL   UNL     1       0.962   9.790  21.091  0.00  0.00    +0.000 Cl
ATOM     26  C   UNL     1       1.697   7.262  20.494  0.00  0.00    +0.000 A 
ENDBRANCH  19  20
ENDBRANCH   3  14
TORSDOF 3
ENDMDL
MODEL 6
REMARK VINA RESULT:      -8.4      2.462      5.076
REMARK  Name = 
REMARK  3 active torsions:
REMARK  status: ('A' for Active; 'I' for Inactive)
REMARK    1  A    between atoms: C_2  and  C_17
REMARK    2  A    between atoms: N_3  and  C_4
REMARK    3  A    between atoms: C_9  and  C_10
REMARK                            x       y       z     vdW  Elec       q    Type
REMARK                         _______ _______ _______ _____ _____    ______ ____
ROOT
ATOM      1  O   UNL     1       1.937   5.694  17.832  0.00  0.00    +0.000 OA
ATOM      2  C   UNL     1       2.260   6.402  18.780  0.00  0.00    +0.000 C 
ATOM      3  N   UNL     1       2.889   5.943  19.924  0.00  0.00    +0.000 N 
ATOM      4  H   UNL     1       3.364   6.650  20.482  0.00  0.00    +0.000 HD
ENDROOT
BRANCH   2   5
ATOM      5  C   UNL     1       2.058   7.837  18.747  0.00  0.00    +0.000 A 
ATOM      6  C   UNL     1       2.313   8.710  17.670  0.00  0.00    +0.000 A 
ATOM      7  N   UNL     1       1.963   9.972  17.925  0.00  0.00    +0.000 NA
ATOM      8  N   UNL     1       1.467   9.933  19.184  0.00  0.00    +0.000 N 
ATOM      9  C   UNL     1       0.889  10.973  19.902  0.00  0.00    +0.000 A 
ATOM     10  C   UNL     1       0.454  10.772  21.154  0.00  0.00    +0.000 A 
ATOM     11  C   UNL     1       0.666   9.397  21.684  0.00  0.00    +0.000 A 
ATOM     12  N   UNL     1       1.183   8.394  21.036  0.00  0.00    +0.000 NA
ATOM     13  C   UNL     1       1.569   8.656  19.743  0.00  0.00    +0.000 A 
ENDBRANCH   2   5
BRANCH   3  14
ATOM     14  C   UNL     1       3.275   4.598  20.091  0.00  0.00    +0.000 A 
ATOM     15  C   UNL     1       2.517   3.794  20.953  0.00  0.00    +0.000 A 
ATOM     16  C   UNL     1       2.923   2.495  21.225  0.00  0.00    +0.000 A 
ATOM     17  C   UNL     1       4.067   2.031  20.608  0.00  0.00    +0.000 A 
ATOM     18  N   UNL     1       4.823   2.777  19.770  0.00  0.00    +0.000 NA
ATOM     19  C   UNL     1       4.434   4.058  19.503  0.00  0.00    +0.000 A 
BRANCH  19  20
ATOM     20  C   UNL     1       5.314   4.764  18.535  0.00  0.00    +0.000 A 
ATOM     21  C   UNL     1       5.209   4.490  17.155  0.00  0.00    +0.000 A 
ATOM     22  C   UNL     1       6.037   5.109  16.212  0.00  0.00    +0.000 A 
ATOM     23  C   UNL     1       7.003   6.014  16.629  0.00  0.00    +0.000 A 
ATOM     24  C   UNL     1       7.106   6.332  17.976  0.00  0.00    +0.000 A 
ATOM     25 CL   UNL     1       8.307   7.447  18.510  0.00  0.00    +0.000 Cl
ATOM     26  C   UNL     1       6.253   5.741  18.913  0.00  0.00    +0.000 A 
ENDBRANCH  19  20
ENDBRANCH   3  14
TORSDOF 3
ENDMDL
MODEL 7
REMARK VINA RESULT:      -8.2      1.285      2.040
REMARK  Name = 
REMARK  3 active torsions:
REMARK  status: ('A' for Active; 'I' for Inactive)
REMARK    1  A    between atoms: C_2  and  C_17
REMARK    2  A    between atoms: N_3  and  C_4
REMARK    3  A    between atoms: C_9  and  C_10
REMARK                            x       y       z     vdW  Elec       q    Type
REMARK                         _______ _______ _______ _____ _____    ______ ____
ROOT
ATOM      1  O   UNL     1       4.067   5.267  16.494  0.00  0.00    +0.000 OA
ATOM      2  C   UNL     1       4.375   4.094  16.678  0.00  0.00    +0.000 C 
ATOM      3  N   UNL     1       5.308   3.401  15.928  0.00  0.00    +0.000 N 
ATOM      4  H   UNL     1       5.684   2.558  16.359  0.00  0.00    +0.000 HD
ENDROOT
BRANCH   2   5
ATOM      5  C   UNL     1       3.810   3.335  17.777  0.00  0.00    +0.000 A 
ATOM      6  C   UNL     1       3.796   1.933  17.928  0.00  0.00    +0.000 A 
ATOM      7  N   UNL     1       3.258   1.537  19.082  0.00  0.00    +0.000 NA
ATOM      8  N   UNL     1       2.914   2.689  19.704  0.00  0.00    +0.000 N 
ATOM      9  C   UNL     1       2.383   2.841  20.979  0.00  0.00    +0.000 A 
ATOM     10  C   UNL     1       2.085   4.061  21.448  0.00  0.00    +0.000 A 
ATOM     11  C   UNL     1       2.339   5.182  20.501  0.00  0.00    +0.000 A 
ATOM     12  N   UNL     1       2.853   5.081  19.310  0.00  0.00    +0.000 NA
ATOM     13  C   UNL     1       3.177   3.808  18.908  0.00  0.00    +0.000 A 
ENDBRANCH   2   5
BRANCH   3  14
ATOM     14  C   UNL     1       6.049   4.003  14.892  0.00  0.00    +0.000 A 
ATOM     15  C   UNL     1       5.817   3.577  13.577  0.00  0.00    +0.000 A 
ATOM     16  C   UNL     1       6.598   4.069  12.541  0.00  0.00    +0.000 A 
ATOM     17  C   UNL     1       7.575   4.993  12.849  0.00  0.00    +0.000 A 
ATOM     18  N   UNL     1       7.827   5.429  14.105  0.00  0.00    +0.000 NA
ATOM     19  C   UNL     1       7.069   4.943  15.130  0.00  0.00    +0.000 A 
BRANCH  19  20
ATOM     20  C   UNL     1       7.405   5.527  16.456  0.00  0.00    +0.000 A 
ATOM     21  C   UNL     1       7.562   4.687  17.579  0.00  0.00    +0.000 A 
ATOM     22  C   UNL     1       7.849   5.196  18.850  0.00  0.00    +0.000 A 
ATOM     23  C   UNL     1       7.976   6.567  19.033  0.00  0.00    +0.000 A 
ATOM     24  C   UNL     1       7.864   7.415  17.940  0.00  0.00    +0.000 A 
ATOM     25 CL   UNL     1       8.010   9.119  18.154  0.00  0.00    +0.000 Cl
ATOM     26  C   UNL     1       7.614   6.903  16.665  0.00  0.00    +0.000 A 
ENDBRANCH  19  20
ENDBRANCH   3  14
TORSDOF 3
ENDMDL
MODEL 8
REMARK VINA RESULT:      -8.0      1.019      1.398
REMARK  Name = 
REMARK  3 active torsions:
REMARK  status: ('A' for Active; 'I' for Inactive)
REMARK    1  A    between atoms: C_2  and  C_17
REMARK    2  A    between atoms: N_3  and  C_4
REMARK    3  A    between atoms: C_9  and  C_10
REMARK                            x       y       z     vdW  Elec       q    Type
REMARK                         _______ _______ _______ _____ _____    ______ ____
ROOT
ATOM      1  O   UNL     1       4.026   6.959  17.032  0.00  0.00    +0.000 OA
ATOM      2  C   UNL     1       3.920   5.833  17.506  0.00  0.00    +0.000 C 
ATOM      3  N   UNL     1       4.500   4.697  16.968  0.00  0.00    +0.000 N 
ATOM      4  H   UNL     1       4.591   3.905  17.601  0.00  0.00    +0.000 HD
ENDROOT
BRANCH   2   5
ATOM      5  C   UNL     1       3.207   5.606  18.747  0.00  0.00    +0.000 A 
ATOM      6  C   UNL     1       2.305   6.482  19.386  0.00  0.00    +0.000 A 
ATOM      7  N   UNL     1       1.759   5.960  20.486  0.00  0.00    +0.000 NA
ATOM      8  N   UNL     1       2.302   4.724  20.574  0.00  0.00    +0.000 N 
ATOM      9  C   UNL     1       2.009   3.731  21.501  0.00  0.00    +0.000 A 
ATOM     10  C   UNL     1       2.650   2.554  21.459  0.00  0.00    +0.000 A 
ATOM     11  C   UNL     1       3.678   2.431  20.389  0.00  0.00    +0.000 A 
ATOM     12  N   UNL     1       3.965   3.329  19.493  0.00  0.00    +0.000 NA
ATOM     13  C   UNL     1       3.242   4.495  19.565  0.00  0.00    +0.000 A 
ENDBRANCH   2   5
BRANCH   3  14
ATOM     14  C   UNL     1       5.329   4.734  15.829  0.00  0.00    +0.000 A 
ATOM     15  C   UNL     1       4.872   4.117  14.657  0.00  0.00    +0.000 A 
ATOM     16  C   UNL     1       5.700   4.041  13.546  0.00  0.00    +0.000 A 
ATOM     17  C   UNL     1       6.956   4.606  13.634  0.00  0.00    +0.000 A 
ATOM     18  N   UNL     1       7.431   5.211  14.747  0.00  0.00    +0.000 NA
ATOM     19  C   UNL     1       6.625   5.283  15.846  0.00  0.00    +0.000 A 
BRANCH  19  20
ATOM     20  C   UNL     1       7.235   6.009  16.992  0.00  0.00    +0.000 A 
ATOM     21  C   UNL     1       7.499   7.392  16.891  0.00  0.00    +0.000 A 
ATOM     22  C   UNL     1       8.098   8.108  17.933  0.00  0.00    +0.000 A 
ATOM     23  C   UNL     1       8.461   7.454  19.103  0.00  0.00    +0.000 A 
ATOM     24  C   UNL     1       8.181   6.102  19.245  0.00  0.00    +0.000 A 
ATOM     25 CL   UNL     1       8.634   5.276  20.687  0.00  0.00    +0.000 Cl
ATOM     26  C   UNL     1       7.548   5.396  18.219  0.00  0.00    +0.000 A 
ENDBRANCH  19  20
ENDBRANCH   3  14
TORSDOF 3
ENDMDL
MODEL 9
REMARK VINA RESULT:      -8.0      1.619      2.175
REMARK  Name = 
REMARK  3 active torsions:
REMARK  status: ('A' for Active; 'I' for Inactive)
REMARK    1  A    between atoms: C_2  and  C_17
REMARK    2  A    between atoms: N_3  and  C_4
REMARK    3  A    between atoms: C_9  and  C_10
REMARK                            x       y       z     vdW  Elec       q    Type
REMARK                         _______ _______ _______ _____ _____    ______ ____
ROOT
ATOM      1  O   UNL     1       4.868   2.203  16.711  0.00  0.00    +0.000 OA
ATOM      2  C   UNL     1       4.275   3.255  16.928  0.00  0.00    +0.000 C 
ATOM      3  N   UNL     1       4.521   4.446  16.267  0.00  0.00    +0.000 N 
ATOM      4  H   UNL     1       3.780   5.142  16.320  0.00  0.00    +0.000 HD
ENDROOT
BRANCH   2   5
ATOM      5  C   UNL     1       3.186   3.317  17.884  0.00  0.00    +0.000 A 
ATOM      6  C   UNL     1       2.312   2.274  18.252  0.00  0.00    +0.000 A 
ATOM      7  N   UNL     1       1.451   2.627  19.208  0.00  0.00    +0.000 NA
ATOM      8  N   UNL     1       1.761   3.916  19.479  0.00  0.00    +0.000 N 
ATOM      9  C   UNL     1       1.212   4.735  20.459  0.00  0.00    +0.000 A 
ATOM     10  C   UNL     1       1.624   6.003  20.591  0.00  0.00    +0.000 A 
ATOM     11  C   UNL     1       2.658   6.438  19.612  0.00  0.00    +0.000 A 
ATOM     12  N   UNL     1       3.209   5.696  18.696  0.00  0.00    +0.000 NA
ATOM     13  C   UNL     1       2.774   4.394  18.642  0.00  0.00    +0.000 A 
ENDBRANCH   2   5
BRANCH   3  14
ATOM     14  C   UNL     1       5.460   4.555  15.223  0.00  0.00    +0.000 A 
ATOM     15  C   UNL     1       5.121   4.028  13.970  0.00  0.00    +0.000 A 
ATOM     16  C   UNL     1       6.056   4.022  12.944  0.00  0.00    +0.000 A 
ATOM     17  C   UNL     1       7.298   4.567  13.198  0.00  0.00    +0.000 A 
ATOM     18  N   UNL     1       7.661   5.087  14.393  0.00  0.00    +0.000 NA
ATOM     19  C   UNL     1       6.749   5.088  15.409  0.00  0.00    +0.000 A 
BRANCH  19  20
ATOM     20  C   UNL     1       7.243   5.725  16.659  0.00  0.00    +0.000 A 
ATOM     21  C   UNL     1       7.510   4.934  17.796  0.00  0.00    +0.000 A 
ATOM     22  C   UNL     1       7.948   5.494  19.001  0.00  0.00    +0.000 A 
ATOM     23  C   UNL     1       8.120   6.868  19.103  0.00  0.00    +0.000 A 
ATOM     24  C   UNL     1       7.900   7.668  17.990  0.00  0.00    +0.000 A 
ATOM     25 CL   UNL     1       8.099   9.376  18.103  0.00  0.00    +0.000 Cl
ATOM     26  C   UNL     1       7.499   7.104  16.776  0.00  0.00    +0.000 A 
ENDBRANCH  19  20
ENDBRANCH   3  14
TORSDOF 3
ENDMDL
