MODEL 1
REMARK VINA RESULT:      -7.0      0.000      0.000
REMARK  Name = 
REMARK  5 active torsions:
REMARK  status: ('A' for Active; 'I' for Inactive)
REMARK    1  A    between atoms: C_2  and  O_3
REMARK    2  A    between atoms: C_2  and  C_4
REMARK    3  A    between atoms: C_7  and  C_8
REMARK    4  A    between atoms: N_13  and  N_14
REMARK    5  A    between atoms: C_15  and  C_17
REMARK                            x       y       z     vdW  Elec       q    Type
REMARK                         _______ _______ _______ _____ _____    ______ ____
ROOT
ATOM      1  C   UNL     1      -2.806  14.897  20.932  0.00  0.00    +0.000 C 
ATOM      2  C   UNL     1      -1.657  14.325  20.541  0.00  0.00    +0.000 C 
ATOM      3  S   UNL     1      -0.461  15.213  19.655  0.00  0.00    +0.000 S 
ATOM      4  C   UNL     1       0.614  13.825  19.499  0.00  0.00    +0.000 C 
ATOM      5  S   UNL     1       1.987  13.871  18.550  0.00  0.00    +0.000 S 
ATOM      6  N   UNL     1       0.075  12.771  20.213  0.00  0.00    +0.000 N 
ATOM      7  C   UNL     1      -1.204  12.915  20.735  0.00  0.00    +0.000 C 
ATOM      8  O   UNL     1      -1.893  12.004  21.178  0.00  0.00    +0.000 OA
ENDROOT
BRANCH   1  12
ATOM      9  C   UNL     1      -5.978  13.105  23.144  0.00  0.00    +0.000 A 
ATOM     10  C   UNL     1      -5.017  13.884  23.798  0.00  0.00    +0.000 A 
ATOM     11  C   UNL     1      -3.968  14.456  23.073  0.00  0.00    +0.000 A 
ATOM     12  C   UNL     1      -3.879  14.257  21.691  0.00  0.00    +0.000 A 
ATOM     13  C   UNL     1      -4.856  13.500  21.034  0.00  0.00    +0.000 A 
ATOM     14  C   UNL     1      -5.909  12.931  21.756  0.00  0.00    +0.000 A 
BRANCH   9  16
ATOM     15  O   UNL     1      -7.460  11.372  23.822  0.00  0.00    +0.000 OA
ATOM     16  C   UNL     1      -7.076  12.520  23.954  0.00  0.00    +0.000 C 
BRANCH  16  17
ATOM     17  O   UNL     1      -7.635  13.396  24.815  0.00  0.00    +0.000 OA
ATOM     18  H   UNL     1      -8.339  13.023  25.378  0.00  0.00    +0.000 HD
ENDBRANCH  16  17
ENDBRANCH   9  16
ENDBRANCH   1  12
BRANCH   6  19
ATOM     19  N   UNL     1       0.633  11.476  20.196  0.00  0.00    +0.000 N 
ATOM     20  C   UNL     1       0.357  10.628  19.140  0.00  0.00    +0.000 C 
ATOM     21  O   UNL     1      -0.461  10.854  18.258  0.00  0.00    +0.000 OA
ATOM     22  H   UNL     1       1.435  11.336  20.801  0.00  0.00    +0.000 HD
BRANCH  20  23
ATOM     23  C   UNL     1       1.099   9.339  19.159  0.00  0.00    +0.000 A 
ATOM     24  C   UNL     1       1.162   8.620  20.359  0.00  0.00    +0.000 A 
ATOM     25  C   UNL     1       1.896   7.432  20.424  0.00  0.00    +0.000 A 
ATOM     26  C   UNL     1       2.550   6.961  19.287  0.00  0.00    +0.000 A 
ATOM     27 BR   UNL     1       3.575   5.374  19.380  0.00  0.00    +0.000 Br
ATOM     28  C   UNL     1       2.462   7.653  18.079  0.00  0.00    +0.000 A 
ATOM     29  C   UNL     1       1.731   8.844  18.012  0.00  0.00    +0.000 A 
ENDBRANCH  20  23
ENDBRANCH   6  19
TORSDOF 5
ENDMDL
MODEL 2
REMARK VINA RESULT:      -6.6      0.704      1.271
REMARK  Name = 
REMARK  5 active torsions:
REMARK  status: ('A' for Active; 'I' for Inactive)
REMARK    1  A    between atoms: C_2  and  O_3
REMARK    2  A    between atoms: C_2  and  C_4
REMARK    3  A    between atoms: C_7  and  C_8
REMARK    4  A    between atoms: N_13  and  N_14
REMARK    5  A    between atoms: C_15  and  C_17
REMARK                            x       y       z     vdW  Elec       q    Type
REMARK                         _______ _______ _______ _____ _____    ______ ____
ROOT
ATOM      1  C   UNL     1      -2.210  14.701  20.684  0.00  0.00    +0.000 C 
ATOM      2  C   UNL     1      -1.100  14.061  20.287  0.00  0.00    +0.000 C 
ATOM      3  S   UNL     1       0.080  14.836  19.281  0.00  0.00    +0.000 S 
ATOM      4  C   UNL     1       1.101  13.403  19.185  0.00  0.00    +0.000 C 
ATOM      5  S   UNL     1       2.428  13.328  18.175  0.00  0.00    +0.000 S 
ATOM      6  N   UNL     1       0.565  12.426  20.003  0.00  0.00    +0.000 N 
ATOM      7  C   UNL     1      -0.683  12.655  20.570  0.00  0.00    +0.000 C 
ATOM      8  O   UNL     1      -1.379  11.805  21.113  0.00  0.00    +0.000 OA
ENDROOT
BRANCH   1  12
ATOM      9  C   UNL     1      -5.322  13.199  23.179  0.00  0.00    +0.000 A 
ATOM     10  C   UNL     1      -4.228  13.864  23.743  0.00  0.00    +0.000 A 
ATOM     11  C   UNL     1      -3.201  14.341  22.924  0.00  0.00    +0.000 A 
ATOM     12  C   UNL     1      -3.265  14.159  21.538  0.00  0.00    +0.000 A 
ATOM     13  C   UNL     1      -4.373  13.517  20.973  0.00  0.00    +0.000 A 
ATOM     14  C   UNL     1      -5.405  13.045  21.790  0.00  0.00    +0.000 A 
BRANCH   9  16
ATOM     15  O   UNL     1      -7.428  13.322  24.278  0.00  0.00    +0.000 OA
ATOM     16  C   UNL     1      -6.391  12.713  24.087  0.00  0.00    +0.000 C 
BRANCH  16  17
ATOM     17  O   UNL     1      -6.082  11.558  24.713  0.00  0.00    +0.000 OA
ATOM     18  H   UNL     1      -5.681  10.878  24.141  0.00  0.00    +0.000 HD
ENDBRANCH  16  17
ENDBRANCH   9  16
ENDBRANCH   1  12
BRANCH   6  19
ATOM     19  N   UNL     1       1.079  11.115  20.062  0.00  0.00    +0.000 N 
ATOM     20  C   UNL     1       0.778  10.217  19.054  0.00  0.00    +0.000 C 
ATOM     21  O   UNL     1      -0.030  10.420  18.158  0.00  0.00    +0.000 OA
ATOM     22  H   UNL     1       1.875  10.984  20.677  0.00  0.00    +0.000 HD
BRANCH  20  23
ATOM     23  C   UNL     1       1.478   8.909  19.150  0.00  0.00    +0.000 A 
ATOM     24  C   UNL     1       2.176   8.439  18.030  0.00  0.00    +0.000 A 
ATOM     25  C   UNL     1       2.800   7.188  18.071  0.00  0.00    +0.000 A 
ATOM     26  C   UNL     1       2.736   6.422  19.233  0.00  0.00    +0.000 A 
ATOM     27 BR   UNL     1       3.547   4.714  19.280  0.00  0.00    +0.000 Br
ATOM     28  C   UNL     1       2.074   6.900  20.364  0.00  0.00    +0.000 A 
ATOM     29  C   UNL     1       1.446   8.149  20.326  0.00  0.00    +0.000 A 
ENDBRANCH  20  23
ENDBRANCH   6  19
TORSDOF 5
ENDMDL
MODEL 3
REMARK VINA RESULT:      -6.6      3.939      8.767
REMARK  Name = 
REMARK  5 active torsions:
REMARK  status: ('A' for Active; 'I' for Inactive)
REMARK    1  A    between atoms: C_2  and  O_3
REMARK    2  A    between atoms: C_2  and  C_4
REMARK    3  A    between atoms: C_7  and  C_8
REMARK    4  A    between atoms: N_13  and  N_14
REMARK    5  A    between atoms: C_15  and  C_17
REMARK                            x       y       z     vdW  Elec       q    Type
REMARK                         _______ _______ _______ _____ _____    ______ ____
ROOT
ATOM      1  C   UNL     1       2.552   8.653  18.377  0.00  0.00    +0.000 C 
ATOM      2  C   UNL     1       1.770   9.720  18.595  0.00  0.00    +0.000 C 
ATOM      3  S   UNL     1       2.220  11.300  18.040  0.00  0.00    +0.000 S 
ATOM      4  C   UNL     1       0.794  12.070  18.732  0.00  0.00    +0.000 C 
ATOM      5  S   UNL     1       0.607  13.730  18.753  0.00  0.00    +0.000 S 
ATOM      6  N   UNL     1      -0.021  11.089  19.265  0.00  0.00    +0.000 N 
ATOM      7  C   UNL     1       0.468   9.789  19.325  0.00  0.00    +0.000 C 
ATOM      8  O   UNL     1      -0.031   8.876  19.971  0.00  0.00    +0.000 OA
ENDROOT
BRANCH   1  12
ATOM      9  C   UNL     1       1.825   4.621  19.553  0.00  0.00    +0.000 A 
ATOM     10  C   UNL     1       1.921   4.952  18.197  0.00  0.00    +0.000 A 
ATOM     11  C   UNL     1       2.143   6.277  17.814  0.00  0.00    +0.000 A 
ATOM     12  C   UNL     1       2.274   7.277  18.784  0.00  0.00    +0.000 A 
ATOM     13  C   UNL     1       2.205   6.940  20.141  0.00  0.00    +0.000 A 
ATOM     14  C   UNL     1       1.989   5.614  20.527  0.00  0.00    +0.000 A 
BRANCH   9  16
ATOM     15  O   UNL     1       2.181   2.275  19.382  0.00  0.00    +0.000 OA
ATOM     16  C   UNL     1       1.593   3.200  19.913  0.00  0.00    +0.000 C 
BRANCH  16  17
ATOM     17  O   UNL     1       0.638   3.032  20.852  0.00  0.00    +0.000 OA
ATOM     18  H   UNL     1      -0.244   2.808  20.502  0.00  0.00    +0.000 HD
ENDBRANCH  16  17
ENDBRANCH   9  16
ENDBRANCH   1  12
BRANCH   6  19
ATOM     19  N   UNL     1      -1.188  11.383  19.998  0.00  0.00    +0.000 N 
ATOM     20  C   UNL     1      -1.080  11.880  21.284  0.00  0.00    +0.000 C 
ATOM     21  O   UNL     1      -0.033  11.963  21.914  0.00  0.00    +0.000 OA
ATOM     22  H   UNL     1      -2.034  11.495  19.450  0.00  0.00    +0.000 HD
BRANCH  20  23
ATOM     23  C   UNL     1      -2.367  12.277  21.914  0.00  0.00    +0.000 A 
ATOM     24  C   UNL     1      -2.515  12.112  23.297  0.00  0.00    +0.000 A 
ATOM     25  C   UNL     1      -3.731  12.426  23.912  0.00  0.00    +0.000 A 
ATOM     26  C   UNL     1      -4.786  12.917  23.144  0.00  0.00    +0.000 A 
ATOM     27 BR   UNL     1      -6.444  13.308  23.965  0.00  0.00    +0.000 Br
ATOM     28  C   UNL     1      -4.634  13.118  21.772  0.00  0.00    +0.000 A 
ATOM     29  C   UNL     1      -3.419  12.802  21.154  0.00  0.00    +0.000 A 
ENDBRANCH  20  23
ENDBRANCH   6  19
TORSDOF 5
ENDMDL
MODEL 4
REMARK VINA RESULT:      -6.6      0.462      1.387
REMARK  Name = 
REMARK  5 active torsions:
REMARK  status: ('A' for Active; 'I' for Inactive)
REMARK    1  A    between atoms: C_2  and  O_3
REMARK    2  A    between atoms: C_2  and  C_4
REMARK    3  A    between atoms: C_7  and  C_8
REMARK    4  A    between atoms: N_13  and  N_14
REMARK    5  A    between atoms: C_15  and  C_17
REMARK                            x       y       z     vdW  Elec       q    Type
REMARK                         _______ _______ _______ _____ _____    ______ ____
ROOT
ATOM      1  C   UNL     1      -2.345  15.105  20.788  0.00  0.00    +0.000 C 
ATOM      2  C   UNL     1      -1.235  14.462  20.396  0.00  0.00    +0.000 C 
ATOM      3  S   UNL     1      -0.035  15.242  19.418  0.00  0.00    +0.000 S 
ATOM      4  C   UNL     1       0.976  13.803  19.314  0.00  0.00    +0.000 C 
ATOM      5  S   UNL     1       2.316  13.732  18.320  0.00  0.00    +0.000 S 
ATOM      6  N   UNL     1       0.420  12.818  20.109  0.00  0.00    +0.000 N 
ATOM      7  C   UNL     1      -0.834  13.048  20.662  0.00  0.00    +0.000 C 
ATOM      8  O   UNL     1      -1.543  12.196  21.184  0.00  0.00    +0.000 OA
ENDROOT
BRANCH   1  12
ATOM      9  C   UNL     1      -5.438  13.432  23.196  0.00  0.00    +0.000 A 
ATOM     10  C   UNL     1      -5.568  13.459  21.803  0.00  0.00    +0.000 A 
ATOM     11  C   UNL     1      -4.560  14.023  21.017  0.00  0.00    +0.000 A 
ATOM     12  C   UNL     1      -3.416  14.559  21.619  0.00  0.00    +0.000 A 
ATOM     13  C   UNL     1      -3.275  14.507  23.011  0.00  0.00    +0.000 A 
ATOM     14  C   UNL     1      -4.279  13.938  23.799  0.00  0.00    +0.000 A 
BRANCH   9  16
ATOM     15  O   UNL     1      -6.780  11.627  23.972  0.00  0.00    +0.000 OA
ATOM     16  C   UNL     1      -6.531  12.819  23.991  0.00  0.00    +0.000 C 
BRANCH  16  17
ATOM     17  O   UNL     1      -7.250  13.716  24.699  0.00  0.00    +0.000 OA
ATOM     18  H   UNL     1      -8.008  13.341  25.184  0.00  0.00    +0.000 HD
ENDBRANCH  16  17
ENDBRANCH   9  16
ENDBRANCH   1  12
BRANCH   6  19
ATOM     19  N   UNL     1       0.923  11.502  20.155  0.00  0.00    +0.000 N 
ATOM     20  C   UNL     1       0.585  10.607  19.157  0.00  0.00    +0.000 C 
ATOM     21  O   UNL     1      -0.246  10.817  18.283  0.00  0.00    +0.000 OA
ATOM     22  H   UNL     1       1.735  11.363  20.747  0.00  0.00    +0.000 HD
BRANCH  20  23
ATOM     23  C   UNL     1       1.275   9.291  19.234  0.00  0.00    +0.000 A 
ATOM     24  C   UNL     1       1.915   8.802  18.089  0.00  0.00    +0.000 A 
ATOM     25  C   UNL     1       2.527   7.545  18.113  0.00  0.00    +0.000 A 
ATOM     26  C   UNL     1       2.508   6.791  19.286  0.00  0.00    +0.000 A 
ATOM     27 BR   UNL     1       3.302   5.075  19.313  0.00  0.00    +0.000 Br
ATOM     28  C   UNL     1       1.903   7.287  20.440  0.00  0.00    +0.000 A 
ATOM     29  C   UNL     1       1.288   8.543  20.418  0.00  0.00    +0.000 A 
ENDBRANCH  20  23
ENDBRANCH   6  19
TORSDOF 5
ENDMDL
MODEL 5
REMARK VINA RESULT:      -6.4      3.970      8.700
REMARK  Name = 
REMARK  5 active torsions:
REMARK  status: ('A' for Active; 'I' for Inactive)
REMARK    1  A    between atoms: C_2  and  O_3
REMARK    2  A    between atoms: C_2  and  C_4
REMARK    3  A    between atoms: C_7  and  C_8
REMARK    4  A    between atoms: N_13  and  N_14
REMARK    5  A    between atoms: C_15  and  C_17
REMARK                            x       y       z     vdW  Elec       q    Type
REMARK                         _______ _______ _______ _____ _____    ______ ____
ROOT
ATOM      1  C   UNL     1       2.684   8.359  18.294  0.00  0.00    +0.000 C 
ATOM      2  C   UNL     1       1.941   9.454  18.510  0.00  0.00    +0.000 C 
ATOM      3  S   UNL     1       2.444  11.014  17.947  0.00  0.00    +0.000 S 
ATOM      4  C   UNL     1       1.050  11.838  18.642  0.00  0.00    +0.000 C 
ATOM      5  S   UNL     1       0.921  13.503  18.657  0.00  0.00    +0.000 S 
ATOM      6  N   UNL     1       0.203  10.888  19.183  0.00  0.00    +0.000 N 
ATOM      7  C   UNL     1       0.646   9.572  19.247  0.00  0.00    +0.000 C 
ATOM      8  O   UNL     1       0.118   8.680  19.899  0.00  0.00    +0.000 OA
ENDROOT
BRANCH   1  12
ATOM      9  C   UNL     1       1.655   4.407  19.515  0.00  0.00    +0.000 A 
ATOM     10  C   UNL     1       1.904   5.397  20.472  0.00  0.00    +0.000 A 
ATOM     11  C   UNL     1       2.257   6.687  20.069  0.00  0.00    +0.000 A 
ATOM     12  C   UNL     1       2.359   6.995  18.708  0.00  0.00    +0.000 A 
ATOM     13  C   UNL     1       2.084   6.012  17.751  0.00  0.00    +0.000 A 
ATOM     14  C   UNL     1       1.724   4.721  18.151  0.00  0.00    +0.000 A 
BRANCH   9  16
ATOM     15  O   UNL     1       1.296   2.068  19.270  0.00  0.00    +0.000 OA
ATOM     16  C   UNL     1       1.279   3.052  19.988  0.00  0.00    +0.000 C 
BRANCH  16  17
ATOM     17  O   UNL     1       0.873   3.025  21.275  0.00  0.00    +0.000 OA
ATOM     18  H   UNL     1      -0.091   2.946  21.399  0.00  0.00    +0.000 HD
ENDBRANCH  16  17
ENDBRANCH   9  16
ENDBRANCH   1  12
BRANCH   6  19
ATOM     19  N   UNL     1      -0.949  11.226  19.921  0.00  0.00    +0.000 N 
ATOM     20  C   UNL     1      -0.818  11.703  21.212  0.00  0.00    +0.000 C 
ATOM     21  O   UNL     1       0.230  11.730  21.843  0.00  0.00    +0.000 OA
ATOM     22  H   UNL     1      -1.789  11.383  19.374  0.00  0.00    +0.000 HD
BRANCH  20  23
ATOM     23  C   UNL     1      -2.086  12.150  21.847  0.00  0.00    +0.000 A 
ATOM     24  C   UNL     1      -2.268  11.918  23.216  0.00  0.00    +0.000 A 
ATOM     25  C   UNL     1      -3.470  12.279  23.833  0.00  0.00    +0.000 A 
ATOM     26  C   UNL     1      -4.476  12.884  23.082  0.00  0.00    +0.000 A 
ATOM     27 BR   UNL     1      -6.118  13.340  23.903  0.00  0.00    +0.000 Br
ATOM     28  C   UNL     1      -4.288  13.151  21.725  0.00  0.00    +0.000 A 
ATOM     29  C   UNL     1      -3.088  12.788  21.105  0.00  0.00    +0.000 A 
ENDBRANCH  20  23
ENDBRANCH   6  19
TORSDOF 5
ENDMDL
MODEL 6
REMARK VINA RESULT:      -6.4      5.749      8.510
REMARK  Name = 
REMARK  5 active torsions:
REMARK  status: ('A' for Active; 'I' for Inactive)
REMARK    1  A    between atoms: C_2  and  O_3
REMARK    2  A    between atoms: C_2  and  C_4
REMARK    3  A    between atoms: C_7  and  C_8
REMARK    4  A    between atoms: N_13  and  N_14
REMARK    5  A    between atoms: C_15  and  C_17
REMARK                            x       y       z     vdW  Elec       q    Type
REMARK                         _______ _______ _______ _____ _____    ______ ____
ROOT
ATOM      1  C   UNL     1      -0.057  11.153  19.140  0.00  0.00    +0.000 C 
ATOM      2  C   UNL     1       0.446  12.391  19.028  0.00  0.00    +0.000 C 
ATOM      3  S   UNL     1      -0.573  13.792  19.110  0.00  0.00    +0.000 S 
ATOM      4  C   UNL     1       0.759  14.913  18.836  0.00  0.00    +0.000 C 
ATOM      5  S   UNL     1       0.505  16.546  18.596  0.00  0.00    +0.000 S 
ATOM      6  N   UNL     1       1.938  14.193  18.797  0.00  0.00    +0.000 N 
ATOM      7  C   UNL     1       1.862  12.806  18.796  0.00  0.00    +0.000 C 
ATOM      8  O   UNL     1       2.788  12.047  18.532  0.00  0.00    +0.000 OA
ENDROOT
BRANCH   1  12
ATOM      9  C   UNL     1       2.224   7.554  19.016  0.00  0.00    +0.000 A 
ATOM     10  C   UNL     1       1.953   8.257  17.837  0.00  0.00    +0.000 A 
ATOM     11  C   UNL     1       1.190   9.426  17.878  0.00  0.00    +0.000 A 
ATOM     12  C   UNL     1       0.700   9.903  19.099  0.00  0.00    +0.000 A 
ATOM     13  C   UNL     1       0.995   9.215  20.281  0.00  0.00    +0.000 A 
ATOM     14  C   UNL     1       1.762   8.047  20.243  0.00  0.00    +0.000 A 
BRANCH   9  16
ATOM     15  O   UNL     1       3.356   5.807  17.866  0.00  0.00    +0.000 OA
ATOM     16  C   UNL     1       3.041   6.319  18.925  0.00  0.00    +0.000 C 
BRANCH  16  17
ATOM     17  O   UNL     1       3.360   5.795  20.127  0.00  0.00    +0.000 OA
ATOM     18  H   UNL     1       3.712   6.436  20.772  0.00  0.00    +0.000 HD
ENDBRANCH  16  17
ENDBRANCH   9  16
ENDBRANCH   1  12
BRANCH   6  19
ATOM     19  N   UNL     1       3.179  14.781  18.477  0.00  0.00    +0.000 N 
ATOM     20  C   UNL     1       4.051  15.129  19.491  0.00  0.00    +0.000 C 
ATOM     21  O   UNL     1       3.781  15.099  20.685  0.00  0.00    +0.000 OA
ATOM     22  H   UNL     1       3.493  14.649  17.521  0.00  0.00    +0.000 HD
BRANCH  20  23
ATOM     23  C   UNL     1       5.380  15.618  19.036  0.00  0.00    +0.000 A 
ATOM     24  C   UNL     1       6.142  14.801  18.193  0.00  0.00    +0.000 A 
ATOM     25  C   UNL     1       7.417  15.209  17.789  0.00  0.00    +0.000 A 
ATOM     26  C   UNL     1       7.916  16.437  18.218  0.00  0.00    +0.000 A 
ATOM     27 BR   UNL     1       9.655  16.977  17.706  0.00  0.00    +0.000 Br
ATOM     28  C   UNL     1       7.148  17.273  19.029  0.00  0.00    +0.000 A 
ATOM     29  C   UNL     1       5.874  16.866  19.436  0.00  0.00    +0.000 A 
ENDBRANCH  20  23
ENDBRANCH   6  19
TORSDOF 5
ENDMDL
MODEL 7
REMARK VINA RESULT:      -6.4      3.981      8.770
REMARK  Name = 
REMARK  5 active torsions:
REMARK  status: ('A' for Active; 'I' for Inactive)
REMARK    1  A    between atoms: C_2  and  O_3
REMARK    2  A    between atoms: C_2  and  C_4
REMARK    3  A    between atoms: C_7  and  C_8
REMARK    4  A    between atoms: N_13  and  N_14
REMARK    5  A    between atoms: C_15  and  C_17
REMARK                            x       y       z     vdW  Elec       q    Type
REMARK                         _______ _______ _______ _____ _____    ______ ____
ROOT
ATOM      1  C   UNL     1       2.618   8.494  18.349  0.00  0.00    +0.000 C 
ATOM      2  C   UNL     1       1.844   9.569  18.560  0.00  0.00    +0.000 C 
ATOM      3  S   UNL     1       2.292  11.136  17.973  0.00  0.00    +0.000 S 
ATOM      4  C   UNL     1       0.881  11.925  18.673  0.00  0.00    +0.000 C 
ATOM      5  S   UNL     1       0.701  13.585  18.669  0.00  0.00    +0.000 S 
ATOM      6  N   UNL     1       0.070  10.956  19.234  0.00  0.00    +0.000 N 
ATOM      7  C   UNL     1       0.554   9.656  19.309  0.00  0.00    +0.000 C 
ATOM      8  O   UNL     1       0.060   8.755  19.977  0.00  0.00    +0.000 OA
ENDROOT
BRANCH   1  12
ATOM      9  C   UNL     1       1.725   4.527  19.626  0.00  0.00    +0.000 A 
ATOM     10  C   UNL     1       1.938   5.539  20.569  0.00  0.00    +0.000 A 
ATOM     11  C   UNL     1       2.247   6.834  20.148  0.00  0.00    +0.000 A 
ATOM     12  C   UNL     1       2.340   7.126  18.782  0.00  0.00    +0.000 A 
ATOM     13  C   UNL     1       2.100   6.120  17.840  0.00  0.00    +0.000 A 
ATOM     14  C   UNL     1       1.785   4.824  18.258  0.00  0.00    +0.000 A 
BRANCH   9  16
ATOM     15  O   UNL     1       1.115   2.930  21.280  0.00  0.00    +0.000 OA
ATOM     16  C   UNL     1       1.394   3.167  20.119  0.00  0.00    +0.000 C 
BRANCH  16  17
ATOM     17  O   UNL     1       1.478   2.214  19.166  0.00  0.00    +0.000 OA
ATOM     18  H   UNL     1       1.471   1.299  19.502  0.00  0.00    +0.000 HD
ENDBRANCH  16  17
ENDBRANCH   9  16
ENDBRANCH   1  12
BRANCH   6  19
ATOM     19  N   UNL     1      -1.085  11.268  19.980  0.00  0.00    +0.000 N 
ATOM     20  C   UNL     1      -0.956  11.745  21.271  0.00  0.00    +0.000 C 
ATOM     21  O   UNL     1       0.096  11.795  21.895  0.00  0.00    +0.000 OA
ATOM     22  H   UNL     1      -1.932  11.407  19.439  0.00  0.00    +0.000 HD
BRANCH  20  23
ATOM     23  C   UNL     1      -2.229  12.163  21.915  0.00  0.00    +0.000 A 
ATOM     24  C   UNL     1      -3.226  12.739  21.118  0.00  0.00    +0.000 A 
ATOM     25  C   UNL     1      -4.414  13.191  21.702  0.00  0.00    +0.000 A 
ATOM     26  C   UNL     1      -4.604  13.051  23.076  0.00  0.00    +0.000 A 
ATOM     27 BR   UNL     1      -6.193  13.695  23.876  0.00  0.00    +0.000 Br
ATOM     28  C   UNL     1      -3.631  12.446  23.871  0.00  0.00    +0.000 A 
ATOM     29  C   UNL     1      -2.441  11.996  23.290  0.00  0.00    +0.000 A 
ENDBRANCH  20  23
ENDBRANCH   6  19
TORSDOF 5
ENDMDL
MODEL 8
REMARK VINA RESULT:      -6.4      0.344      1.144
REMARK  Name = 
REMARK  5 active torsions:
REMARK  status: ('A' for Active; 'I' for Inactive)
REMARK    1  A    between atoms: C_2  and  O_3
REMARK    2  A    between atoms: C_2  and  C_4
REMARK    3  A    between atoms: C_7  and  C_8
REMARK    4  A    between atoms: N_13  and  N_14
REMARK    5  A    between atoms: C_15  and  C_17
REMARK                            x       y       z     vdW  Elec       q    Type
REMARK                         _______ _______ _______ _____ _____    ______ ____
ROOT
ATOM      1  C   UNL     1      -2.593  15.050  20.805  0.00  0.00    +0.000 C 
ATOM      2  C   UNL     1      -1.452  14.428  20.473  0.00  0.00    +0.000 C 
ATOM      3  S   UNL     1      -0.170  15.263  19.660  0.00  0.00    +0.000 S 
ATOM      4  C   UNL     1       0.847  13.827  19.552  0.00  0.00    +0.000 C 
ATOM      5  S   UNL     1       2.271  13.814  18.680  0.00  0.00    +0.000 S 
ATOM      6  N   UNL     1       0.222  12.795  20.228  0.00  0.00    +0.000 N 
ATOM      7  C   UNL     1      -1.076  12.997  20.681  0.00  0.00    +0.000 C 
ATOM      8  O   UNL     1      -1.830  12.117  21.079  0.00  0.00    +0.000 OA
ENDROOT
BRANCH   1  12
ATOM      9  C   UNL     1      -5.883  13.241  22.823  0.00  0.00    +0.000 A 
ATOM     10  C   UNL     1      -5.804  13.198  21.427  0.00  0.00    +0.000 A 
ATOM     11  C   UNL     1      -4.734  13.806  20.767  0.00  0.00    +0.000 A 
ATOM     12  C   UNL     1      -3.734  14.456  21.500  0.00  0.00    +0.000 A 
ATOM     13  C   UNL     1      -3.800  14.475  22.898  0.00  0.00    +0.000 A 
ATOM     14  C   UNL     1      -4.867  13.862  23.561  0.00  0.00    +0.000 A 
BRANCH   9  16
ATOM     15  O   UNL     1      -7.431  12.880  24.593  0.00  0.00    +0.000 OA
ATOM     16  C   UNL     1      -7.036  12.578  23.482  0.00  0.00    +0.000 C 
BRANCH  16  17
ATOM     17  O   UNL     1      -7.573  11.580  22.749  0.00  0.00    +0.000 OA
ATOM     18  H   UNL     1      -7.909  11.850  21.874  0.00  0.00    +0.000 HD
ENDBRANCH  16  17
ENDBRANCH   9  16
ENDBRANCH   1  12
BRANCH   6  19
ATOM     19  N   UNL     1       0.719  11.477  20.232  0.00  0.00    +0.000 N 
ATOM     20  C   UNL     1       0.502  10.662  19.137  0.00  0.00    +0.000 C 
ATOM     21  O   UNL     1      -0.223  10.943  18.191  0.00  0.00    +0.000 OA
ATOM     22  H   UNL     1       1.457  11.288  20.902  0.00  0.00    +0.000 HD
BRANCH  20  23
ATOM     23  C   UNL     1       1.180   9.339  19.193  0.00  0.00    +0.000 A 
ATOM     24  C   UNL     1       1.216   8.657  20.416  0.00  0.00    +0.000 A 
ATOM     25  C   UNL     1       1.892   7.436  20.515  0.00  0.00    +0.000 A 
ATOM     26  C   UNL     1       2.513   6.898  19.389  0.00  0.00    +0.000 A 
ATOM     27 BR   UNL     1       3.459   5.266  19.527  0.00  0.00    +0.000 Br
ATOM     28  C   UNL     1       2.450   7.555  18.160  0.00  0.00    +0.000 A 
ATOM     29  C   UNL     1       1.778   8.777  18.059  0.00  0.00    +0.000 A 
ENDBRANCH  20  23
ENDBRANCH   6  19
TORSDOF 5
ENDMDL
MODEL 9
REMARK VINA RESULT:      -6.3      6.064     12.024
REMARK  Name = 
REMARK  5 active torsions:
REMARK  status: ('A' for Active; 'I' for Inactive)
REMARK    1  A    between atoms: C_2  and  O_3
REMARK    2  A    between atoms: C_2  and  C_4
REMARK    3  A    between atoms: C_7  and  C_8
REMARK    4  A    between atoms: N_13  and  N_14
REMARK    5  A    between atoms: C_15  and  C_17
REMARK                            x       y       z     vdW  Elec       q    Type
REMARK                         _______ _______ _______ _____ _____    ______ ____
ROOT
ATOM      1  C   UNL     1       4.506   3.911  17.408  0.00  0.00    +0.000 C 
ATOM      2  C   UNL     1       3.844   4.812  18.148  0.00  0.00    +0.000 C 
ATOM      3  S   UNL     1       2.853   4.331  19.486  0.00  0.00    +0.000 S 
ATOM      4  C   UNL     1       2.342   5.979  19.844  0.00  0.00    +0.000 C 
ATOM      5  S   UNL     1       1.162   6.314  20.978  0.00  0.00    +0.000 S 
ATOM      6  N   UNL     1       3.021   6.842  19.004  0.00  0.00    +0.000 N 
ATOM      7  C   UNL     1       3.788   6.296  17.982  0.00  0.00    +0.000 C 
ATOM      8  O   UNL     1       4.248   6.920  17.033  0.00  0.00    +0.000 OA
ENDROOT
BRANCH   1  12
ATOM      9  C   UNL     1       7.006   4.819  14.078  0.00  0.00    +0.000 A 
ATOM     10  C   UNL     1       5.698   4.367  13.873  0.00  0.00    +0.000 A 
ATOM     11  C   UNL     1       4.887   4.054  14.966  0.00  0.00    +0.000 A 
ATOM     12  C   UNL     1       5.376   4.196  16.269  0.00  0.00    +0.000 A 
ATOM     13  C   UNL     1       6.676   4.674  16.473  0.00  0.00    +0.000 A 
ATOM     14  C   UNL     1       7.488   4.994  15.382  0.00  0.00    +0.000 A 
BRANCH   9  16
ATOM     15  O   UNL     1       7.608   4.689  11.780  0.00  0.00    +0.000 OA
ATOM     16  C   UNL     1       7.831   5.144  12.888  0.00  0.00    +0.000 C 
BRANCH  16  17
ATOM     17  O   UNL     1       8.876   5.953  13.161  0.00  0.00    +0.000 OA
ATOM     18  H   UNL     1       9.361   6.273  12.378  0.00  0.00    +0.000 HD
ENDBRANCH  16  17
ENDBRANCH   9  16
ENDBRANCH   1  12
BRANCH   6  19
ATOM     19  N   UNL     1       2.754   8.225  18.954  0.00  0.00    +0.000 N 
ATOM     20  C   UNL     1       1.684   8.687  18.210  0.00  0.00    +0.000 C 
ATOM     21  O   UNL     1       1.008   7.998  17.457  0.00  0.00    +0.000 OA
ATOM     22  H   UNL     1       3.172   8.779  19.693  0.00  0.00    +0.000 HD
BRANCH  20  23
ATOM     23  C   UNL     1       1.417  10.144  18.333  0.00  0.00    +0.000 A 
ATOM     24  C   UNL     1       2.441  11.043  18.012  0.00  0.00    +0.000 A 
ATOM     25  C   UNL     1       2.240  12.418  18.168  0.00  0.00    +0.000 A 
ATOM     26  C   UNL     1       1.011  12.887  18.628  0.00  0.00    +0.000 A 
ATOM     27 BR   UNL     1       0.745  14.743  18.876  0.00  0.00    +0.000 Br
ATOM     28  C   UNL     1      -0.027  12.000  18.916  0.00  0.00    +0.000 A 
ATOM     29  C   UNL     1       0.173  10.624  18.764  0.00  0.00    +0.000 A 
ENDBRANCH  20  23
ENDBRANCH   6  19
TORSDOF 5
ENDMDL
