MODEL 1
REMARK VINA RESULT:      -8.6      0.000      0.000
REMARK  Name = 
REMARK  8 active torsions:
REMARK  status: ('A' for Active; 'I' for Inactive)
REMARK    1  A    between atoms: C_1  and  N_2
REMARK    2  A    between atoms: N_2  and  C_3
REMARK    3  A    between atoms: C_3  and  C_4
REMARK    4  A    between atoms: C_4  and  C_5
REMARK    5  A    between atoms: C_5  and  N_6
REMARK    6  A    between atoms: C_9  and  C_10
REMARK    7  A    between atoms: C_10  and  C_12
REMARK    8  A    between atoms: C_21  and  C_23
REMARK                            x       y       z     vdW  Elec       q    Type
REMARK                         _______ _______ _______ _____ _____    ______ ____
ROOT
ATOM      1  C   UNL     1       1.016   4.810  20.374  0.00  0.00    +0.000 C 
ENDROOT
BRANCH   1   2
ATOM      2  N   UNL     1       1.625   3.787  19.511  0.00  0.00    +0.000 NA
ATOM      3  C   UNL     1       1.858   4.296  18.155  0.00  0.00    +0.000 C 
ATOM      4  C   UNL     1       2.441   3.210  17.262  0.00  0.00    +0.000 C 
ATOM      5  C   UNL     1       3.770   2.696  17.812  0.00  0.00    +0.000 C 
ATOM      6  C   UNL     1       3.518   2.193  19.245  0.00  0.00    +0.000 C 
ATOM      7  C   UNL     1       2.849   3.256  20.128  0.00  0.00    +0.000 C 
BRANCH   5   8
ATOM      8  C   UNL     1       4.888   3.747  17.798  0.00  0.00    +0.000 C 
ATOM      9  O   UNL     1       5.286   4.282  18.833  0.00  0.00    +0.000 OA
BRANCH   8  10
ATOM     10  C   UNL     1       5.568   4.131  16.525  0.00  0.00    +0.000 A 
ATOM     11  C   UNL     1       5.113   3.735  15.261  0.00  0.00    +0.000 A 
ATOM     12  C   UNL     1       5.811   4.119  14.112  0.00  0.00    +0.000 A 
ATOM     13  C   UNL     1       6.973   4.874  14.229  0.00  0.00    +0.000 A 
ATOM     14  F   UNL     1       7.647   5.220  13.126  0.00  0.00    +0.000 F 
ATOM     15  C   UNL     1       7.447   5.268  15.472  0.00  0.00    +0.000 A 
ATOM     16  C   UNL     1       6.742   4.901  16.618  0.00  0.00    +0.000 A 
ENDBRANCH   8  10
ENDBRANCH   5   8
ENDBRANCH   1   2
BRANCH   1  17
ATOM     17  C   UNL     1       1.983   5.956  20.700  0.00  0.00    +0.000 C 
BRANCH  17  18
ATOM     18  C   UNL     1       1.444   7.300  20.204  0.00  0.00    +0.000 C 
BRANCH  18  20
ATOM     19  C   UNL     1       3.146   7.184  18.326  0.00  0.00    +0.000 C 
ATOM     20  N   UNL     1       2.149   7.929  19.082  0.00  0.00    +0.000 N 
ATOM     21  C   UNL     1       1.685   9.121  18.485  0.00  0.00    +0.000 C 
ATOM     22  O   UNL     1       2.086   9.444  17.360  0.00  0.00    +0.000 OA
BRANCH  21  23
ATOM     23  C   UNL     1       0.704   9.977  19.195  0.00  0.00    +0.000 A 
ATOM     24  N   UNL     1       1.023  10.563  20.359  0.00  0.00    +0.000 NA
ATOM     25  S   UNL     1      -0.216  11.508  20.872  0.00  0.00    +0.000 S 
ATOM     26  C   UNL     1      -1.243  11.237  19.526  0.00  0.00    +0.000 A 
ATOM     27  C   UNL     1      -2.503  11.794  19.250  0.00  0.00    +0.000 A 
ATOM     28  C   UNL     1      -3.145  11.424  18.067  0.00  0.00    +0.000 A 
ATOM     29  C   UNL     1      -2.564  10.500  17.207  0.00  0.00    +0.000 A 
ATOM     30  C   UNL     1      -1.315   9.943  17.502  0.00  0.00    +0.000 A 
ATOM     31  C   UNL     1      -0.612  10.331  18.673  0.00  0.00    +0.000 A 
ENDBRANCH  21  23
ENDBRANCH  18  20
ENDBRANCH  17  18
ENDBRANCH   1  17
TORSDOF 7
ENDMDL
MODEL 2
REMARK VINA RESULT:      -8.4      7.131      8.883
REMARK  Name = 
REMARK  8 active torsions:
REMARK  status: ('A' for Active; 'I' for Inactive)
REMARK    1  A    between atoms: C_1  and  N_2
REMARK    2  A    between atoms: N_2  and  C_3
REMARK    3  A    between atoms: C_3  and  C_4
REMARK    4  A    between atoms: C_4  and  C_5
REMARK    5  A    between atoms: C_5  and  N_6
REMARK    6  A    between atoms: C_9  and  C_10
REMARK    7  A    between atoms: C_10  and  C_12
REMARK    8  A    between atoms: C_21  and  C_23
REMARK                            x       y       z     vdW  Elec       q    Type
REMARK                         _______ _______ _______ _____ _____    ______ ____
ROOT
ATOM      1  C   UNL     1       7.542   8.810  17.627  0.00  0.00    +0.000 C 
ENDROOT
BRANCH   1   2
ATOM      2  N   UNL     1       7.393   7.383  17.302  0.00  0.00    +0.000 NA
ATOM      3  C   UNL     1       7.790   6.531  18.428  0.00  0.00    +0.000 C 
ATOM      4  C   UNL     1       7.677   5.059  18.058  0.00  0.00    +0.000 C 
ATOM      5  C   UNL     1       6.245   4.695  17.669  0.00  0.00    +0.000 C 
ATOM      6  C   UNL     1       5.830   5.616  16.507  0.00  0.00    +0.000 C 
ATOM      7  C   UNL     1       6.025   7.102  16.843  0.00  0.00    +0.000 C 
BRANCH   5   8
ATOM      8  C   UNL     1       5.247   4.805  18.828  0.00  0.00    +0.000 C 
ATOM      9  O   UNL     1       5.471   5.513  19.811  0.00  0.00    +0.000 OA
BRANCH   8  10
ATOM     10  C   UNL     1       3.939   4.085  18.789  0.00  0.00    +0.000 A 
ATOM     11  C   UNL     1       3.678   2.923  19.526  0.00  0.00    +0.000 A 
ATOM     12  C   UNL     1       2.434   2.293  19.426  0.00  0.00    +0.000 A 
ATOM     13  C   UNL     1       1.465   2.808  18.572  0.00  0.00    +0.000 A 
ATOM     14  F   UNL     1       0.284   2.187  18.466  0.00  0.00    +0.000 F 
ATOM     15  C   UNL     1       1.706   3.952  17.825  0.00  0.00    +0.000 A 
ATOM     16  C   UNL     1       2.940   4.592  17.937  0.00  0.00    +0.000 A 
ENDBRANCH   8  10
ENDBRANCH   5   8
ENDBRANCH   1   2
BRANCH   1  17
ATOM     17  C   UNL     1       8.758   9.086  18.522  0.00  0.00    +0.000 C 
BRANCH  17  18
ATOM     18  C   UNL     1       9.124  10.572  18.525  0.00  0.00    +0.000 C 
BRANCH  18  20
ATOM     19  C   UNL     1       8.973  10.563  21.058  0.00  0.00    +0.000 C 
ATOM     20  N   UNL     1       9.437  11.180  19.823  0.00  0.00    +0.000 N 
ATOM     21  C   UNL     1      10.440  12.163  19.963  0.00  0.00    +0.000 C 
ATOM     22  O   UNL     1      10.908  12.412  21.080  0.00  0.00    +0.000 OA
BRANCH  21  23
ATOM     23  C   UNL     1      10.947  12.885  18.770  0.00  0.00    +0.000 A 
ATOM     24  N   UNL     1      11.713  12.258  17.865  0.00  0.00    +0.000 NA
ATOM     25  S   UNL     1      12.058  13.271  16.621  0.00  0.00    +0.000 S 
ATOM     26  C   UNL     1      11.146  14.606  17.192  0.00  0.00    +0.000 A 
ATOM     27  C   UNL     1      10.931  15.853  16.584  0.00  0.00    +0.000 A 
ATOM     28  C   UNL     1      10.128  16.783  17.247  0.00  0.00    +0.000 A 
ATOM     29  C   UNL     1       9.590  16.489  18.494  0.00  0.00    +0.000 A 
ATOM     30  C   UNL     1       9.825  15.247  19.095  0.00  0.00    +0.000 A 
ATOM     31  C   UNL     1      10.598  14.260  18.428  0.00  0.00    +0.000 A 
ENDBRANCH  21  23
ENDBRANCH  18  20
ENDBRANCH  17  18
ENDBRANCH   1  17
TORSDOF 7
ENDMDL
MODEL 3
REMARK VINA RESULT:      -8.4      3.928      9.083
REMARK  Name = 
REMARK  8 active torsions:
REMARK  status: ('A' for Active; 'I' for Inactive)
REMARK    1  A    between atoms: C_1  and  N_2
REMARK    2  A    between atoms: N_2  and  C_3
REMARK    3  A    between atoms: C_3  and  C_4
REMARK    4  A    between atoms: C_4  and  C_5
REMARK    5  A    between atoms: C_5  and  N_6
REMARK    6  A    between atoms: C_9  and  C_10
REMARK    7  A    between atoms: C_10  and  C_12
REMARK    8  A    between atoms: C_21  and  C_23
REMARK                            x       y       z     vdW  Elec       q    Type
REMARK                         _______ _______ _______ _____ _____    ______ ____
ROOT
ATOM      1  C   UNL     1       2.457   7.895  18.648  0.00  0.00    +0.000 C 
ENDROOT
BRANCH   1   2
ATOM      2  N   UNL     1       1.243   8.693  18.877  0.00  0.00    +0.000 NA
ATOM      3  C   UNL     1       1.004   8.912  20.307  0.00  0.00    +0.000 C 
ATOM      4  C   UNL     1      -0.281   9.696  20.527  0.00  0.00    +0.000 C 
ATOM      5  C   UNL     1      -0.221  11.060  19.842  0.00  0.00    +0.000 C 
ATOM      6  C   UNL     1       0.060  10.818  18.348  0.00  0.00    +0.000 C 
ATOM      7  C   UNL     1       1.308   9.953  18.122  0.00  0.00    +0.000 C 
BRANCH   5   8
ATOM      8  C   UNL     1       0.829  12.003  20.443  0.00  0.00    +0.000 C 
ATOM      9  O   UNL     1       1.377  11.761  21.519  0.00  0.00    +0.000 OA
BRANCH   8  10
ATOM     10  C   UNL     1       1.259  13.238  19.720  0.00  0.00    +0.000 A 
ATOM     11  C   UNL     1       2.524  13.386  19.138  0.00  0.00    +0.000 A 
ATOM     12  C   UNL     1       2.863  14.578  18.491  0.00  0.00    +0.000 A 
ATOM     13  C   UNL     1       1.950  15.627  18.450  0.00  0.00    +0.000 A 
ATOM     14  F   UNL     1       2.290  16.772  17.848  0.00  0.00    +0.000 F 
ATOM     15  C   UNL     1       0.696  15.505  19.030  0.00  0.00    +0.000 A 
ATOM     16  C   UNL     1       0.349  14.310  19.660  0.00  0.00    +0.000 A 
ENDBRANCH   8  10
ENDBRANCH   5   8
ENDBRANCH   1   2
BRANCH   1  17
ATOM     17  C   UNL     1       2.550   6.684  19.586  0.00  0.00    +0.000 C 
BRANCH  17  18
ATOM     18  C   UNL     1       2.573   5.370  18.801  0.00  0.00    +0.000 C 
BRANCH  18  20
ATOM     19  C   UNL     1       1.938   3.324  20.161  0.00  0.00    +0.000 C 
ATOM     20  N   UNL     1       2.955   4.159  19.536  0.00  0.00    +0.000 N 
ATOM     21  C   UNL     1       4.234   3.578  19.402  0.00  0.00    +0.000 C 
ATOM     22  O   UNL     1       4.420   2.408  19.755  0.00  0.00    +0.000 OA
BRANCH  21  23
ATOM     23  C   UNL     1       5.351   4.362  18.821  0.00  0.00    +0.000 A 
ATOM     24  N   UNL     1       6.234   4.986  19.615  0.00  0.00    +0.000 NA
ATOM     25  S   UNL     1       7.398   5.702  18.708  0.00  0.00    +0.000 S 
ATOM     26  C   UNL     1       6.822   5.167  17.185  0.00  0.00    +0.000 A 
ATOM     27  C   UNL     1       7.378   5.364  15.911  0.00  0.00    +0.000 A 
ATOM     28  C   UNL     1       6.723   4.810  14.810  0.00  0.00    +0.000 A 
ATOM     29  C   UNL     1       5.532   4.114  14.973  0.00  0.00    +0.000 A 
ATOM     30  C   UNL     1       4.981   3.938  16.247  0.00  0.00    +0.000 A 
ATOM     31  C   UNL     1       5.645   4.447  17.395  0.00  0.00    +0.000 A 
ENDBRANCH  21  23
ENDBRANCH  18  20
ENDBRANCH  17  18
ENDBRANCH   1  17
TORSDOF 7
ENDMDL
MODEL 4
REMARK VINA RESULT:      -8.3      3.862      9.590
REMARK  Name = 
REMARK  8 active torsions:
REMARK  status: ('A' for Active; 'I' for Inactive)
REMARK    1  A    between atoms: C_1  and  N_2
REMARK    2  A    between atoms: N_2  and  C_3
REMARK    3  A    between atoms: C_3  and  C_4
REMARK    4  A    between atoms: C_4  and  C_5
REMARK    5  A    between atoms: C_5  and  N_6
REMARK    6  A    between atoms: C_9  and  C_10
REMARK    7  A    between atoms: C_10  and  C_12
REMARK    8  A    between atoms: C_21  and  C_23
REMARK                            x       y       z     vdW  Elec       q    Type
REMARK                         _______ _______ _______ _____ _____    ______ ____
ROOT
ATOM      1  C   UNL     1       2.613   7.749  18.457  0.00  0.00    +0.000 C 
ENDROOT
BRANCH   1   2
ATOM      2  N   UNL     1       2.100   9.021  18.989  0.00  0.00    +0.000 NA
ATOM      3  C   UNL     1       1.866   9.996  17.918  0.00  0.00    +0.000 C 
ATOM      4  C   UNL     1       1.384  11.321  18.491  0.00  0.00    +0.000 C 
ATOM      5  C   UNL     1       0.080  11.146  19.268  0.00  0.00    +0.000 C 
ATOM      6  C   UNL     1       0.331  10.099  20.368  0.00  0.00    +0.000 C 
ATOM      7  C   UNL     1       0.901   8.789  19.807  0.00  0.00    +0.000 C 
BRANCH   5   8
ATOM      8  C   UNL     1      -1.108  10.733  18.390  0.00  0.00    +0.000 C 
ATOM      9  O   UNL     1      -0.978   9.943  17.454  0.00  0.00    +0.000 OA
BRANCH   8  10
ATOM     10  C   UNL     1      -2.484  11.245  18.666  0.00  0.00    +0.000 A 
ATOM     11  C   UNL     1      -2.763  12.214  19.638  0.00  0.00    +0.000 A 
ATOM     12  C   UNL     1      -4.080  12.632  19.853  0.00  0.00    +0.000 A 
ATOM     13  C   UNL     1      -5.115  12.065  19.117  0.00  0.00    +0.000 A 
ATOM     14  F   UNL     1      -6.375  12.456  19.343  0.00  0.00    +0.000 F 
ATOM     15  C   UNL     1      -4.862  11.096  18.157  0.00  0.00    +0.000 A 
ATOM     16  C   UNL     1      -3.547  10.690  17.929  0.00  0.00    +0.000 A 
ENDBRANCH   8  10
ENDBRANCH   5   8
ENDBRANCH   1   2
BRANCH   1  17
ATOM     17  C   UNL     1       2.508   6.602  19.470  0.00  0.00    +0.000 C 
BRANCH  17  18
ATOM     18  C   UNL     1       2.681   5.240  18.793  0.00  0.00    +0.000 C 
BRANCH  18  20
ATOM     19  C   UNL     1       2.233   3.288  20.352  0.00  0.00    +0.000 C 
ATOM     20  N   UNL     1       3.170   4.137  19.627  0.00  0.00    +0.000 N 
ATOM     21  C   UNL     1       4.488   3.646  19.515  0.00  0.00    +0.000 C 
ATOM     22  O   UNL     1       4.772   2.531  19.969  0.00  0.00    +0.000 OA
BRANCH  21  23
ATOM     23  C   UNL     1       5.530   4.455  18.837  0.00  0.00    +0.000 A 
ATOM     24  N   UNL     1       6.411   5.172  19.550  0.00  0.00    +0.000 NA
ATOM     25  S   UNL     1       7.488   5.898  18.547  0.00  0.00    +0.000 S 
ATOM     26  C   UNL     1       6.873   5.244  17.087  0.00  0.00    +0.000 A 
ATOM     27  C   UNL     1       7.357   5.398  15.777  0.00  0.00    +0.000 A 
ATOM     28  C   UNL     1       6.684   4.745  14.742  0.00  0.00    +0.000 A 
ATOM     29  C   UNL     1       5.544   3.995  15.003  0.00  0.00    +0.000 A 
ATOM     30  C   UNL     1       5.065   3.863  16.311  0.00  0.00    +0.000 A 
ATOM     31  C   UNL     1       5.751   4.474  17.395  0.00  0.00    +0.000 A 
ENDBRANCH  21  23
ENDBRANCH  18  20
ENDBRANCH  17  18
ENDBRANCH   1  17
TORSDOF 7
ENDMDL
MODEL 5
REMARK VINA RESULT:      -8.2      3.940      9.152
REMARK  Name = 
REMARK  8 active torsions:
REMARK  status: ('A' for Active; 'I' for Inactive)
REMARK    1  A    between atoms: C_1  and  N_2
REMARK    2  A    between atoms: N_2  and  C_3
REMARK    3  A    between atoms: C_3  and  C_4
REMARK    4  A    between atoms: C_4  and  C_5
REMARK    5  A    between atoms: C_5  and  N_6
REMARK    6  A    between atoms: C_9  and  C_10
REMARK    7  A    between atoms: C_10  and  C_12
REMARK    8  A    between atoms: C_21  and  C_23
REMARK                            x       y       z     vdW  Elec       q    Type
REMARK                         _______ _______ _______ _____ _____    ______ ____
ROOT
ATOM      1  C   UNL     1       2.600   7.914  18.584  0.00  0.00    +0.000 C 
ENDROOT
BRANCH   1   2
ATOM      2  N   UNL     1       1.325   8.564  18.926  0.00  0.00    +0.000 NA
ATOM      3  C   UNL     1       1.191   8.758  20.373  0.00  0.00    +0.000 C 
ATOM      4  C   UNL     1      -0.154   9.385  20.712  0.00  0.00    +0.000 C 
ATOM      5  C   UNL     1      -0.317  10.745  20.034  0.00  0.00    +0.000 C 
ATOM      6  C   UNL     1      -0.144  10.532  18.519  0.00  0.00    +0.000 C 
ATOM      7  C   UNL     1       1.172   9.820  18.177  0.00  0.00    +0.000 C 
BRANCH   5   8
ATOM      8  C   UNL     1       0.664  11.808  20.546  0.00  0.00    +0.000 C 
ATOM      9  O   UNL     1       1.442  11.579  21.472  0.00  0.00    +0.000 OA
BRANCH   8  10
ATOM     10  C   UNL     1       0.740  13.156  19.907  0.00  0.00    +0.000 A 
ATOM     11  C   UNL     1      -0.364  14.009  19.778  0.00  0.00    +0.000 A 
ATOM     12  C   UNL     1      -0.220  15.251  19.152  0.00  0.00    +0.000 A 
ATOM     13  C   UNL     1       1.015  15.627  18.636  0.00  0.00    +0.000 A 
ATOM     14  F   UNL     1       1.139  16.809  18.019  0.00  0.00    +0.000 F 
ATOM     15  C   UNL     1       2.119  14.793  18.743  0.00  0.00    +0.000 A 
ATOM     16  C   UNL     1       1.982  13.561  19.383  0.00  0.00    +0.000 A 
ENDBRANCH   8  10
ENDBRANCH   5   8
ENDBRANCH   1   2
BRANCH   1  17
ATOM     17  C   UNL     1       2.505   6.383  18.613  0.00  0.00    +0.000 C 
BRANCH  17  18
ATOM     18  C   UNL     1       3.149   5.807  19.877  0.00  0.00    +0.000 C 
BRANCH  18  20
ATOM     19  C   UNL     1       2.137   3.582  20.558  0.00  0.00    +0.000 C 
ATOM     20  N   UNL     1       3.234   4.346  19.977  0.00  0.00    +0.000 N 
ATOM     21  C   UNL     1       4.186   3.603  19.248  0.00  0.00    +0.000 C 
ATOM     22  O   UNL     1       4.029   2.387  19.088  0.00  0.00    +0.000 OA
BRANCH  21  23
ATOM     23  C   UNL     1       5.366   4.280  18.657  0.00  0.00    +0.000 A 
ATOM     24  N   UNL     1       6.365   4.719  19.437  0.00  0.00    +0.000 NA
ATOM     25  S   UNL     1       7.565   5.350  18.513  0.00  0.00    +0.000 S 
ATOM     26  C   UNL     1       6.842   5.019  16.994  0.00  0.00    +0.000 A 
ATOM     27  C   UNL     1       7.351   5.246  15.705  0.00  0.00    +0.000 A 
ATOM     28  C   UNL     1       6.570   4.873  14.610  0.00  0.00    +0.000 A 
ATOM     29  C   UNL     1       5.307   4.326  14.797  0.00  0.00    +0.000 A 
ATOM     30  C   UNL     1       4.807   4.119  16.087  0.00  0.00    +0.000 A 
ATOM     31  C   UNL     1       5.593   4.443  17.225  0.00  0.00    +0.000 A 
ENDBRANCH  21  23
ENDBRANCH  18  20
ENDBRANCH  17  18
ENDBRANCH   1  17
TORSDOF 7
ENDMDL
MODEL 6
REMARK VINA RESULT:      -8.2      4.270      9.346
REMARK  Name = 
REMARK  8 active torsions:
REMARK  status: ('A' for Active; 'I' for Inactive)
REMARK    1  A    between atoms: C_1  and  N_2
REMARK    2  A    between atoms: N_2  and  C_3
REMARK    3  A    between atoms: C_3  and  C_4
REMARK    4  A    between atoms: C_4  and  C_5
REMARK    5  A    between atoms: C_5  and  N_6
REMARK    6  A    between atoms: C_9  and  C_10
REMARK    7  A    between atoms: C_10  and  C_12
REMARK    8  A    between atoms: C_21  and  C_23
REMARK                            x       y       z     vdW  Elec       q    Type
REMARK                         _______ _______ _______ _____ _____    ______ ____
ROOT
ATOM      1  C   UNL     1       1.808   8.811  18.703  0.00  0.00    +0.000 C 
ENDROOT
BRANCH   1   2
ATOM      2  N   UNL     1       0.866   9.832  19.186  0.00  0.00    +0.000 NA
ATOM      3  C   UNL     1       1.099  10.154  20.598  0.00  0.00    +0.000 C 
ATOM      4  C   UNL     1       0.085  11.174  21.095  0.00  0.00    +0.000 C 
ATOM      5  C   UNL     1       0.167  12.471  20.292  0.00  0.00    +0.000 C 
ATOM      6  C   UNL     1      -0.049  12.116  18.810  0.00  0.00    +0.000 C 
ATOM      7  C   UNL     1       0.914  11.023  18.326  0.00  0.00    +0.000 C 
BRANCH   5   8
ATOM      8  C   UNL     1       1.489  13.227  20.479  0.00  0.00    +0.000 C 
ATOM      9  O   UNL     1       2.283  12.930  21.372  0.00  0.00    +0.000 OA
BRANCH   8  10
ATOM     10  C   UNL     1       1.883  14.331  19.553  0.00  0.00    +0.000 A 
ATOM     11  C   UNL     1       1.176  15.536  19.450  0.00  0.00    +0.000 A 
ATOM     12  C   UNL     1       1.594  16.518  18.547  0.00  0.00    +0.000 A 
ATOM     13  C   UNL     1       2.699  16.286  17.735  0.00  0.00    +0.000 A 
ATOM     14  F   UNL     1       3.080  17.223  16.858  0.00  0.00    +0.000 F 
ATOM     15  C   UNL     1       3.406  15.095  17.814  0.00  0.00    +0.000 A 
ATOM     16  C   UNL     1       3.001  14.121  18.726  0.00  0.00    +0.000 A 
ENDBRANCH   8  10
ENDBRANCH   5   8
ENDBRANCH   1   2
BRANCH   1  17
ATOM     17  C   UNL     1       1.986   7.657  19.697  0.00  0.00    +0.000 C 
BRANCH  17  18
ATOM     18  C   UNL     1       2.966   6.608  19.167  0.00  0.00    +0.000 C 
BRANCH  18  20
ATOM     19  C   UNL     1       1.820   4.823  20.559  0.00  0.00    +0.000 C 
ATOM     20  N   UNL     1       2.998   5.314  19.857  0.00  0.00    +0.000 N 
ATOM     21  C   UNL     1       4.011   4.362  19.610  0.00  0.00    +0.000 C 
ATOM     22  O   UNL     1       3.841   3.182  19.936  0.00  0.00    +0.000 OA
BRANCH  21  23
ATOM     23  C   UNL     1       5.271   4.772  18.944  0.00  0.00    +0.000 A 
ATOM     24  N   UNL     1       6.304   5.238  19.661  0.00  0.00    +0.000 NA
ATOM     25  S   UNL     1       7.584   5.534  18.678  0.00  0.00    +0.000 S 
ATOM     26  C   UNL     1       6.849   4.996  17.226  0.00  0.00    +0.000 A 
ATOM     27  C   UNL     1       7.400   4.905  15.937  0.00  0.00    +0.000 A 
ATOM     28  C   UNL     1       6.596   4.415  14.907  0.00  0.00    +0.000 A 
ATOM     29  C   UNL     1       5.274   4.063  15.148  0.00  0.00    +0.000 A 
ATOM     30  C   UNL     1       4.734   4.172  16.434  0.00  0.00    +0.000 A 
ATOM     31  C   UNL     1       5.536   4.622  17.517  0.00  0.00    +0.000 A 
ENDBRANCH  21  23
ENDBRANCH  18  20
ENDBRANCH  17  18
ENDBRANCH   1  17
TORSDOF 7
ENDMDL
MODEL 7
REMARK VINA RESULT:      -8.1      3.801      9.469
REMARK  Name = 
REMARK  8 active torsions:
REMARK  status: ('A' for Active; 'I' for Inactive)
REMARK    1  A    between atoms: C_1  and  N_2
REMARK    2  A    between atoms: N_2  and  C_3
REMARK    3  A    between atoms: C_3  and  C_4
REMARK    4  A    between atoms: C_4  and  C_5
REMARK    5  A    between atoms: C_5  and  N_6
REMARK    6  A    between atoms: C_9  and  C_10
REMARK    7  A    between atoms: C_10  and  C_12
REMARK    8  A    between atoms: C_21  and  C_23
REMARK                            x       y       z     vdW  Elec       q    Type
REMARK                         _______ _______ _______ _____ _____    ______ ____
ROOT
ATOM      1  C   UNL     1       1.481   7.874  20.835  0.00  0.00    +0.000 C 
ENDROOT
BRANCH   1   2
ATOM      2  N   UNL     1       1.163   9.264  20.476  0.00  0.00    +0.000 NA
ATOM      3  C   UNL     1       1.475   9.540  19.069  0.00  0.00    +0.000 C 
ATOM      4  C   UNL     1       1.188  10.995  18.728  0.00  0.00    +0.000 C 
ATOM      5  C   UNL     1      -0.282  11.340  18.966  0.00  0.00    +0.000 C 
ATOM      6  C   UNL     1      -0.603  11.017  20.436  0.00  0.00    +0.000 C 
ATOM      7  C   UNL     1      -0.234   9.575  20.811  0.00  0.00    +0.000 C 
BRANCH   5   8
ATOM      8  C   UNL     1      -1.245  10.601  18.027  0.00  0.00    +0.000 C 
ATOM      9  O   UNL     1      -0.915   9.570  17.441  0.00  0.00    +0.000 OA
BRANCH   8  10
ATOM     10  C   UNL     1      -2.643  11.086  17.822  0.00  0.00    +0.000 A 
ATOM     11  C   UNL     1      -3.406  11.684  18.834  0.00  0.00    +0.000 A 
ATOM     12  C   UNL     1      -4.715  12.098  18.573  0.00  0.00    +0.000 A 
ATOM     13  C   UNL     1      -5.268  11.892  17.313  0.00  0.00    +0.000 A 
ATOM     14  F   UNL     1      -6.529  12.272  17.078  0.00  0.00    +0.000 F 
ATOM     15  C   UNL     1      -4.534  11.292  16.300  0.00  0.00    +0.000 A 
ATOM     16  C   UNL     1      -3.221  10.894  16.554  0.00  0.00    +0.000 A 
ENDBRANCH   8  10
ENDBRANCH   5   8
ENDBRANCH   1   2
BRANCH   1  17
ATOM     17  C   UNL     1       1.780   7.002  19.609  0.00  0.00    +0.000 C 
BRANCH  17  18
ATOM     18  C   UNL     1       3.148   6.325  19.723  0.00  0.00    +0.000 C 
BRANCH  18  20
ATOM     19  C   UNL     1       2.009   4.240  20.614  0.00  0.00    +0.000 C 
ATOM     20  N   UNL     1       3.159   4.883  19.993  0.00  0.00    +0.000 N 
ATOM     21  C   UNL     1       4.100   4.020  19.392  0.00  0.00    +0.000 C 
ATOM     22  O   UNL     1       3.890   2.802  19.366  0.00  0.00    +0.000 OA
BRANCH  21  23
ATOM     23  C   UNL     1       5.329   4.573  18.774  0.00  0.00    +0.000 A 
ATOM     24  N   UNL     1       6.325   5.048  19.537  0.00  0.00    +0.000 NA
ATOM     25  S   UNL     1       7.583   5.516  18.594  0.00  0.00    +0.000 S 
ATOM     26  C   UNL     1       6.892   5.054  17.095  0.00  0.00    +0.000 A 
ATOM     27  C   UNL     1       7.451   5.114  15.808  0.00  0.00    +0.000 A 
ATOM     28  C   UNL     1       6.686   4.659  14.732  0.00  0.00    +0.000 A 
ATOM     29  C   UNL     1       5.392   4.195  14.932  0.00  0.00    +0.000 A 
ATOM     30  C   UNL     1       4.842   4.155  16.218  0.00  0.00    +0.000 A 
ATOM     31  C   UNL     1       5.608   4.566  17.341  0.00  0.00    +0.000 A 
ENDBRANCH  21  23
ENDBRANCH  18  20
ENDBRANCH  17  18
ENDBRANCH   1  17
TORSDOF 7
ENDMDL
MODEL 8
REMARK VINA RESULT:      -8.1      3.900      9.470
REMARK  Name = 
REMARK  8 active torsions:
REMARK  status: ('A' for Active; 'I' for Inactive)
REMARK    1  A    between atoms: C_1  and  N_2
REMARK    2  A    between atoms: N_2  and  C_3
REMARK    3  A    between atoms: C_3  and  C_4
REMARK    4  A    between atoms: C_4  and  C_5
REMARK    5  A    between atoms: C_5  and  N_6
REMARK    6  A    between atoms: C_9  and  C_10
REMARK    7  A    between atoms: C_10  and  C_12
REMARK    8  A    between atoms: C_21  and  C_23
REMARK                            x       y       z     vdW  Elec       q    Type
REMARK                         _______ _______ _______ _____ _____    ______ ____
ROOT
ATOM      1  C   UNL     1       1.585   7.037  20.390  0.00  0.00    +0.000 C 
ENDROOT
BRANCH   1   2
ATOM      2  N   UNL     1       1.618   8.470  20.060  0.00  0.00    +0.000 NA
ATOM      3  C   UNL     1       1.628   8.688  18.609  0.00  0.00    +0.000 C 
ATOM      4  C   UNL     1       1.713  10.173  18.286  0.00  0.00    +0.000 C 
ATOM      5  C   UNL     1       0.526  10.935  18.873  0.00  0.00    +0.000 C 
ATOM      6  C   UNL     1       0.509  10.674  20.390  0.00  0.00    +0.000 C 
ATOM      7  C   UNL     1       0.513   9.175  20.724  0.00  0.00    +0.000 C 
BRANCH   5   8
ATOM      8  C   UNL     1      -0.820  10.554  18.245  0.00  0.00    +0.000 C 
ATOM      9  O   UNL     1      -0.910   9.669  17.392  0.00  0.00    +0.000 OA
BRANCH   8  10
ATOM     10  C   UNL     1      -2.087  11.217  18.677  0.00  0.00    +0.000 A 
ATOM     11  C   UNL     1      -2.154  12.130  19.737  0.00  0.00    +0.000 A 
ATOM     12  C   UNL     1      -3.380  12.698  20.097  0.00  0.00    +0.000 A 
ATOM     13  C   UNL     1      -4.537  12.336  19.415  0.00  0.00    +0.000 A 
ATOM     14  F   UNL     1      -5.709  12.868  19.780  0.00  0.00    +0.000 F 
ATOM     15  C   UNL     1      -4.495  11.426  18.369  0.00  0.00    +0.000 A 
ATOM     16  C   UNL     1      -3.270  10.870  17.997  0.00  0.00    +0.000 A 
ENDBRANCH   8  10
ENDBRANCH   5   8
ENDBRANCH   1   2
BRANCH   1  17
ATOM     17  C   UNL     1       2.720   6.252  19.718  0.00  0.00    +0.000 C 
BRANCH  17  18
ATOM     18  C   UNL     1       2.331   4.788  19.495  0.00  0.00    +0.000 C 
BRANCH  18  20
ATOM     19  C   UNL     1       2.655   3.133  21.390  0.00  0.00    +0.000 C 
ATOM     20  N   UNL     1       3.141   3.771  20.174  0.00  0.00    +0.000 N 
ATOM     21  C   UNL     1       4.231   3.139  19.538  0.00  0.00    +0.000 C 
ATOM     22  O   UNL     1       4.677   2.078  19.989  0.00  0.00    +0.000 OA
BRANCH  21  23
ATOM     23  C   UNL     1       4.830   3.736  18.320  0.00  0.00    +0.000 A 
ATOM     24  N   UNL     1       4.338   3.449  17.105  0.00  0.00    +0.000 NA
ATOM     25  S   UNL     1       5.137   4.307  15.957  0.00  0.00    +0.000 S 
ATOM     26  C   UNL     1       6.162   5.167  17.028  0.00  0.00    +0.000 A 
ATOM     27  C   UNL     1       7.111   6.160  16.737  0.00  0.00    +0.000 A 
ATOM     28  C   UNL     1       7.820   6.730  17.796  0.00  0.00    +0.000 A 
ATOM     29  C   UNL     1       7.614   6.294  19.099  0.00  0.00    +0.000 A 
ATOM     30  C   UNL     1       6.676   5.293  19.373  0.00  0.00    +0.000 A 
ATOM     31  C   UNL     1       5.902   4.725  18.326  0.00  0.00    +0.000 A 
ENDBRANCH  21  23
ENDBRANCH  18  20
ENDBRANCH  17  18
ENDBRANCH   1  17
TORSDOF 7
ENDMDL
MODEL 9
REMARK VINA RESULT:      -8.1      4.238      9.719
REMARK  Name = 
REMARK  8 active torsions:
REMARK  status: ('A' for Active; 'I' for Inactive)
REMARK    1  A    between atoms: C_1  and  N_2
REMARK    2  A    between atoms: N_2  and  C_3
REMARK    3  A    between atoms: C_3  and  C_4
REMARK    4  A    between atoms: C_4  and  C_5
REMARK    5  A    between atoms: C_5  and  N_6
REMARK    6  A    between atoms: C_9  and  C_10
REMARK    7  A    between atoms: C_10  and  C_12
REMARK    8  A    between atoms: C_21  and  C_23
REMARK                            x       y       z     vdW  Elec       q    Type
REMARK                         _______ _______ _______ _____ _____    ______ ____
ROOT
ATOM      1  C   UNL     1       1.100   8.414  18.083  0.00  0.00    +0.000 C 
ENDROOT
BRANCH   1   2
ATOM      2  N   UNL     1       0.877   9.864  17.985  0.00  0.00    +0.000 NA
ATOM      3  C   UNL     1      -0.302  10.280  18.752  0.00  0.00    +0.000 C 
ATOM      4  C   UNL     1      -0.548  11.774  18.599  0.00  0.00    +0.000 C 
ATOM      5  C   UNL     1       0.650  12.584  19.093  0.00  0.00    +0.000 C 
ATOM      6  C   UNL     1       1.885  12.118  18.301  0.00  0.00    +0.000 C 
ATOM      7  C   UNL     1       2.088  10.598  18.379  0.00  0.00    +0.000 C 
BRANCH   5   8
ATOM      8  C   UNL     1       0.896  12.460  20.602  0.00  0.00    +0.000 C 
ATOM      9  O   UNL     1       2.025  12.560  21.084  0.00  0.00    +0.000 OA
BRANCH   8  10
ATOM     10  C   UNL     1      -0.237  12.254  21.553  0.00  0.00    +0.000 A 
ATOM     11  C   UNL     1      -0.388  11.098  22.329  0.00  0.00    +0.000 A 
ATOM     12  C   UNL     1      -1.485  10.967  23.186  0.00  0.00    +0.000 A 
ATOM     13  C   UNL     1      -2.440  11.977  23.246  0.00  0.00    +0.000 A 
ATOM     14  F   UNL     1      -3.498  11.835  24.053  0.00  0.00    +0.000 F 
ATOM     15  C   UNL     1      -2.315  13.125  22.477  0.00  0.00    +0.000 A 
ATOM     16  C   UNL     1      -1.212  13.265  21.635  0.00  0.00    +0.000 A 
ENDBRANCH   8  10
ENDBRANCH   5   8
ENDBRANCH   1   2
BRANCH   1  17
ATOM     17  C   UNL     1       2.331   8.063  18.930  0.00  0.00    +0.000 C 
BRANCH  17  18
ATOM     18  C   UNL     1       2.963   6.745  18.479  0.00  0.00    +0.000 C 
BRANCH  18  20
ATOM     19  C   UNL     1       1.699   5.286  20.125  0.00  0.00    +0.000 C 
ATOM     20  N   UNL     1       2.932   5.629  19.430  0.00  0.00    +0.000 N 
ATOM     21  C   UNL     1       3.956   4.659  19.474  0.00  0.00    +0.000 C 
ATOM     22  O   UNL     1       3.754   3.573  20.031  0.00  0.00    +0.000 OA
BRANCH  21  23
ATOM     23  C   UNL     1       5.267   4.930  18.837  0.00  0.00    +0.000 A 
ATOM     24  N   UNL     1       6.324   5.300  19.577  0.00  0.00    +0.000 NA
ATOM     25  S   UNL     1       7.652   5.452  18.626  0.00  0.00    +0.000 S 
ATOM     26  C   UNL     1       6.903   4.972  17.160  0.00  0.00    +0.000 A 
ATOM     27  C   UNL     1       7.475   4.809  15.888  0.00  0.00    +0.000 A 
ATOM     28  C   UNL     1       6.652   4.389  14.841  0.00  0.00    +0.000 A 
ATOM     29  C   UNL     1       5.295   4.175  15.051  0.00  0.00    +0.000 A 
ATOM     30  C   UNL     1       4.737   4.355  16.321  0.00  0.00    +0.000 A 
ATOM     31  C   UNL     1       5.553   4.736  17.420  0.00  0.00    +0.000 A 
ENDBRANCH  21  23
ENDBRANCH  18  20
ENDBRANCH  17  18
ENDBRANCH   1  17
TORSDOF 7
ENDMDL
