MODEL 1
REMARK VINA RESULT:      -7.4      0.000      0.000
REMARK  Name = 
REMARK  4 active torsions:
REMARK  status: ('A' for Active; 'I' for Inactive)
REMARK    1  A    between atoms: N_1  and  C_2
REMARK    2  A    between atoms: C_2  and  C_3
REMARK    3  A    between atoms: C_5  and  C_6
REMARK    4  A    between atoms: C_13  and  C_14
REMARK                            x       y       z     vdW  Elec       q    Type
REMARK                         _______ _______ _______ _____ _____    ______ ____
ROOT
ATOM      1  C   UNL     1       6.907   5.332  18.172  0.00  0.00    +0.000 A 
ATOM      2  C   UNL     1       5.796   4.760  18.778  0.00  0.00    +0.000 A 
ATOM      3  C   UNL     1       4.772   4.243  17.998  0.00  0.00    +0.000 A 
ATOM      4  N   UNL     1       4.888   4.108  16.656  0.00  0.00    +0.000 NA
ATOM      5  C   UNL     1       6.019   4.583  16.054  0.00  0.00    +0.000 A 
ATOM      6  C   UNL     1       7.020   5.233  16.783  0.00  0.00    +0.000 A 
ENDROOT
BRANCH   3   7
ATOM      7  C   UNL     1       3.462   3.967  18.587  0.00  0.00    +0.000 A 
ATOM      8  C   UNL     1       2.381   3.465  17.863  0.00  0.00    +0.000 A 
ATOM      9  C   UNL     1       1.152   3.269  18.494  0.00  0.00    +0.000 A 
ATOM     10  C   UNL     1       1.036   3.582  19.838  0.00  0.00    +0.000 A 
ATOM     11  N   UNL     1       2.050   4.066  20.585  0.00  0.00    +0.000 NA
ATOM     12  C   UNL     1       3.220   4.254  19.938  0.00  0.00    +0.000 A 
ENDBRANCH   3   7
BRANCH   5  13
ATOM     13  C   UNL     1       6.192   4.417  14.548  0.00  0.00    +0.000 C 
ATOM     14  F   UNL     1       7.209   5.155  14.017  0.00  0.00    +0.000 F 
ATOM     15  F   UNL     1       6.444   3.125  14.185  0.00  0.00    +0.000 F 
ATOM     16  F   UNL     1       5.075   4.781  13.852  0.00  0.00    +0.000 F 
ENDBRANCH   5  13
BRANCH   1  17
ATOM     17  C   UNL     1       7.921   5.982  19.066  0.00  0.00    +0.000 C 
BRANCH  17  18
ATOM     18  N   UNL     1       7.986   5.383  20.383  0.00  0.00    +0.000 NA
ATOM     19  H   UNL     1       8.119   6.112  21.089  0.00  0.00    +0.000 HD
ATOM     20  H   UNL     1       8.829   4.807  20.444  0.00  0.00    +0.000 HD
ENDBRANCH  17  18
ENDBRANCH   1  17
TORSDOF 4
ENDMDL
MODEL 2
REMARK VINA RESULT:      -7.3      0.736      1.461
REMARK  Name = 
REMARK  4 active torsions:
REMARK  status: ('A' for Active; 'I' for Inactive)
REMARK    1  A    between atoms: N_1  and  C_2
REMARK    2  A    between atoms: C_2  and  C_3
REMARK    3  A    between atoms: C_5  and  C_6
REMARK    4  A    between atoms: C_13  and  C_14
REMARK                            x       y       z     vdW  Elec       q    Type
REMARK                         _______ _______ _______ _____ _____    ______ ____
ROOT
ATOM      1  C   UNL     1       6.879   5.306  18.200  0.00  0.00    +0.000 A 
ATOM      2  C   UNL     1       5.789   4.676  18.787  0.00  0.00    +0.000 A 
ATOM      3  C   UNL     1       4.793   4.130  17.990  0.00  0.00    +0.000 A 
ATOM      4  N   UNL     1       4.925   4.023  16.648  0.00  0.00    +0.000 NA
ATOM      5  C   UNL     1       6.039   4.557  16.062  0.00  0.00    +0.000 A 
ATOM      6  C   UNL     1       7.006   5.236  16.810  0.00  0.00    +0.000 A 
ENDROOT
BRANCH   3   7
ATOM      7  C   UNL     1       3.493   3.789  18.565  0.00  0.00    +0.000 A 
ATOM      8  C   UNL     1       3.244   3.746  19.937  0.00  0.00    +0.000 A 
ATOM      9  C   UNL     1       1.984   3.368  20.403  0.00  0.00    +0.000 A 
ATOM     10  C   UNL     1       1.002   3.044  19.482  0.00  0.00    +0.000 A 
ATOM     11  N   UNL     1       1.189   3.073  18.146  0.00  0.00    +0.000 NA
ATOM     12  C   UNL     1       2.424   3.430  17.732  0.00  0.00    +0.000 A 
ENDBRANCH   3   7
BRANCH   5  13
ATOM     13  C   UNL     1       6.230   4.424  14.555  0.00  0.00    +0.000 C 
ATOM     14  F   UNL     1       6.446   3.146  14.129  0.00  0.00    +0.000 F 
ATOM     15  F   UNL     1       5.154   4.873  13.846  0.00  0.00    +0.000 F 
ATOM     16  F   UNL     1       7.296   5.146  14.100  0.00  0.00    +0.000 F 
ENDBRANCH   5  13
BRANCH   1  17
ATOM     17  C   UNL     1       7.858   5.983  19.112  0.00  0.00    +0.000 C 
BRANCH  17  18
ATOM     18  N   UNL     1       7.963   5.344  20.409  0.00  0.00    +0.000 NA
ATOM     19  H   UNL     1       8.480   4.466  20.321  0.00  0.00    +0.000 HD
ATOM     20  H   UNL     1       7.029   5.065  20.716  0.00  0.00    +0.000 HD
ENDBRANCH  17  18
ENDBRANCH   1  17
TORSDOF 4
ENDMDL
MODEL 3
REMARK VINA RESULT:      -7.3      0.522      1.057
REMARK  Name = 
REMARK  4 active torsions:
REMARK  status: ('A' for Active; 'I' for Inactive)
REMARK    1  A    between atoms: N_1  and  C_2
REMARK    2  A    between atoms: C_2  and  C_3
REMARK    3  A    between atoms: C_5  and  C_6
REMARK    4  A    between atoms: C_13  and  C_14
REMARK                            x       y       z     vdW  Elec       q    Type
REMARK                         _______ _______ _______ _____ _____    ______ ____
ROOT
ATOM      1  C   UNL     1       6.844   5.236  18.057  0.00  0.00    +0.000 A 
ATOM      2  C   UNL     1       5.816   4.536  18.676  0.00  0.00    +0.000 A 
ATOM      3  C   UNL     1       4.823   3.944  17.909  0.00  0.00    +0.000 A 
ATOM      4  N   UNL     1       4.909   3.862  16.561  0.00  0.00    +0.000 NA
ATOM      5  C   UNL     1       5.967   4.467  15.942  0.00  0.00    +0.000 A 
ATOM      6  C   UNL     1       6.921   5.192  16.663  0.00  0.00    +0.000 A 
ENDROOT
BRANCH   3   7
ATOM      7  C   UNL     1       3.568   3.519  18.527  0.00  0.00    +0.000 A 
ATOM      8  C   UNL     1       2.339   3.538  17.867  0.00  0.00    +0.000 A 
ATOM      9  C   UNL     1       1.181   3.155  18.544  0.00  0.00    +0.000 A 
ATOM     10  C   UNL     1       1.282   2.762  19.867  0.00  0.00    +0.000 A 
ATOM     11  N   UNL     1       2.444   2.721  20.551  0.00  0.00    +0.000 NA
ATOM     12  C   UNL     1       3.542   3.110  19.867  0.00  0.00    +0.000 A 
ENDBRANCH   3   7
BRANCH   5  13
ATOM     13  C   UNL     1       6.107   4.366  14.427  0.00  0.00    +0.000 C 
ATOM     14  F   UNL     1       4.945   4.578  13.742  0.00  0.00    +0.000 F 
ATOM     15  F   UNL     1       7.004   5.261  13.919  0.00  0.00    +0.000 F 
ATOM     16  F   UNL     1       6.548   3.137  14.026  0.00  0.00    +0.000 F 
ENDBRANCH   5  13
BRANCH   1  17
ATOM     17  C   UNL     1       7.817   5.957  18.943  0.00  0.00    +0.000 C 
BRANCH  17  18
ATOM     18  N   UNL     1       7.889   5.403  20.280  0.00  0.00    +0.000 NA
ATOM     19  H   UNL     1       7.230   5.890  20.892  0.00  0.00    +0.000 HD
ATOM     20  H   UNL     1       8.810   5.608  20.673  0.00  0.00    +0.000 HD
ENDBRANCH  17  18
ENDBRANCH   1  17
TORSDOF 4
ENDMDL
MODEL 4
REMARK VINA RESULT:      -7.3      0.753      1.061
REMARK  Name = 
REMARK  4 active torsions:
REMARK  status: ('A' for Active; 'I' for Inactive)
REMARK    1  A    between atoms: N_1  and  C_2
REMARK    2  A    between atoms: C_2  and  C_3
REMARK    3  A    between atoms: C_5  and  C_6
REMARK    4  A    between atoms: C_13  and  C_14
REMARK                            x       y       z     vdW  Elec       q    Type
REMARK                         _______ _______ _______ _____ _____    ______ ____
ROOT
ATOM      1  C   UNL     1       6.850   5.314  18.267  0.00  0.00    +0.000 A 
ATOM      2  C   UNL     1       5.765   4.714  18.892  0.00  0.00    +0.000 A 
ATOM      3  C   UNL     1       4.737   4.178  18.129  0.00  0.00    +0.000 A 
ATOM      4  N   UNL     1       4.830   4.051  16.785  0.00  0.00    +0.000 NA
ATOM      5  C   UNL     1       5.939   4.554  16.163  0.00  0.00    +0.000 A 
ATOM      6  C   UNL     1       6.939   5.223  16.875  0.00  0.00    +0.000 A 
ENDROOT
BRANCH   3   7
ATOM      7  C   UNL     1       3.446   3.871  18.742  0.00  0.00    +0.000 A 
ATOM      8  C   UNL     1       2.781   4.735  19.613  0.00  0.00    +0.000 A 
ATOM      9  C   UNL     1       1.571   4.346  20.189  0.00  0.00    +0.000 A 
ATOM     10  C   UNL     1       1.055   3.099  19.877  0.00  0.00    +0.000 A 
ATOM     11  N   UNL     1       1.654   2.228  19.039  0.00  0.00    +0.000 NA
ATOM     12  C   UNL     1       2.829   2.634  18.511  0.00  0.00    +0.000 A 
ENDBRANCH   3   7
BRANCH   5  13
ATOM     13  C   UNL     1       6.086   4.398  14.653  0.00  0.00    +0.000 C 
ATOM     14  F   UNL     1       7.081   5.156  14.107  0.00  0.00    +0.000 F 
ATOM     15  F   UNL     1       6.352   3.113  14.279  0.00  0.00    +0.000 F 
ATOM     16  F   UNL     1       4.950   4.748  13.980  0.00  0.00    +0.000 F 
ENDBRANCH   5  13
BRANCH   1  17
ATOM     17  C   UNL     1       7.867   5.982  19.144  0.00  0.00    +0.000 C 
BRANCH  17  18
ATOM     18  N   UNL     1       7.996   5.357  20.445  0.00  0.00    +0.000 NA
ATOM     19  H   UNL     1       8.734   5.821  20.980  0.00  0.00    +0.000 HD
ATOM     20  H   UNL     1       8.330   4.399  20.320  0.00  0.00    +0.000 HD
ENDBRANCH  17  18
ENDBRANCH   1  17
TORSDOF 4
ENDMDL
MODEL 5
REMARK VINA RESULT:      -7.3      3.478      5.731
REMARK  Name = 
REMARK  4 active torsions:
REMARK  status: ('A' for Active; 'I' for Inactive)
REMARK    1  A    between atoms: N_1  and  C_2
REMARK    2  A    between atoms: C_2  and  C_3
REMARK    3  A    between atoms: C_5  and  C_6
REMARK    4  A    between atoms: C_13  and  C_14
REMARK                            x       y       z     vdW  Elec       q    Type
REMARK                         _______ _______ _______ _____ _____    ______ ____
ROOT
ATOM      1  C   UNL     1       2.482   6.223  19.087  0.00  0.00    +0.000 A 
ATOM      2  C   UNL     1       3.349   6.210  18.003  0.00  0.00    +0.000 A 
ATOM      3  C   UNL     1       3.752   5.001  17.454  0.00  0.00    +0.000 A 
ATOM      4  N   UNL     1       3.191   3.825  17.816  0.00  0.00    +0.000 NA
ATOM      5  C   UNL     1       2.264   3.832  18.821  0.00  0.00    +0.000 A 
ATOM      6  C   UNL     1       1.925   5.009  19.496  0.00  0.00    +0.000 A 
ENDROOT
BRANCH   3   7
ATOM      7  C   UNL     1       4.914   4.944  16.567  0.00  0.00    +0.000 A 
ATOM      8  C   UNL     1       5.061   4.002  15.549  0.00  0.00    +0.000 A 
ATOM      9  C   UNL     1       6.221   3.990  14.775  0.00  0.00    +0.000 A 
ATOM     10  C   UNL     1       7.208   4.925  15.039  0.00  0.00    +0.000 A 
ATOM     11  N   UNL     1       7.115   5.860  16.008  0.00  0.00    +0.000 NA
ATOM     12  C   UNL     1       5.983   5.833  16.744  0.00  0.00    +0.000 A 
ENDBRANCH   3   7
BRANCH   5  13
ATOM     13  C   UNL     1       1.592   2.526  19.230  0.00  0.00    +0.000 C 
ATOM     14  F   UNL     1       2.339   1.411  18.981  0.00  0.00    +0.000 F 
ATOM     15  F   UNL     1       1.292   2.481  20.560  0.00  0.00    +0.000 F 
ATOM     16  F   UNL     1       0.407   2.324  18.580  0.00  0.00    +0.000 F 
ENDBRANCH   5  13
BRANCH   1  17
ATOM     17  C   UNL     1       2.180   7.553  19.713  0.00  0.00    +0.000 C 
BRANCH  17  18
ATOM     18  N   UNL     1       1.752   7.448  21.093  0.00  0.00    +0.000 NA
ATOM     19  H   UNL     1       0.894   7.989  21.231  0.00  0.00    +0.000 HD
ATOM     20  H   UNL     1       2.445   7.905  21.690  0.00  0.00    +0.000 HD
ENDBRANCH  17  18
ENDBRANCH   1  17
TORSDOF 4
ENDMDL
MODEL 6
REMARK VINA RESULT:      -7.3      2.735      3.729
REMARK  Name = 
REMARK  4 active torsions:
REMARK  status: ('A' for Active; 'I' for Inactive)
REMARK    1  A    between atoms: N_1  and  C_2
REMARK    2  A    between atoms: C_2  and  C_3
REMARK    3  A    between atoms: C_5  and  C_6
REMARK    4  A    between atoms: C_13  and  C_14
REMARK                            x       y       z     vdW  Elec       q    Type
REMARK                         _______ _______ _______ _____ _____    ______ ____
ROOT
ATOM      1  C   UNL     1       6.385   4.704  15.662  0.00  0.00    +0.000 A 
ATOM      2  C   UNL     1       5.084   4.403  16.044  0.00  0.00    +0.000 A 
ATOM      3  C   UNL     1       4.751   4.361  17.390  0.00  0.00    +0.000 A 
ATOM      4  N   UNL     1       5.602   4.781  18.355  0.00  0.00    +0.000 NA
ATOM      5  C   UNL     1       6.858   5.170  17.984  0.00  0.00    +0.000 A 
ATOM      6  C   UNL     1       7.285   5.102  16.654  0.00  0.00    +0.000 A 
ENDROOT
BRANCH   3   7
ATOM      7  C   UNL     1       3.514   3.713  17.824  0.00  0.00    +0.000 A 
ATOM      8  C   UNL     1       2.253   4.296  17.701  0.00  0.00    +0.000 A 
ATOM      9  C   UNL     1       1.127   3.627  18.180  0.00  0.00    +0.000 A 
ATOM     10  C   UNL     1       1.292   2.385  18.771  0.00  0.00    +0.000 A 
ATOM     11  N   UNL     1       2.486   1.774  18.911  0.00  0.00    +0.000 NA
ATOM     12  C   UNL     1       3.554   2.458  18.448  0.00  0.00    +0.000 A 
ENDBRANCH   3   7
BRANCH   5  13
ATOM     13  C   UNL     1       7.829   5.678  19.045  0.00  0.00    +0.000 C 
ATOM     14  F   UNL     1       7.275   5.828  20.284  0.00  0.00    +0.000 F 
ATOM     15  F   UNL     1       8.902   4.852  19.217  0.00  0.00    +0.000 F 
ATOM     16  F   UNL     1       8.353   6.899  18.730  0.00  0.00    +0.000 F 
ENDBRANCH   5  13
BRANCH   1  17
ATOM     17  C   UNL     1       6.712   4.613  14.201  0.00  0.00    +0.000 C 
BRANCH  17  18
ATOM     18  N   UNL     1       7.764   5.525  13.796  0.00  0.00    +0.000 NA
ATOM     19  H   UNL     1       8.630   5.294  14.289  0.00  0.00    +0.000 HD
ATOM     20  H   UNL     1       7.526   6.466  14.115  0.00  0.00    +0.000 HD
ENDBRANCH  17  18
ENDBRANCH   1  17
TORSDOF 4
ENDMDL
MODEL 7
REMARK VINA RESULT:      -7.2      3.925      6.015
REMARK  Name = 
REMARK  4 active torsions:
REMARK  status: ('A' for Active; 'I' for Inactive)
REMARK    1  A    between atoms: N_1  and  C_2
REMARK    2  A    between atoms: C_2  and  C_3
REMARK    3  A    between atoms: C_5  and  C_6
REMARK    4  A    between atoms: C_13  and  C_14
REMARK                            x       y       z     vdW  Elec       q    Type
REMARK                         _______ _______ _______ _____ _____    ______ ____
ROOT
ATOM      1  C   UNL     1       2.233   6.562  19.730  0.00  0.00    +0.000 A 
ATOM      2  C   UNL     1       2.891   6.424  18.515  0.00  0.00    +0.000 A 
ATOM      3  C   UNL     1       3.386   5.185  18.134  0.00  0.00    +0.000 A 
ATOM      4  N   UNL     1       3.097   4.054  18.818  0.00  0.00    +0.000 NA
ATOM      5  C   UNL     1       2.368   4.162  19.969  0.00  0.00    +0.000 A 
ATOM      6  C   UNL     1       1.962   5.405  20.465  0.00  0.00    +0.000 A 
ENDROOT
BRANCH   3   7
ATOM      7  C   UNL     1       4.372   5.083  17.058  0.00  0.00    +0.000 A 
ATOM      8  C   UNL     1       4.896   3.873  16.605  0.00  0.00    +0.000 A 
ATOM      9  C   UNL     1       5.865   3.867  15.602  0.00  0.00    +0.000 A 
ATOM     10  C   UNL     1       6.285   5.076  15.074  0.00  0.00    +0.000 A 
ATOM     11  N   UNL     1       5.808   6.274  15.472  0.00  0.00    +0.000 NA
ATOM     12  C   UNL     1       4.882   6.241  16.454  0.00  0.00    +0.000 A 
ENDBRANCH   3   7
BRANCH   5  13
ATOM     13  C   UNL     1       2.000   2.902  20.744  0.00  0.00    +0.000 C 
ATOM     14  F   UNL     1       0.863   3.016  21.490  0.00  0.00    +0.000 F 
ATOM     15  F   UNL     1       1.803   1.822  19.933  0.00  0.00    +0.000 F 
ATOM     16  F   UNL     1       2.976   2.527  21.623  0.00  0.00    +0.000 F 
ENDBRANCH   5  13
BRANCH   1  17
ATOM     17  C   UNL     1       1.830   7.947  20.142  0.00  0.00    +0.000 C 
BRANCH  17  18
ATOM     18  N   UNL     1       1.690   8.097  21.576  0.00  0.00    +0.000 NA
ATOM     19  H   UNL     1       0.834   8.616  21.788  0.00  0.00    +0.000 HD
ATOM     20  H   UNL     1       2.446   8.691  21.923  0.00  0.00    +0.000 HD
ENDBRANCH  17  18
ENDBRANCH   1  17
TORSDOF 4
ENDMDL
MODEL 8
REMARK VINA RESULT:      -7.2      2.699      3.759
REMARK  Name = 
REMARK  4 active torsions:
REMARK  status: ('A' for Active; 'I' for Inactive)
REMARK    1  A    between atoms: N_1  and  C_2
REMARK    2  A    between atoms: C_2  and  C_3
REMARK    3  A    between atoms: C_5  and  C_6
REMARK    4  A    between atoms: C_13  and  C_14
REMARK                            x       y       z     vdW  Elec       q    Type
REMARK                         _______ _______ _______ _____ _____    ______ ____
ROOT
ATOM      1  C   UNL     1       6.258   4.375  15.665  0.00  0.00    +0.000 A 
ATOM      2  C   UNL     1       4.963   4.106  16.086  0.00  0.00    +0.000 A 
ATOM      3  C   UNL     1       4.649   4.159  17.436  0.00  0.00    +0.000 A 
ATOM      4  N   UNL     1       5.515   4.642  18.357  0.00  0.00    +0.000 NA
ATOM      5  C   UNL     1       6.767   5.001  17.942  0.00  0.00    +0.000 A 
ATOM      6  C   UNL     1       7.173   4.839  16.613  0.00  0.00    +0.000 A 
ENDROOT
BRANCH   3   7
ATOM      7  C   UNL     1       3.418   3.547  17.932  0.00  0.00    +0.000 A 
ATOM      8  C   UNL     1       3.393   2.412  18.744  0.00  0.00    +0.000 A 
ATOM      9  C   UNL     1       2.172   1.866  19.139  0.00  0.00    +0.000 A 
ATOM     10  C   UNL     1       1.002   2.471  18.712  0.00  0.00    +0.000 A 
ATOM     11  N   UNL     1       0.969   3.570  17.931  0.00  0.00    +0.000 NA
ATOM     12  C   UNL     1       2.170   4.063  17.558  0.00  0.00    +0.000 A 
ENDBRANCH   3   7
BRANCH   5  13
ATOM     13  C   UNL     1       7.754   5.578  18.950  0.00  0.00    +0.000 C 
ATOM     14  F   UNL     1       7.238   5.751  20.202  0.00  0.00    +0.000 F 
ATOM     15  F   UNL     1       8.861   4.796  19.112  0.00  0.00    +0.000 F 
ATOM     16  F   UNL     1       8.224   6.805  18.577  0.00  0.00    +0.000 F 
ENDBRANCH   5  13
BRANCH   1  17
ATOM     17  C   UNL     1       6.564   4.182  14.209  0.00  0.00    +0.000 C 
BRANCH  17  18
ATOM     18  N   UNL     1       7.402   5.229  13.659  0.00  0.00    +0.000 NA
ATOM     19  H   UNL     1       8.365   5.107  13.982  0.00  0.00    +0.000 HD
ATOM     20  H   UNL     1       7.109   6.127  14.052  0.00  0.00    +0.000 HD
ENDBRANCH  17  18
ENDBRANCH   1  17
TORSDOF 4
ENDMDL
MODEL 9
REMARK VINA RESULT:      -7.1      3.913      6.014
REMARK  Name = 
REMARK  4 active torsions:
REMARK  status: ('A' for Active; 'I' for Inactive)
REMARK    1  A    between atoms: N_1  and  C_2
REMARK    2  A    between atoms: C_2  and  C_3
REMARK    3  A    between atoms: C_5  and  C_6
REMARK    4  A    between atoms: C_13  and  C_14
REMARK                            x       y       z     vdW  Elec       q    Type
REMARK                         _______ _______ _______ _____ _____    ______ ____
ROOT
ATOM      1  C   UNL     1       2.324   6.496  19.840  0.00  0.00    +0.000 A 
ATOM      2  C   UNL     1       3.181   6.362  18.755  0.00  0.00    +0.000 A 
ATOM      3  C   UNL     1       3.770   5.135  18.486  0.00  0.00    +0.000 A 
ATOM      4  N   UNL     1       3.404   4.005  19.134  0.00  0.00    +0.000 NA
ATOM      5  C   UNL     1       2.489   4.106  20.144  0.00  0.00    +0.000 A 
ATOM      6  C   UNL     1       1.968   5.341  20.541  0.00  0.00    +0.000 A 
ENDROOT
BRANCH   3   7
ATOM      7  C   UNL     1       4.925   5.051  17.593  0.00  0.00    +0.000 A 
ATOM      8  C   UNL     1       4.865   5.330  16.228  0.00  0.00    +0.000 A 
ATOM      9  C   UNL     1       6.005   5.184  15.437  0.00  0.00    +0.000 A 
ATOM     10  C   UNL     1       7.181   4.762  16.035  0.00  0.00    +0.000 A 
ATOM     11  N   UNL     1       7.295   4.483  17.350  0.00  0.00    +0.000 NA
ATOM     12  C   UNL     1       6.167   4.623  18.081  0.00  0.00    +0.000 A 
ENDBRANCH   3   7
BRANCH   5  13
ATOM     13  C   UNL     1       2.034   2.845  20.871  0.00  0.00    +0.000 C 
ATOM     14  F   UNL     1       2.922   2.383  21.800  0.00  0.00    +0.000 F 
ATOM     15  F   UNL     1       0.856   3.017  21.539  0.00  0.00    +0.000 F 
ATOM     16  F   UNL     1       1.822   1.799  20.018  0.00  0.00    +0.000 F 
ENDBRANCH   5  13
BRANCH   1  17
ATOM     17  C   UNL     1       1.816   7.873  20.151  0.00  0.00    +0.000 C 
BRANCH  17  18
ATOM     18  N   UNL     1       1.686   8.124  21.572  0.00  0.00    +0.000 NA
ATOM     19  H   UNL     1       0.942   8.806  21.736  0.00  0.00    +0.000 HD
ATOM     20  H   UNL     1       2.537   8.582  21.906  0.00  0.00    +0.000 HD
ENDBRANCH  17  18
ENDBRANCH   1  17
TORSDOF 4
ENDMDL
