MODEL 1
REMARK VINA RESULT:      -7.6      0.000      0.000
REMARK  Name = 
REMARK  5 active torsions:
REMARK  status: ('A' for Active; 'I' for Inactive)
REMARK    1  A    between atoms: C_1  and  C_2
REMARK    2  A    between atoms: C_10  and  N_11
REMARK    3  A    between atoms: C_12  and  C_14
REMARK    4  A    between atoms: C_14  and  O_15
REMARK    5  A    between atoms: O_15  and  C_16
REMARK                            x       y       z     vdW  Elec       q    Type
REMARK                         _______ _______ _______ _____ _____    ______ ____
ROOT
ATOM      1  N   UNL     1       5.097   4.703  17.646  0.00  0.00    +0.000 N 
ATOM      2  C   UNL     1       6.408   5.134  17.810  0.00  0.00    +0.000 C 
ATOM      3  O   UNL     1       6.794   5.896  18.690  0.00  0.00    +0.000 OA
ATOM      4  H   UNL     1       4.825   4.601  16.673  0.00  0.00    +0.000 HD
ENDROOT
BRANCH   1  14
ATOM      5  C   UNL     1       3.908   7.467  17.340  0.00  0.00    +0.000 C 
ATOM      6  C   UNL     1       3.446   6.459  18.365  0.00  0.00    +0.000 A 
ATOM      7  C   UNL     1       2.424   6.876  19.277  0.00  0.00    +0.000 A 
ATOM      8  C   UNL     1       1.924   6.080  20.325  0.00  0.00    +0.000 A 
ATOM      9  C   UNL     1       2.498   4.796  20.452  0.00  0.00    +0.000 A 
ATOM     10  N   UNL     1       2.162   3.874  21.367  0.00  0.00    +0.000 NA
ATOM     11  S   UNL     1       3.115   2.547  21.068  0.00  0.00    +0.000 S 
ATOM     12  N   UNL     1       4.029   3.098  19.793  0.00  0.00    +0.000 NA
ATOM     13  C   UNL     1       3.584   4.341  19.521  0.00  0.00    +0.000 A 
ATOM     14  C   UNL     1       4.044   5.175  18.464  0.00  0.00    +0.000 A 
ENDBRANCH   1  14
BRANCH   2  15
ATOM     15  C   UNL     1       7.356   4.594  16.738  0.00  0.00    +0.000 C 
BRANCH  15  16
ATOM     16  O   UNL     1       7.156   5.400  15.587  0.00  0.00    +0.000 OA
BRANCH  16  17
ATOM     17  C   UNL     1       6.757   4.799  14.427  0.00  0.00    +0.000 A 
ATOM     18  C   UNL     1       5.619   4.013  14.250  0.00  0.00    +0.000 A 
ATOM     19  C   UNL     1       5.352   3.438  12.997  0.00  0.00    +0.000 A 
ATOM     20  C   UNL     1       6.217   3.648  11.922  0.00  0.00    +0.000 A 
ATOM     21  C   UNL     1       7.350   4.439  12.092  0.00  0.00    +0.000 A 
ATOM     22  C   UNL     1       7.609   5.005  13.335  0.00  0.00    +0.000 A 
ATOM     23  F   UNL     1       8.707   5.763  13.477  0.00  0.00    +0.000 F 
ENDBRANCH  16  17
ENDBRANCH  15  16
ENDBRANCH   2  15
TORSDOF 4
ENDMDL
MODEL 2
REMARK VINA RESULT:      -7.5      1.846      2.501
REMARK  Name = 
REMARK  5 active torsions:
REMARK  status: ('A' for Active; 'I' for Inactive)
REMARK    1  A    between atoms: C_1  and  C_2
REMARK    2  A    between atoms: C_10  and  N_11
REMARK    3  A    between atoms: C_12  and  C_14
REMARK    4  A    between atoms: C_14  and  O_15
REMARK    5  A    between atoms: O_15  and  C_16
REMARK                            x       y       z     vdW  Elec       q    Type
REMARK                         _______ _______ _______ _____ _____    ______ ____
ROOT
ATOM      1  N   UNL     1       5.331   4.423  17.724  0.00  0.00    +0.000 N 
ATOM      2  C   UNL     1       6.601   4.975  17.834  0.00  0.00    +0.000 C 
ATOM      3  O   UNL     1       6.965   5.731  18.729  0.00  0.00    +0.000 OA
ATOM      4  H   UNL     1       5.009   4.339  16.764  0.00  0.00    +0.000 HD
ENDROOT
BRANCH   1  14
ATOM      5  C   UNL     1       4.381   2.521  19.876  0.00  0.00    +0.000 C 
ATOM      6  C   UNL     1       3.804   3.899  19.653  0.00  0.00    +0.000 A 
ATOM      7  C   UNL     1       2.703   4.287  20.481  0.00  0.00    +0.000 A 
ATOM      8  C   UNL     1       2.015   5.510  20.365  0.00  0.00    +0.000 A 
ATOM      9  C   UNL     1       2.473   6.379  19.351  0.00  0.00    +0.000 A 
ATOM     10  N   UNL     1       1.974   7.594  19.076  0.00  0.00    +0.000 NA
ATOM     11  S   UNL     1       2.874   8.198  17.818  0.00  0.00    +0.000 S 
ATOM     12  N   UNL     1       3.909   6.927  17.534  0.00  0.00    +0.000 NA
ATOM     13  C   UNL     1       3.614   5.989  18.456  0.00  0.00    +0.000 A 
ATOM     14  C   UNL     1       4.290   4.749  18.625  0.00  0.00    +0.000 A 
ENDBRANCH   1  14
BRANCH   2  15
ATOM     15  C   UNL     1       7.528   4.582  16.683  0.00  0.00    +0.000 C 
BRANCH  15  16
ATOM     16  O   UNL     1       7.166   5.403  15.582  0.00  0.00    +0.000 OA
BRANCH  16  17
ATOM     17  C   UNL     1       6.794   4.806  14.413  0.00  0.00    +0.000 A 
ATOM     18  C   UNL     1       5.680   3.991  14.216  0.00  0.00    +0.000 A 
ATOM     19  C   UNL     1       5.440   3.424  12.954  0.00  0.00    +0.000 A 
ATOM     20  C   UNL     1       6.308   3.670  11.890  0.00  0.00    +0.000 A 
ATOM     21  C   UNL     1       7.418   4.490  12.078  0.00  0.00    +0.000 A 
ATOM     22  C   UNL     1       7.650   5.048  13.331  0.00  0.00    +0.000 A 
ATOM     23  F   UNL     1       8.725   5.834  13.492  0.00  0.00    +0.000 F 
ENDBRANCH  16  17
ENDBRANCH  15  16
ENDBRANCH   2  15
TORSDOF 4
ENDMDL
MODEL 3
REMARK VINA RESULT:      -7.4      5.035      6.692
REMARK  Name = 
REMARK  5 active torsions:
REMARK  status: ('A' for Active; 'I' for Inactive)
REMARK    1  A    between atoms: C_1  and  C_2
REMARK    2  A    between atoms: C_10  and  N_11
REMARK    3  A    between atoms: C_12  and  C_14
REMARK    4  A    between atoms: C_14  and  O_15
REMARK    5  A    between atoms: O_15  and  C_16
REMARK                            x       y       z     vdW  Elec       q    Type
REMARK                         _______ _______ _______ _____ _____    ______ ____
ROOT
ATOM      1  N   UNL     1       6.486   7.442  16.819  0.00  0.00    +0.000 N 
ATOM      2  C   UNL     1       7.530   7.676  17.705  0.00  0.00    +0.000 C 
ATOM      3  O   UNL     1       7.941   6.874  18.536  0.00  0.00    +0.000 OA
ATOM      4  H   UNL     1       5.913   8.262  16.644  0.00  0.00    +0.000 HD
ENDROOT
BRANCH   1  14
ATOM      5  C   UNL     1       7.372   4.932  15.382  0.00  0.00    +0.000 C 
ATOM      6  C   UNL     1       6.101   5.036  16.190  0.00  0.00    +0.000 A 
ATOM      7  C   UNL     1       5.248   3.888  16.218  0.00  0.00    +0.000 A 
ATOM      8  C   UNL     1       4.004   3.839  16.874  0.00  0.00    +0.000 A 
ATOM      9  C   UNL     1       3.609   5.023  17.533  0.00  0.00    +0.000 A 
ATOM     10  N   UNL     1       2.474   5.192  18.230  0.00  0.00    +0.000 NA
ATOM     11  S   UNL     1       2.507   6.747  18.811  0.00  0.00    +0.000 S 
ATOM     12  N   UNL     1       3.941   7.292  18.170  0.00  0.00    +0.000 NA
ATOM     13  C   UNL     1       4.476   6.249  17.505  0.00  0.00    +0.000 A 
ATOM     14  C   UNL     1       5.735   6.243  16.843  0.00  0.00    +0.000 A 
ENDBRANCH   1  14
BRANCH   2  15
ATOM     15  C   UNL     1       8.117   9.083  17.583  0.00  0.00    +0.000 C 
BRANCH  15  16
ATOM     16  O   UNL     1       8.684   9.389  18.848  0.00  0.00    +0.000 OA
BRANCH  16  17
ATOM     17  C   UNL     1       9.517  10.465  18.951  0.00  0.00    +0.000 A 
ATOM     18  C   UNL     1      10.174  11.108  17.902  0.00  0.00    +0.000 A 
ATOM     19  C   UNL     1      11.025  12.194  18.168  0.00  0.00    +0.000 A 
ATOM     20  C   UNL     1      11.219  12.639  19.476  0.00  0.00    +0.000 A 
ATOM     21  C   UNL     1      10.558  12.006  20.527  0.00  0.00    +0.000 A 
ATOM     22  C   UNL     1       9.718  10.931  20.257  0.00  0.00    +0.000 A 
ATOM     23  F   UNL     1       9.092  10.335  21.283  0.00  0.00    +0.000 F 
ENDBRANCH  16  17
ENDBRANCH  15  16
ENDBRANCH   2  15
TORSDOF 4
ENDMDL
MODEL 4
REMARK VINA RESULT:      -7.4      1.264      1.388
REMARK  Name = 
REMARK  5 active torsions:
REMARK  status: ('A' for Active; 'I' for Inactive)
REMARK    1  A    between atoms: C_1  and  C_2
REMARK    2  A    between atoms: C_10  and  N_11
REMARK    3  A    between atoms: C_12  and  C_14
REMARK    4  A    between atoms: C_14  and  O_15
REMARK    5  A    between atoms: O_15  and  C_16
REMARK                            x       y       z     vdW  Elec       q    Type
REMARK                         _______ _______ _______ _____ _____    ______ ____
ROOT
ATOM      1  N   UNL     1       4.228   5.770  17.021  0.00  0.00    +0.000 N 
ATOM      2  C   UNL     1       5.575   6.046  17.219  0.00  0.00    +0.000 C 
ATOM      3  O   UNL     1       6.172   5.911  18.282  0.00  0.00    +0.000 OA
ATOM      4  H   UNL     1       3.774   6.414  16.379  0.00  0.00    +0.000 HD
ENDROOT
BRANCH   1  14
ATOM      5  C   UNL     1       2.645   7.730  18.693  0.00  0.00    +0.000 C 
ATOM      6  C   UNL     1       2.614   6.234  18.893  0.00  0.00    +0.000 A 
ATOM      7  C   UNL     1       1.830   5.737  19.982  0.00  0.00    +0.000 A 
ATOM      8  C   UNL     1       1.741   4.378  20.340  0.00  0.00    +0.000 A 
ATOM      9  C   UNL     1       2.492   3.482  19.549  0.00  0.00    +0.000 A 
ATOM     10  N   UNL     1       2.540   2.150  19.704  0.00  0.00    +0.000 NA
ATOM     11  S   UNL     1       3.545   1.575  18.513  0.00  0.00    +0.000 S 
ATOM     12  N   UNL     1       4.000   2.994  17.774  0.00  0.00    +0.000 NA
ATOM     13  C   UNL     1       3.338   3.979  18.412  0.00  0.00    +0.000 A 
ATOM     14  C   UNL     1       3.381   5.361  18.077  0.00  0.00    +0.000 A 
ENDBRANCH   1  14
BRANCH   2  15
ATOM     15  C   UNL     1       6.267   6.592  15.969  0.00  0.00    +0.000 C 
BRANCH  15  16
ATOM     16  O   UNL     1       7.116   5.555  15.499  0.00  0.00    +0.000 OA
BRANCH  16  17
ATOM     17  C   UNL     1       6.748   4.863  14.382  0.00  0.00    +0.000 A 
ATOM     18  C   UNL     1       5.639   4.028  14.251  0.00  0.00    +0.000 A 
ATOM     19  C   UNL     1       5.404   3.359  13.039  0.00  0.00    +0.000 A 
ATOM     20  C   UNL     1       6.272   3.523  11.959  0.00  0.00    +0.000 A 
ATOM     21  C   UNL     1       7.377   4.362  12.081  0.00  0.00    +0.000 A 
ATOM     22  C   UNL     1       7.604   5.022  13.284  0.00  0.00    +0.000 A 
ATOM     23  F   UNL     1       8.674   5.825  13.382  0.00  0.00    +0.000 F 
ENDBRANCH  16  17
ENDBRANCH  15  16
ENDBRANCH   2  15
TORSDOF 4
ENDMDL
MODEL 5
REMARK VINA RESULT:      -7.4      3.651      5.126
REMARK  Name = 
REMARK  5 active torsions:
REMARK  status: ('A' for Active; 'I' for Inactive)
REMARK    1  A    between atoms: C_1  and  C_2
REMARK    2  A    between atoms: C_10  and  N_11
REMARK    3  A    between atoms: C_12  and  C_14
REMARK    4  A    between atoms: C_14  and  O_15
REMARK    5  A    between atoms: O_15  and  C_16
REMARK                            x       y       z     vdW  Elec       q    Type
REMARK                         _______ _______ _______ _____ _____    ______ ____
ROOT
ATOM      1  N   UNL     1       2.788   6.354  20.075  0.00  0.00    +0.000 N 
ATOM      2  C   UNL     1       2.240   5.101  19.834  0.00  0.00    +0.000 C 
ATOM      3  O   UNL     1       1.285   4.881  19.095  0.00  0.00    +0.000 OA
ATOM      4  H   UNL     1       3.110   6.476  21.031  0.00  0.00    +0.000 HD
ENDROOT
BRANCH   1  14
ATOM      5  C   UNL     1       3.515   7.372  17.321  0.00  0.00    +0.000 C 
ATOM      6  C   UNL     1       2.536   8.059  18.243  0.00  0.00    +0.000 A 
ATOM      7  C   UNL     1       1.974   9.296  17.794  0.00  0.00    +0.000 A 
ATOM      8  C   UNL     1       1.093  10.090  18.553  0.00  0.00    +0.000 A 
ATOM      9  C   UNL     1       0.773   9.597  19.837  0.00  0.00    +0.000 A 
ATOM     10  N   UNL     1      -0.054  10.183  20.718  0.00  0.00    +0.000 NA
ATOM     11  S   UNL     1      -0.098   9.193  22.050  0.00  0.00    +0.000 S 
ATOM     12  N   UNL     1       0.964   7.999  21.589  0.00  0.00    +0.000 NA
ATOM     13  C   UNL     1       1.363   8.312  20.341  0.00  0.00    +0.000 A 
ATOM     14  C   UNL     1       2.234   7.535  19.528  0.00  0.00    +0.000 A 
ENDBRANCH   1  14
BRANCH   2  15
ATOM     15  C   UNL     1       2.921   3.984  20.625  0.00  0.00    +0.000 C 
BRANCH  15  16
ATOM     16  O   UNL     1       3.501   3.112  19.665  0.00  0.00    +0.000 OA
BRANCH  16  17
ATOM     17  C   UNL     1       4.400   3.623  18.774  0.00  0.00    +0.000 A 
ATOM     18  C   UNL     1       5.595   4.272  19.083  0.00  0.00    +0.000 A 
ATOM     19  C   UNL     1       6.409   4.768  18.052  0.00  0.00    +0.000 A 
ATOM     20  C   UNL     1       6.034   4.617  16.716  0.00  0.00    +0.000 A 
ATOM     21  C   UNL     1       4.845   3.962  16.403  0.00  0.00    +0.000 A 
ATOM     22  C   UNL     1       4.043   3.473  17.428  0.00  0.00    +0.000 A 
ATOM     23  F   UNL     1       2.902   2.846  17.104  0.00  0.00    +0.000 F 
ENDBRANCH  16  17
ENDBRANCH  15  16
ENDBRANCH   2  15
TORSDOF 4
ENDMDL
MODEL 6
REMARK VINA RESULT:      -7.4      1.049      1.466
REMARK  Name = 
REMARK  5 active torsions:
REMARK  status: ('A' for Active; 'I' for Inactive)
REMARK    1  A    between atoms: C_1  and  C_2
REMARK    2  A    between atoms: C_10  and  N_11
REMARK    3  A    between atoms: C_12  and  C_14
REMARK    4  A    between atoms: C_14  and  O_15
REMARK    5  A    between atoms: O_15  and  C_16
REMARK                            x       y       z     vdW  Elec       q    Type
REMARK                         _______ _______ _______ _____ _____    ______ ____
ROOT
ATOM      1  N   UNL     1       4.859   4.951  17.739  0.00  0.00    +0.000 N 
ATOM      2  C   UNL     1       6.194   5.198  18.032  0.00  0.00    +0.000 C 
ATOM      3  O   UNL     1       6.607   5.685  19.079  0.00  0.00    +0.000 OA
ATOM      4  H   UNL     1       4.623   5.112  16.764  0.00  0.00    +0.000 HD
ENDROOT
BRANCH   1  14
ATOM      5  C   UNL     1       3.521   7.662  17.656  0.00  0.00    +0.000 C 
ATOM      6  C   UNL     1       3.151   6.569  18.629  0.00  0.00    +0.000 A 
ATOM      7  C   UNL     1       2.146   6.873  19.602  0.00  0.00    +0.000 A 
ATOM      8  C   UNL     1       1.728   5.988  20.614  0.00  0.00    +0.000 A 
ATOM      9  C   UNL     1       2.370   4.731  20.637  0.00  0.00    +0.000 A 
ATOM     10  N   UNL     1       2.118   3.737  21.502  0.00  0.00    +0.000 NA
ATOM     11  S   UNL     1       3.124   2.484  21.084  0.00  0.00    +0.000 S 
ATOM     12  N   UNL     1       3.958   3.161  19.815  0.00  0.00    +0.000 NA
ATOM     13  C   UNL     1       3.441   4.393  19.640  0.00  0.00    +0.000 A 
ATOM     14  C   UNL     1       3.816   5.314  18.623  0.00  0.00    +0.000 A 
ENDBRANCH   1  14
BRANCH   2  15
ATOM     15  C   UNL     1       7.138   4.840  16.883  0.00  0.00    +0.000 C 
BRANCH  15  16
ATOM     16  O   UNL     1       6.712   5.604  15.765  0.00  0.00    +0.000 OA
BRANCH  16  17
ATOM     17  C   UNL     1       6.769   5.040  14.523  0.00  0.00    +0.000 A 
ATOM     18  C   UNL     1       7.753   5.256  13.559  0.00  0.00    +0.000 A 
ATOM     19  C   UNL     1       7.662   4.619  12.311  0.00  0.00    +0.000 A 
ATOM     20  C   UNL     1       6.595   3.767  12.025  0.00  0.00    +0.000 A 
ATOM     21  C   UNL     1       5.614   3.541  12.987  0.00  0.00    +0.000 A 
ATOM     22  C   UNL     1       5.709   4.175  14.221  0.00  0.00    +0.000 A 
ATOM     23  F   UNL     1       4.753   3.945  15.134  0.00  0.00    +0.000 F 
ENDBRANCH  16  17
ENDBRANCH  15  16
ENDBRANCH   2  15
TORSDOF 4
ENDMDL
MODEL 7
REMARK VINA RESULT:      -7.2      2.101      2.882
REMARK  Name = 
REMARK  5 active torsions:
REMARK  status: ('A' for Active; 'I' for Inactive)
REMARK    1  A    between atoms: C_1  and  C_2
REMARK    2  A    between atoms: C_10  and  N_11
REMARK    3  A    between atoms: C_12  and  C_14
REMARK    4  A    between atoms: C_14  and  O_15
REMARK    5  A    between atoms: O_15  and  C_16
REMARK                            x       y       z     vdW  Elec       q    Type
REMARK                         _______ _______ _______ _____ _____    ______ ____
ROOT
ATOM      1  N   UNL     1       5.068   4.538  17.848  0.00  0.00    +0.000 N 
ATOM      2  C   UNL     1       6.412   4.789  18.095  0.00  0.00    +0.000 C 
ATOM      3  O   UNL     1       6.863   5.232  19.146  0.00  0.00    +0.000 OA
ATOM      4  H   UNL     1       4.789   4.741  16.892  0.00  0.00    +0.000 HD
ENDROOT
BRANCH   1  14
ATOM      5  C   UNL     1       4.189   2.595  19.992  0.00  0.00    +0.000 C 
ATOM      6  C   UNL     1       3.609   3.977  19.818  0.00  0.00    +0.000 A 
ATOM      7  C   UNL     1       2.538   4.351  20.691  0.00  0.00    +0.000 A 
ATOM      8  C   UNL     1       1.850   5.577  20.624  0.00  0.00    +0.000 A 
ATOM      9  C   UNL     1       2.274   6.466  19.612  0.00  0.00    +0.000 A 
ATOM     10  N   UNL     1       1.769   7.688  19.379  0.00  0.00    +0.000 NA
ATOM     11  S   UNL     1       2.627   8.315  18.103  0.00  0.00    +0.000 S 
ATOM     12  N   UNL     1       3.648   7.048  17.758  0.00  0.00    +0.000 NA
ATOM     13  C   UNL     1       3.382   6.092  18.670  0.00  0.00    +0.000 A 
ATOM     14  C   UNL     1       4.060   4.848  18.790  0.00  0.00    +0.000 A 
ENDBRANCH   1  14
BRANCH   2  15
ATOM     15  C   UNL     1       7.310   4.495  16.892  0.00  0.00    +0.000 C 
BRANCH  15  16
ATOM     16  O   UNL     1       6.886   5.369  15.857  0.00  0.00    +0.000 OA
BRANCH  16  17
ATOM     17  C   UNL     1       6.863   4.904  14.574  0.00  0.00    +0.000 A 
ATOM     18  C   UNL     1       7.807   5.163  13.581  0.00  0.00    +0.000 A 
ATOM     19  C   UNL     1       7.633   4.631  12.292  0.00  0.00    +0.000 A 
ATOM     20  C   UNL     1       6.521   3.842  11.995  0.00  0.00    +0.000 A 
ATOM     21  C   UNL     1       5.580   3.573  12.986  0.00  0.00    +0.000 A 
ATOM     22  C   UNL     1       5.757   4.103  14.259  0.00  0.00    +0.000 A 
ATOM     23  F   UNL     1       4.838   3.833  15.199  0.00  0.00    +0.000 F 
ENDBRANCH  16  17
ENDBRANCH  15  16
ENDBRANCH   2  15
TORSDOF 4
ENDMDL
MODEL 8
REMARK VINA RESULT:      -7.1      2.086      2.825
REMARK  Name = 
REMARK  5 active torsions:
REMARK  status: ('A' for Active; 'I' for Inactive)
REMARK    1  A    between atoms: C_1  and  C_2
REMARK    2  A    between atoms: C_10  and  N_11
REMARK    3  A    between atoms: C_12  and  C_14
REMARK    4  A    between atoms: C_14  and  O_15
REMARK    5  A    between atoms: O_15  and  C_16
REMARK                            x       y       z     vdW  Elec       q    Type
REMARK                         _______ _______ _______ _____ _____    ______ ____
ROOT
ATOM      1  N   UNL     1       4.600   4.410  17.714  0.00  0.00    +0.000 N 
ATOM      2  C   UNL     1       5.913   4.536  18.149  0.00  0.00    +0.000 C 
ATOM      3  O   UNL     1       6.295   4.345  19.299  0.00  0.00    +0.000 OA
ATOM      4  H   UNL     1       4.340   5.094  17.010  0.00  0.00    +0.000 HD
ENDROOT
BRANCH   1  14
ATOM      5  C   UNL     1       3.632   1.584  18.194  0.00  0.00    +0.000 C 
ATOM      6  C   UNL     1       3.046   2.802  18.867  0.00  0.00    +0.000 A 
ATOM      7  C   UNL     1       1.927   2.593  19.734  0.00  0.00    +0.000 A 
ATOM      8  C   UNL     1       1.229   3.625  20.392  0.00  0.00    +0.000 A 
ATOM      9  C   UNL     1       1.696   4.935  20.149  0.00  0.00    +0.000 A 
ATOM     10  N   UNL     1       1.190   6.059  20.681  0.00  0.00    +0.000 NA
ATOM     11  S   UNL     1       2.106   7.312  20.090  0.00  0.00    +0.000 S 
ATOM     12  N   UNL     1       3.157   6.491  19.097  0.00  0.00    +0.000 NA
ATOM     13  C   UNL     1       2.856   5.184  19.228  0.00  0.00    +0.000 A 
ATOM     14  C   UNL     1       3.540   4.107  18.601  0.00  0.00    +0.000 A 
ENDBRANCH   1  14
BRANCH   2  15
ATOM     15  C   UNL     1       6.870   4.991  17.046  0.00  0.00    +0.000 C 
BRANCH  15  16
ATOM     16  O   UNL     1       6.058   5.359  15.941  0.00  0.00    +0.000 OA
BRANCH  16  17
ATOM     17  C   UNL     1       6.442   4.977  14.688  0.00  0.00    +0.000 A 
ATOM     18  C   UNL     1       7.553   5.443  13.985  0.00  0.00    +0.000 A 
ATOM     19  C   UNL     1       7.807   4.974  12.685  0.00  0.00    +0.000 A 
ATOM     20  C   UNL     1       6.957   4.041  12.090  0.00  0.00    +0.000 A 
ATOM     21  C   UNL     1       5.852   3.566  12.792  0.00  0.00    +0.000 A 
ATOM     22  C   UNL     1       5.605   4.035  14.077  0.00  0.00    +0.000 A 
ATOM     23  F   UNL     1       4.534   3.566  14.736  0.00  0.00    +0.000 F 
ENDBRANCH  16  17
ENDBRANCH  15  16
ENDBRANCH   2  15
TORSDOF 4
ENDMDL
MODEL 9
REMARK VINA RESULT:      -7.1      1.852      2.375
REMARK  Name = 
REMARK  5 active torsions:
REMARK  status: ('A' for Active; 'I' for Inactive)
REMARK    1  A    between atoms: C_1  and  C_2
REMARK    2  A    between atoms: C_10  and  N_11
REMARK    3  A    between atoms: C_12  and  C_14
REMARK    4  A    between atoms: C_14  and  O_15
REMARK    5  A    between atoms: O_15  and  C_16
REMARK                            x       y       z     vdW  Elec       q    Type
REMARK                         _______ _______ _______ _____ _____    ______ ____
ROOT
ATOM      1  N   UNL     1       4.062   5.456  17.221  0.00  0.00    +0.000 N 
ATOM      2  C   UNL     1       5.404   5.808  17.294  0.00  0.00    +0.000 C 
ATOM      3  O   UNL     1       6.113   5.675  18.285  0.00  0.00    +0.000 OA
ATOM      4  H   UNL     1       3.508   6.092  16.654  0.00  0.00    +0.000 HD
ENDROOT
BRANCH   1  14
ATOM      5  C   UNL     1       3.820   2.502  17.823  0.00  0.00    +0.000 C 
ATOM      6  C   UNL     1       3.208   3.589  18.674  0.00  0.00    +0.000 A 
ATOM      7  C   UNL     1       2.419   3.175  19.794  0.00  0.00    +0.000 A 
ATOM      8  C   UNL     1       1.734   4.056  20.651  0.00  0.00    +0.000 A 
ATOM      9  C   UNL     1       1.858   5.430  20.348  0.00  0.00    +0.000 A 
ATOM     10  N   UNL     1       1.303   6.438  21.038  0.00  0.00    +0.000 NA
ATOM     11  S   UNL     1       1.771   7.840  20.280  0.00  0.00    +0.000 S 
ATOM     12  N   UNL     1       2.661   7.230  19.015  0.00  0.00    +0.000 NA
ATOM     13  C   UNL     1       2.663   5.891  19.168  0.00  0.00    +0.000 A 
ATOM     14  C   UNL     1       3.353   4.962  18.341  0.00  0.00    +0.000 A 
ENDBRANCH   1  14
BRANCH   2  15
ATOM     15  C   UNL     1       5.931   6.436  16.003  0.00  0.00    +0.000 C 
BRANCH  15  16
ATOM     16  O   UNL     1       6.893   5.530  15.484  0.00  0.00    +0.000 OA
BRANCH  16  17
ATOM     17  C   UNL     1       6.593   4.834  14.348  0.00  0.00    +0.000 A 
ATOM     18  C   UNL     1       5.484   4.012  14.149  0.00  0.00    +0.000 A 
ATOM     19  C   UNL     1       5.323   3.337  12.928  0.00  0.00    +0.000 A 
ATOM     20  C   UNL     1       6.263   3.482  11.908  0.00  0.00    +0.000 A 
ATOM     21  C   UNL     1       7.368   4.309  12.099  0.00  0.00    +0.000 A 
ATOM     22  C   UNL     1       7.523   4.974  13.310  0.00  0.00    +0.000 A 
ATOM     23  F   UNL     1       8.594   5.764  13.474  0.00  0.00    +0.000 F 
ENDBRANCH  16  17
ENDBRANCH  15  16
ENDBRANCH   2  15
TORSDOF 4
ENDMDL
