MODEL 1
REMARK VINA RESULT:      -6.6      0.000      0.000
REMARK  Name = 
REMARK  6 active torsions:
REMARK  status: ('A' for Active; 'I' for Inactive)
REMARK    1  A    between atoms: C_1  and  C_2
REMARK    2  A    between atoms: C_4  and  O_5
REMARK    3  A    between atoms: C_6  and  C_7
REMARK    4  A    between atoms: C_9  and  C_10
REMARK    5  A    between atoms: C_11  and  C_12
REMARK    6  A    between atoms: C_12  and  C_13
REMARK                            x       y       z     vdW  Elec       q    Type
REMARK                         _______ _______ _______ _____ _____    ______ ____
ROOT
ATOM      1  C   UNL     1       7.358   6.399  18.374  0.00  0.00    +0.000 C 
ATOM      2  C   UNL     1       6.814   5.696  17.161  0.00  0.00    +0.000 A 
ATOM      3  N   UNL     1       7.602   5.799  16.063  0.00  0.00    +0.000 NA
ATOM      4  C   UNL     1       7.183   5.193  14.943  0.00  0.00    +0.000 A 
ATOM      5  C   UNL     1       6.017   4.462  14.814  0.00  0.00    +0.000 A 
ATOM      6  C   UNL     1       5.188   4.362  15.948  0.00  0.00    +0.000 A 
ATOM      7  C   UNL     1       3.901   3.566  15.891  0.00  0.00    +0.000 C 
ATOM      8  C   UNL     1       5.582   5.013  17.153  0.00  0.00    +0.000 A 
ENDROOT
BRANCH   4   9
ATOM      9  O   UNL     1       8.043   5.374  13.909  0.00  0.00    +0.000 OA
ATOM     10  H   UNL     1       8.771   4.787  14.184  0.00  0.00    +0.000 HD
ENDBRANCH   4   9
BRANCH   5  11
ATOM     11  C   UNL     1       5.702   3.856  13.554  0.00  0.00    +0.000 C 
ATOM     12  N   UNL     1       5.488   3.370  12.520  0.00  0.00    +0.000 NA
ENDBRANCH   5  11
BRANCH   8  13
ATOM     13  C   UNL     1       4.681   5.003  18.384  0.00  0.00    +0.000 C 
BRANCH  13  14
ATOM     14  C   UNL     1       3.741   6.188  18.566  0.00  0.00    +0.000 A 
ATOM     15  C   UNL     1       3.759   7.297  17.700  0.00  0.00    +0.000 A 
ATOM     16  C   UNL     1       2.824   8.330  17.832  0.00  0.00    +0.000 A 
ATOM     17  C   UNL     1       1.872   8.281  18.844  0.00  0.00    +0.000 A 
ATOM     18 CL   UNL     1       0.687   9.522  18.964  0.00  0.00    +0.000 Cl
ATOM     19  C   UNL     1       1.869   7.230  19.753  0.00  0.00    +0.000 A 
ATOM     20  C   UNL     1       2.803   6.198  19.620  0.00  0.00    +0.000 A 
ATOM     21 CL   UNL     1       2.755   4.935  20.803  0.00  0.00    +0.000 Cl
ENDBRANCH  13  14
ENDBRANCH   8  13
TORSDOF 4
ENDMDL
MODEL 2
REMARK VINA RESULT:      -6.3      1.247      1.451
REMARK  Name = 
REMARK  6 active torsions:
REMARK  status: ('A' for Active; 'I' for Inactive)
REMARK    1  A    between atoms: C_1  and  C_2
REMARK    2  A    between atoms: C_4  and  O_5
REMARK    3  A    between atoms: C_6  and  C_7
REMARK    4  A    between atoms: C_9  and  C_10
REMARK    5  A    between atoms: C_11  and  C_12
REMARK    6  A    between atoms: C_12  and  C_13
REMARK                            x       y       z     vdW  Elec       q    Type
REMARK                         _______ _______ _______ _____ _____    ______ ____
ROOT
ATOM      1  C   UNL     1       7.458   5.523  19.189  0.00  0.00    +0.000 C 
ATOM      2  C   UNL     1       6.817   5.086  17.901  0.00  0.00    +0.000 A 
ATOM      3  N   UNL     1       7.478   5.494  16.790  0.00  0.00    +0.000 NA
ATOM      4  C   UNL     1       6.967   5.139  15.602  0.00  0.00    +0.000 A 
ATOM      5  C   UNL     1       5.827   4.382  15.413  0.00  0.00    +0.000 A 
ATOM      6  C   UNL     1       5.130   3.965  16.563  0.00  0.00    +0.000 A 
ATOM      7  C   UNL     1       3.879   3.119  16.440  0.00  0.00    +0.000 C 
ATOM      8  C   UNL     1       5.622   4.342  17.847  0.00  0.00    +0.000 A 
ENDROOT
BRANCH   4   9
ATOM      9  O   UNL     1       7.702   5.614  14.565  0.00  0.00    +0.000 OA
ATOM     10  H   UNL     1       8.378   6.122  15.050  0.00  0.00    +0.000 HD
ENDBRANCH   4   9
BRANCH   5  11
ATOM     11  C   UNL     1       5.404   4.066  14.081  0.00  0.00    +0.000 C 
ATOM     12  N   UNL     1       5.091   3.776  13.000  0.00  0.00    +0.000 NA
ENDBRANCH   5  11
BRANCH   8  13
ATOM     13  C   UNL     1       4.860   3.986  19.118  0.00  0.00    +0.000 C 
BRANCH  13  14
ATOM     14  C   UNL     1       3.801   4.973  19.593  0.00  0.00    +0.000 A 
ATOM     15  C   UNL     1       3.750   6.298  19.125  0.00  0.00    +0.000 A 
ATOM     16  C   UNL     1       2.713   7.157  19.504  0.00  0.00    +0.000 A 
ATOM     17  C   UNL     1       1.723   6.712  20.373  0.00  0.00    +0.000 A 
ATOM     18 CL   UNL     1       0.417   7.751  20.787  0.00  0.00    +0.000 Cl
ATOM     19  C   UNL     1       1.780   5.428  20.901  0.00  0.00    +0.000 A 
ATOM     20  C   UNL     1       2.817   4.570  20.522  0.00  0.00    +0.000 A 
ATOM     21 CL   UNL     1       2.838   2.995  21.238  0.00  0.00    +0.000 Cl
ENDBRANCH  13  14
ENDBRANCH   8  13
TORSDOF 4
ENDMDL
MODEL 3
REMARK VINA RESULT:      -6.3      4.590      7.118
REMARK  Name = 
REMARK  6 active torsions:
REMARK  status: ('A' for Active; 'I' for Inactive)
REMARK    1  A    between atoms: C_1  and  C_2
REMARK    2  A    between atoms: C_4  and  O_5
REMARK    3  A    between atoms: C_6  and  C_7
REMARK    4  A    between atoms: C_9  and  C_10
REMARK    5  A    between atoms: C_11  and  C_12
REMARK    6  A    between atoms: C_12  and  C_13
REMARK                            x       y       z     vdW  Elec       q    Type
REMARK                         _______ _______ _______ _____ _____    ______ ____
ROOT
ATOM      1  C   UNL     1      -0.245   9.365  22.027  0.00  0.00    +0.000 C 
ATOM      2  C   UNL     1       0.641   8.710  21.005  0.00  0.00    +0.000 A 
ATOM      3  N   UNL     1       1.100   7.488  21.372  0.00  0.00    +0.000 NA
ATOM      4  C   UNL     1       1.895   6.841  20.507  0.00  0.00    +0.000 A 
ATOM      5  C   UNL     1       2.280   7.310  19.266  0.00  0.00    +0.000 A 
ATOM      6  C   UNL     1       1.817   8.585  18.884  0.00  0.00    +0.000 A 
ATOM      7  C   UNL     1       2.184   9.163  17.533  0.00  0.00    +0.000 C 
ATOM      8  C   UNL     1       0.991   9.320  19.784  0.00  0.00    +0.000 A 
ENDROOT
BRANCH   4   9
ATOM      9  O   UNL     1       2.302   5.639  20.986  0.00  0.00    +0.000 OA
ATOM     10  H   UNL     1       3.175   5.569  20.558  0.00  0.00    +0.000 HD
ENDBRANCH   4   9
BRANCH   5  11
ATOM     11  C   UNL     1       3.126   6.502  18.439  0.00  0.00    +0.000 C 
ATOM     12  N   UNL     1       3.776   5.825  17.753  0.00  0.00    +0.000 NA
ENDBRANCH   5  11
BRANCH   8  13
ATOM     13  C   UNL     1       0.531  10.735  19.452  0.00  0.00    +0.000 C 
BRANCH  13  14
ATOM     14  C   UNL     1      -0.863  10.891  18.857  0.00  0.00    +0.000 A 
ATOM     15  C   UNL     1      -1.280  10.163  17.728  0.00  0.00    +0.000 A 
ATOM     16  C   UNL     1      -2.594  10.254  17.256  0.00  0.00    +0.000 A 
ATOM     17  C   UNL     1      -3.505  11.089  17.893  0.00  0.00    +0.000 A 
ATOM     18 CL   UNL     1      -5.135  11.150  17.348  0.00  0.00    +0.000 Cl
ATOM     19  C   UNL     1      -3.106  11.867  18.972  0.00  0.00    +0.000 A 
ATOM     20  C   UNL     1      -1.793  11.776  19.443  0.00  0.00    +0.000 A 
ATOM     21 CL   UNL     1      -1.361  12.793  20.775  0.00  0.00    +0.000 Cl
ENDBRANCH  13  14
ENDBRANCH   8  13
TORSDOF 4
ENDMDL
MODEL 4
REMARK VINA RESULT:      -6.1      2.817      4.111
REMARK  Name = 
REMARK  6 active torsions:
REMARK  status: ('A' for Active; 'I' for Inactive)
REMARK    1  A    between atoms: C_1  and  C_2
REMARK    2  A    between atoms: C_4  and  O_5
REMARK    3  A    between atoms: C_6  and  C_7
REMARK    4  A    between atoms: C_9  and  C_10
REMARK    5  A    between atoms: C_11  and  C_12
REMARK    6  A    between atoms: C_12  and  C_13
REMARK                            x       y       z     vdW  Elec       q    Type
REMARK                         _______ _______ _______ _____ _____    ______ ____
ROOT
ATOM      1  C   UNL     1       0.908   4.698  20.439  0.00  0.00    +0.000 C 
ATOM      2  C   UNL     1       1.972   4.627  19.380  0.00  0.00    +0.000 A 
ATOM      3  N   UNL     1       2.024   3.440  18.726  0.00  0.00    +0.000 NA
ATOM      4  C   UNL     1       2.947   3.304  17.763  0.00  0.00    +0.000 A 
ATOM      5  C   UNL     1       3.847   4.277  17.372  0.00  0.00    +0.000 A 
ATOM      6  C   UNL     1       3.807   5.508  18.055  0.00  0.00    +0.000 A 
ATOM      7  C   UNL     1       4.751   6.630  17.675  0.00  0.00    +0.000 C 
ATOM      8  C   UNL     1       2.859   5.687  19.104  0.00  0.00    +0.000 A 
ENDROOT
BRANCH   4   9
ATOM      9  O   UNL     1       2.913   2.075  17.190  0.00  0.00    +0.000 OA
ATOM     10  H   UNL     1       2.785   2.323  16.256  0.00  0.00    +0.000 HD
ENDBRANCH   4   9
BRANCH   5  11
ATOM     11  C   UNL     1       4.772   3.996  16.315  0.00  0.00    +0.000 C 
ATOM     12  N   UNL     1       5.552   3.794  15.477  0.00  0.00    +0.000 NA
ENDBRANCH   5  11
BRANCH   8  13
ATOM     13  C   UNL     1       2.829   6.970  19.928  0.00  0.00    +0.000 C 
BRANCH  13  14
ATOM     14  C   UNL     1       1.909   8.084  19.445  0.00  0.00    +0.000 A 
ATOM     15  C   UNL     1       1.792   8.420  18.084  0.00  0.00    +0.000 A 
ATOM     16  C   UNL     1       0.872   9.383  17.656  0.00  0.00    +0.000 A 
ATOM     17  C   UNL     1       0.071  10.041  18.583  0.00  0.00    +0.000 A 
ATOM     18 CL   UNL     1      -1.101  11.179  18.046  0.00  0.00    +0.000 Cl
ATOM     19  C   UNL     1       0.208   9.776  19.940  0.00  0.00    +0.000 A 
ATOM     20  C   UNL     1       1.127   8.813  20.367  0.00  0.00    +0.000 A 
ATOM     21 CL   UNL     1       1.261   8.553  22.073  0.00  0.00    +0.000 Cl
ENDBRANCH  13  14
ENDBRANCH   8  13
TORSDOF 4
ENDMDL
MODEL 5
REMARK VINA RESULT:      -6.1      4.406      6.494
REMARK  Name = 
REMARK  6 active torsions:
REMARK  status: ('A' for Active; 'I' for Inactive)
REMARK    1  A    between atoms: C_1  and  C_2
REMARK    2  A    between atoms: C_4  and  O_5
REMARK    3  A    between atoms: C_6  and  C_7
REMARK    4  A    between atoms: C_9  and  C_10
REMARK    5  A    between atoms: C_11  and  C_12
REMARK    6  A    between atoms: C_12  and  C_13
REMARK                            x       y       z     vdW  Elec       q    Type
REMARK                         _______ _______ _______ _____ _____    ______ ____
ROOT
ATOM      1  C   UNL     1       3.909   7.127  17.872  0.00  0.00    +0.000 C 
ATOM      2  C   UNL     1       3.510   5.992  18.774  0.00  0.00    +0.000 A 
ATOM      3  N   UNL     1       2.250   6.092  19.263  0.00  0.00    +0.000 NA
ATOM      4  C   UNL     1       1.821   5.114  20.073  0.00  0.00    +0.000 A 
ATOM      5  C   UNL     1       2.554   4.003  20.446  0.00  0.00    +0.000 A 
ATOM      6  C   UNL     1       3.869   3.899  19.951  0.00  0.00    +0.000 A 
ATOM      7  C   UNL     1       4.731   2.704  20.302  0.00  0.00    +0.000 C 
ATOM      8  C   UNL     1       4.375   4.931  19.108  0.00  0.00    +0.000 A 
ENDROOT
BRANCH   4   9
ATOM      9  O   UNL     1       0.555   5.326  20.510  0.00  0.00    +0.000 OA
ATOM     10  H   UNL     1       0.726   5.949  21.241  0.00  0.00    +0.000 HD
ENDBRANCH   4   9
BRANCH   5  11
ATOM     11  C   UNL     1       1.962   3.026  21.311  0.00  0.00    +0.000 C 
ATOM     12  N   UNL     1       1.477   2.266  22.044  0.00  0.00    +0.000 NA
ENDBRANCH   5  11
BRANCH   8  13
ATOM     13  C   UNL     1       5.816   4.907  18.613  0.00  0.00    +0.000 C 
BRANCH  13  14
ATOM     14  C   UNL     1       6.038   4.613  17.134  0.00  0.00    +0.000 A 
ATOM     15  C   UNL     1       5.490   3.479  16.507  0.00  0.00    +0.000 A 
ATOM     16  C   UNL     1       5.630   3.280  15.129  0.00  0.00    +0.000 A 
ATOM     17  C   UNL     1       6.337   4.198  14.361  0.00  0.00    +0.000 A 
ATOM     18 CL   UNL     1       6.453   3.981  12.659  0.00  0.00    +0.000 Cl
ATOM     19  C   UNL     1       6.942   5.295  14.962  0.00  0.00    +0.000 A 
ATOM     20  C   UNL     1       6.803   5.494  16.339  0.00  0.00    +0.000 A 
ATOM     21 CL   UNL     1       7.605   6.867  17.022  0.00  0.00    +0.000 Cl
ENDBRANCH  13  14
ENDBRANCH   8  13
TORSDOF 4
ENDMDL
MODEL 6
REMARK VINA RESULT:      -5.9      3.271      4.557
REMARK  Name = 
REMARK  6 active torsions:
REMARK  status: ('A' for Active; 'I' for Inactive)
REMARK    1  A    between atoms: C_1  and  C_2
REMARK    2  A    between atoms: C_4  and  O_5
REMARK    3  A    between atoms: C_6  and  C_7
REMARK    4  A    between atoms: C_9  and  C_10
REMARK    5  A    between atoms: C_11  and  C_12
REMARK    6  A    between atoms: C_12  and  C_13
REMARK                            x       y       z     vdW  Elec       q    Type
REMARK                         _______ _______ _______ _____ _____    ______ ____
ROOT
ATOM      1  C   UNL     1       4.631   6.878  17.337  0.00  0.00    +0.000 C 
ATOM      2  C   UNL     1       3.638   5.851  17.806  0.00  0.00    +0.000 A 
ATOM      3  N   UNL     1       3.577   4.745  17.024  0.00  0.00    +0.000 NA
ATOM      4  C   UNL     1       2.715   3.782  17.382  0.00  0.00    +0.000 A 
ATOM      5  C   UNL     1       1.888   3.817  18.489  0.00  0.00    +0.000 A 
ATOM      6  C   UNL     1       1.939   4.968  19.298  0.00  0.00    +0.000 A 
ATOM      7  C   UNL     1       1.074   5.076  20.537  0.00  0.00    +0.000 C 
ATOM      8  C   UNL     1       2.821   6.029  18.940  0.00  0.00    +0.000 A 
ENDROOT
BRANCH   4   9
ATOM      9  O   UNL     1       2.731   2.734  16.521  0.00  0.00    +0.000 OA
ATOM     10  H   UNL     1       3.606   2.356  16.725  0.00  0.00    +0.000 HD
ENDBRANCH   4   9
BRANCH   5  11
ATOM     11  C   UNL     1       1.025   2.706  18.757  0.00  0.00    +0.000 C 
ATOM     12  N   UNL     1       0.289   1.833  18.977  0.00  0.00    +0.000 NA
ENDBRANCH   5  11
BRANCH   8  13
ATOM     13  C   UNL     1       2.854   7.329  19.736  0.00  0.00    +0.000 C 
BRANCH  13  14
ATOM     14  C   UNL     1       1.826   8.393  19.371  0.00  0.00    +0.000 A 
ATOM     15  C   UNL     1       1.614   8.803  18.042  0.00  0.00    +0.000 A 
ATOM     16  C   UNL     1       0.601   9.713  17.722  0.00  0.00    +0.000 A 
ATOM     17  C   UNL     1      -0.201  10.243  18.726  0.00  0.00    +0.000 A 
ATOM     18 CL   UNL     1      -1.484  11.314  18.321  0.00  0.00    +0.000 Cl
ATOM     19  C   UNL     1       0.025   9.905  20.055  0.00  0.00    +0.000 A 
ATOM     20  C   UNL     1       1.038   8.996  20.374  0.00  0.00    +0.000 A 
ATOM     21 CL   UNL     1       1.278   8.641  22.051  0.00  0.00    +0.000 Cl
ENDBRANCH  13  14
ENDBRANCH   8  13
TORSDOF 4
ENDMDL
MODEL 7
REMARK VINA RESULT:      -5.9      4.646      7.132
REMARK  Name = 
REMARK  6 active torsions:
REMARK  status: ('A' for Active; 'I' for Inactive)
REMARK    1  A    between atoms: C_1  and  C_2
REMARK    2  A    between atoms: C_4  and  O_5
REMARK    3  A    between atoms: C_6  and  C_7
REMARK    4  A    between atoms: C_9  and  C_10
REMARK    5  A    between atoms: C_11  and  C_12
REMARK    6  A    between atoms: C_12  and  C_13
REMARK                            x       y       z     vdW  Elec       q    Type
REMARK                         _______ _______ _______ _____ _____    ______ ____
ROOT
ATOM      1  C   UNL     1       2.024   5.366  20.665  0.00  0.00    +0.000 C 
ATOM      2  C   UNL     1       1.776   6.830  20.430  0.00  0.00    +0.000 A 
ATOM      3  N   UNL     1       1.472   7.526  21.553  0.00  0.00    +0.000 NA
ATOM      4  C   UNL     1       1.241   8.841  21.421  0.00  0.00    +0.000 A 
ATOM      5  C   UNL     1       1.297   9.551  20.237  0.00  0.00    +0.000 A 
ATOM      6  C   UNL     1       1.600   8.830  19.065  0.00  0.00    +0.000 A 
ATOM      7  C   UNL     1       1.694   9.539  17.730  0.00  0.00    +0.000 C 
ATOM      8  C   UNL     1       1.826   7.426  19.154  0.00  0.00    +0.000 A 
ENDROOT
BRANCH   4   9
ATOM      9  O   UNL     1       0.935   9.429  22.605  0.00  0.00    +0.000 OA
ATOM     10  H   UNL     1       0.383  10.169  22.293  0.00  0.00    +0.000 HD
ENDBRANCH   4   9
BRANCH   5  11
ATOM     11  C   UNL     1       1.039  10.959  20.248  0.00  0.00    +0.000 C 
ATOM     12  N   UNL     1       0.788  12.094  20.268  0.00  0.00    +0.000 NA
ENDBRANCH   5  11
BRANCH   8  13
ATOM     13  C   UNL     1       2.077   6.588  17.905  0.00  0.00    +0.000 C 
BRANCH  13  14
ATOM     14  C   UNL     1       3.498   6.086  17.680  0.00  0.00    +0.000 A 
ATOM     15  C   UNL     1       4.604   6.956  17.656  0.00  0.00    +0.000 A 
ATOM     16  C   UNL     1       5.907   6.462  17.541  0.00  0.00    +0.000 A 
ATOM     17  C   UNL     1       6.125   5.094  17.425  0.00  0.00    +0.000 A 
ATOM     18 CL   UNL     1       7.732   4.487  17.346  0.00  0.00    +0.000 Cl
ATOM     19  C   UNL     1       5.050   4.215  17.383  0.00  0.00    +0.000 A 
ATOM     20  C   UNL     1       3.747   4.709  17.498  0.00  0.00    +0.000 A 
ATOM     21 CL   UNL     1       2.458   3.558  17.412  0.00  0.00    +0.000 Cl
ENDBRANCH  13  14
ENDBRANCH   8  13
TORSDOF 4
ENDMDL
MODEL 8
REMARK VINA RESULT:      -5.9      2.495      4.142
REMARK  Name = 
REMARK  6 active torsions:
REMARK  status: ('A' for Active; 'I' for Inactive)
REMARK    1  A    between atoms: C_1  and  C_2
REMARK    2  A    between atoms: C_4  and  O_5
REMARK    3  A    between atoms: C_6  and  C_7
REMARK    4  A    between atoms: C_9  and  C_10
REMARK    5  A    between atoms: C_11  and  C_12
REMARK    6  A    between atoms: C_12  and  C_13
REMARK                            x       y       z     vdW  Elec       q    Type
REMARK                         _______ _______ _______ _____ _____    ______ ____
ROOT
ATOM      1  C   UNL     1       2.635   8.310  17.693  0.00  0.00    +0.000 C 
ATOM      2  C   UNL     1       3.735   7.298  17.539  0.00  0.00    +0.000 A 
ATOM      3  N   UNL     1       4.966   7.841  17.369  0.00  0.00    +0.000 NA
ATOM      4  C   UNL     1       5.999   6.999  17.229  0.00  0.00    +0.000 A 
ATOM      5  C   UNL     1       5.919   5.619  17.252  0.00  0.00    +0.000 A 
ATOM      6  C   UNL     1       4.641   5.049  17.415  0.00  0.00    +0.000 A 
ATOM      7  C   UNL     1       4.472   3.545  17.465  0.00  0.00    +0.000 C 
ATOM      8  C   UNL     1       3.510   5.907  17.542  0.00  0.00    +0.000 A 
ENDROOT
BRANCH   4   9
ATOM      9  O   UNL     1       7.175   7.653  17.053  0.00  0.00    +0.000 OA
ATOM     10  H   UNL     1       6.924   8.544  17.360  0.00  0.00    +0.000 HD
ENDBRANCH   4   9
BRANCH   5  11
ATOM     11  C   UNL     1       7.112   4.842  17.101  0.00  0.00    +0.000 C 
ATOM     12  N   UNL     1       8.059   4.184  16.951  0.00  0.00    +0.000 NA
ENDBRANCH   5  11
BRANCH   8  13
ATOM     13  C   UNL     1       2.098   5.340  17.639  0.00  0.00    +0.000 C 
BRANCH  13  14
ATOM     14  C   UNL     1       1.782   4.468  18.848  0.00  0.00    +0.000 A 
ATOM     15  C   UNL     1       1.486   3.098  18.726  0.00  0.00    +0.000 A 
ATOM     16  C   UNL     1       1.291   2.299  19.857  0.00  0.00    +0.000 A 
ATOM     17  C   UNL     1       1.367   2.861  21.127  0.00  0.00    +0.000 A 
ATOM     18 CL   UNL     1       1.188   1.862  22.516  0.00  0.00    +0.000 Cl
ATOM     19  C   UNL     1       1.596   4.222  21.278  0.00  0.00    +0.000 A 
ATOM     20  C   UNL     1       1.791   5.021  20.147  0.00  0.00    +0.000 A 
ATOM     21 CL   UNL     1       2.046   6.712  20.411  0.00  0.00    +0.000 Cl
ENDBRANCH  13  14
ENDBRANCH   8  13
TORSDOF 4
ENDMDL
MODEL 9
REMARK VINA RESULT:      -5.8      2.659      3.342
REMARK  Name = 
REMARK  6 active torsions:
REMARK  status: ('A' for Active; 'I' for Inactive)
REMARK    1  A    between atoms: C_1  and  C_2
REMARK    2  A    between atoms: C_4  and  O_5
REMARK    3  A    between atoms: C_6  and  C_7
REMARK    4  A    between atoms: C_9  and  C_10
REMARK    5  A    between atoms: C_11  and  C_12
REMARK    6  A    between atoms: C_12  and  C_13
REMARK                            x       y       z     vdW  Elec       q    Type
REMARK                         _______ _______ _______ _____ _____    ______ ____
ROOT
ATOM      1  C   UNL     1       3.671   3.132  19.475  0.00  0.00    +0.000 C 
ATOM      2  C   UNL     1       4.539   4.183  18.841  0.00  0.00    +0.000 A 
ATOM      3  N   UNL     1       5.868   3.938  18.945  0.00  0.00    +0.000 NA
ATOM      4  C   UNL     1       6.706   4.831  18.399  0.00  0.00    +0.000 A 
ATOM      5  C   UNL     1       6.329   5.979  17.727  0.00  0.00    +0.000 A 
ATOM      6  C   UNL     1       4.949   6.245  17.626  0.00  0.00    +0.000 A 
ATOM      7  C   UNL     1       4.455   7.474  16.893  0.00  0.00    +0.000 C 
ATOM      8  C   UNL     1       4.023   5.336  18.216  0.00  0.00    +0.000 A 
ENDROOT
BRANCH   4   9
ATOM      9  O   UNL     1       8.007   4.489  18.576  0.00  0.00    +0.000 OA
ATOM     10  H   UNL     1       8.403   5.373  18.693  0.00  0.00    +0.000 HD
ENDBRANCH   4   9
BRANCH   5  11
ATOM     11  C   UNL     1       7.336   6.838  17.181  0.00  0.00    +0.000 C 
ATOM     12  N   UNL     1       8.158   7.554  16.778  0.00  0.00    +0.000 NA
ENDBRANCH   5  11
BRANCH   8  13
ATOM     13  C   UNL     1       2.525   5.620  18.205  0.00  0.00    +0.000 C 
BRANCH  13  14
ATOM     14  C   UNL     1       2.044   6.840  18.981  0.00  0.00    +0.000 A 
ATOM     15  C   UNL     1       1.894   8.100  18.374  0.00  0.00    +0.000 A 
ATOM     16  C   UNL     1       1.363   9.183  19.084  0.00  0.00    +0.000 A 
ATOM     17  C   UNL     1       0.993   9.027  20.415  0.00  0.00    +0.000 A 
ATOM     18 CL   UNL     1       0.282  10.344  21.264  0.00  0.00    +0.000 Cl
ATOM     19  C   UNL     1       1.187   7.812  21.059  0.00  0.00    +0.000 A 
ATOM     20  C   UNL     1       1.718   6.730  20.350  0.00  0.00    +0.000 A 
ATOM     21 CL   UNL     1       1.954   5.255  21.223  0.00  0.00    +0.000 Cl
ENDBRANCH  13  14
ENDBRANCH   8  13
TORSDOF 4
ENDMDL
