MODEL 1
REMARK VINA RESULT:      -8.4      0.000      0.000
REMARK  Name = 
REMARK  5 active torsions:
REMARK  status: ('A' for Active; 'I' for Inactive)
REMARK    1  A    between atoms: C_2  and  C_3
REMARK    2  A    between atoms: C_6  and  C_7
REMARK    3  A    between atoms: C_7  and  N_8
REMARK    4  A    between atoms: N_10  and  C_11
REMARK    5  A    between atoms: C_11  and  C_12
REMARK                            x       y       z     vdW  Elec       q    Type
REMARK                         _______ _______ _______ _____ _____    ______ ____
ROOT
ATOM      1  N   UNL     1       3.617   5.251  18.513  0.00  0.00    +0.000 N 
ATOM      2  C   UNL     1       4.396   4.801  17.452  0.00  0.00    +0.000 A 
ATOM      3  N   UNL     1       5.404   5.525  16.893  0.00  0.00    +0.000 N 
ATOM      4  N   UNL     1       4.067   3.569  17.136  0.00  0.00    +0.000 NA
ATOM      5  C   UNL     1       2.974   3.254  17.902  0.00  0.00    +0.000 A 
ATOM      6  C   UNL     1       2.202   2.082  17.920  0.00  0.00    +0.000 A 
ATOM      7  C   UNL     1       1.105   2.000  18.787  0.00  0.00    +0.000 A 
ATOM      8  C   UNL     1       0.776   3.069  19.619  0.00  0.00    +0.000 A 
ATOM      9  C   UNL     1       1.537   4.243  19.621  0.00  0.00    +0.000 A 
ATOM     10  C   UNL     1       2.641   4.301  18.754  0.00  0.00    +0.000 A 
ATOM     11  H   UNL     1       5.638   6.445  17.252  0.00  0.00    +0.000 HD
ENDROOT
BRANCH   1  12
ATOM     12  C   UNL     1       3.750   6.485  19.285  0.00  0.00    +0.000 C 
BRANCH  12  16
ATOM     13  C   UNL     1       0.823   9.661  18.868  0.00  0.00    +0.000 A 
ATOM     14  C   UNL     1       0.977   9.018  20.089  0.00  0.00    +0.000 A 
ATOM     15  C   UNL     1       1.832   7.927  20.182  0.00  0.00    +0.000 A 
ATOM     16  C   UNL     1       2.625   7.493  19.113  0.00  0.00    +0.000 A 
ATOM     17  C   UNL     1       2.426   8.127  17.874  0.00  0.00    +0.000 A 
ATOM     18  C   UNL     1       1.523   9.193  17.751  0.00  0.00    +0.000 A 
BRANCH  13  20
ATOM     19  N   UNL     1      -0.761  11.701  18.684  0.00  0.00    +0.000 NA
ATOM     20  C   UNL     1      -0.041  10.791  18.770  0.00  0.00    +0.000 C 
ENDBRANCH  13  20
ENDBRANCH  12  16
ENDBRANCH   1  12
BRANCH   3  21
ATOM     21  C   UNL     1       6.609   4.793  16.468  0.00  0.00    +0.000 C 
BRANCH  21  22
ATOM     22  C   UNL     1       6.736   4.628  14.982  0.00  0.00    +0.000 A 
ATOM     23  C   UNL     1       6.076   3.846  14.056  0.00  0.00    +0.000 A 
ATOM     24  C   UNL     1       6.649   4.137  12.794  0.00  0.00    +0.000 A 
ATOM     25  C   UNL     1       7.638   5.062  13.028  0.00  0.00    +0.000 A 
ATOM     26  O   UNL     1       7.701   5.368  14.352  0.00  0.00    +0.000 OA
ENDBRANCH  21  22
ENDBRANCH   3  21
TORSDOF 5
ENDMDL
MODEL 2
REMARK VINA RESULT:      -7.9      0.326      1.013
REMARK  Name = 
REMARK  5 active torsions:
REMARK  status: ('A' for Active; 'I' for Inactive)
REMARK    1  A    between atoms: C_2  and  C_3
REMARK    2  A    between atoms: C_6  and  C_7
REMARK    3  A    between atoms: C_7  and  N_8
REMARK    4  A    between atoms: N_10  and  C_11
REMARK    5  A    between atoms: C_11  and  C_12
REMARK                            x       y       z     vdW  Elec       q    Type
REMARK                         _______ _______ _______ _____ _____    ______ ____
ROOT
ATOM      1  N   UNL     1       3.618   5.201  18.621  0.00  0.00    +0.000 N 
ATOM      2  C   UNL     1       4.382   4.766  17.544  0.00  0.00    +0.000 A 
ATOM      3  N   UNL     1       5.419   5.472  17.016  0.00  0.00    +0.000 N 
ATOM      4  N   UNL     1       4.006   3.561  17.177  0.00  0.00    +0.000 NA
ATOM      5  C   UNL     1       2.900   3.257  17.927  0.00  0.00    +0.000 A 
ATOM      6  C   UNL     1       2.083   2.116  17.896  0.00  0.00    +0.000 A 
ATOM      7  C   UNL     1       0.981   2.041  18.756  0.00  0.00    +0.000 A 
ATOM      8  C   UNL     1       0.691   3.087  19.632  0.00  0.00    +0.000 A 
ATOM      9  C   UNL     1       1.497   4.230  19.683  0.00  0.00    +0.000 A 
ATOM     10  C   UNL     1       2.605   4.280  18.821  0.00  0.00    +0.000 A 
ATOM     11  H   UNL     1       5.687   6.367  17.414  0.00  0.00    +0.000 HD
ENDROOT
BRANCH   1  12
ATOM     12  C   UNL     1       3.796   6.396  19.443  0.00  0.00    +0.000 C 
BRANCH  12  16
ATOM     13  C   UNL     1       0.716   9.335  18.602  0.00  0.00    +0.000 A 
ATOM     14  C   UNL     1       1.611   8.966  17.607  0.00  0.00    +0.000 A 
ATOM     15  C   UNL     1       2.663   8.114  17.917  0.00  0.00    +0.000 A 
ATOM     16  C   UNL     1       2.817   7.529  19.179  0.00  0.00    +0.000 A 
ATOM     17  C   UNL     1       1.929   7.944  20.187  0.00  0.00    +0.000 A 
ATOM     18  C   UNL     1       0.896   8.850  19.903  0.00  0.00    +0.000 A 
BRANCH  13  20
ATOM     19  N   UNL     1      -1.270  10.902  18.049  0.00  0.00    +0.000 NA
ATOM     20  C   UNL     1      -0.375  10.196  18.287  0.00  0.00    +0.000 C 
ENDBRANCH  13  20
ENDBRANCH  12  16
ENDBRANCH   1  12
BRANCH   3  21
ATOM     21  C   UNL     1       6.596   4.711  16.564  0.00  0.00    +0.000 C 
BRANCH  21  22
ATOM     22  C   UNL     1       6.709   4.585  15.072  0.00  0.00    +0.000 A 
ATOM     23  C   UNL     1       6.037   3.829  14.133  0.00  0.00    +0.000 A 
ATOM     24  C   UNL     1       6.600   4.150  12.874  0.00  0.00    +0.000 A 
ATOM     25  C   UNL     1       7.596   5.064  13.122  0.00  0.00    +0.000 A 
ATOM     26  O   UNL     1       7.673   5.336  14.454  0.00  0.00    +0.000 OA
ENDBRANCH  21  22
ENDBRANCH   3  21
TORSDOF 5
ENDMDL
MODEL 3
REMARK VINA RESULT:      -7.7      2.239      2.937
REMARK  Name = 
REMARK  5 active torsions:
REMARK  status: ('A' for Active; 'I' for Inactive)
REMARK    1  A    between atoms: C_2  and  C_3
REMARK    2  A    between atoms: C_6  and  C_7
REMARK    3  A    between atoms: C_7  and  N_8
REMARK    4  A    between atoms: N_10  and  C_11
REMARK    5  A    between atoms: C_11  and  C_12
REMARK                            x       y       z     vdW  Elec       q    Type
REMARK                         _______ _______ _______ _____ _____    ______ ____
ROOT
ATOM      1  N   UNL     1       3.351   4.627  18.443  0.00  0.00    +0.000 N 
ATOM      2  C   UNL     1       4.649   4.132  18.379  0.00  0.00    +0.000 A 
ATOM      3  N   UNL     1       5.562   4.521  17.448  0.00  0.00    +0.000 N 
ATOM      4  N   UNL     1       4.874   3.313  19.381  0.00  0.00    +0.000 NA
ATOM      5  C   UNL     1       3.676   3.160  20.031  0.00  0.00    +0.000 A 
ATOM      6  C   UNL     1       3.354   2.357  21.136  0.00  0.00    +0.000 A 
ATOM      7  C   UNL     1       2.038   2.353  21.616  0.00  0.00    +0.000 A 
ATOM      8  C   UNL     1       1.056   3.131  21.004  0.00  0.00    +0.000 A 
ATOM      9  C   UNL     1       1.360   3.944  19.906  0.00  0.00    +0.000 A 
ATOM     10  C   UNL     1       2.687   3.944  19.448  0.00  0.00    +0.000 A 
ATOM     11  H   UNL     1       5.321   5.219  16.751  0.00  0.00    +0.000 HD
ENDROOT
BRANCH   1  12
ATOM     12  C   UNL     1       2.732   5.677  17.638  0.00  0.00    +0.000 C 
BRANCH  12  16
ATOM     13  C   UNL     1       1.381   9.235  19.723  0.00  0.00    +0.000 A 
ATOM     14  C   UNL     1       1.597   9.276  18.352  0.00  0.00    +0.000 A 
ATOM     15  C   UNL     1       2.139   8.168  17.713  0.00  0.00    +0.000 A 
ATOM     16  C   UNL     1       2.400   6.964  18.376  0.00  0.00    +0.000 A 
ATOM     17  C   UNL     1       2.217   6.951  19.770  0.00  0.00    +0.000 A 
ATOM     18  C   UNL     1       1.725   8.082  20.438  0.00  0.00    +0.000 A 
BRANCH  13  20
ATOM     19  N   UNL     1       0.362  11.290  20.925  0.00  0.00    +0.000 NA
ATOM     20  C   UNL     1       0.810  10.362  20.382  0.00  0.00    +0.000 C 
ENDBRANCH  13  20
ENDBRANCH  12  16
ENDBRANCH   1  12
BRANCH   3  21
ATOM     21  C   UNL     1       6.960   4.661  17.887  0.00  0.00    +0.000 C 
BRANCH  21  22
ATOM     22  C   UNL     1       7.433   6.082  17.988  0.00  0.00    +0.000 A 
ATOM     23  C   UNL     1       8.198   6.761  18.913  0.00  0.00    +0.000 A 
ATOM     24  C   UNL     1       8.303   8.097  18.454  0.00  0.00    +0.000 A 
ATOM     25  C   UNL     1       7.577   8.158  17.288  0.00  0.00    +0.000 A 
ATOM     26  O   UNL     1       7.043   6.941  16.995  0.00  0.00    +0.000 OA
ENDBRANCH  21  22
ENDBRANCH   3  21
TORSDOF 5
ENDMDL
MODEL 4
REMARK VINA RESULT:      -7.7      2.197      2.712
REMARK  Name = 
REMARK  5 active torsions:
REMARK  status: ('A' for Active; 'I' for Inactive)
REMARK    1  A    between atoms: C_2  and  C_3
REMARK    2  A    between atoms: C_6  and  C_7
REMARK    3  A    between atoms: C_7  and  N_8
REMARK    4  A    between atoms: N_10  and  C_11
REMARK    5  A    between atoms: C_11  and  C_12
REMARK                            x       y       z     vdW  Elec       q    Type
REMARK                         _______ _______ _______ _____ _____    ______ ____
ROOT
ATOM      1  N   UNL     1       2.630   6.081  19.144  0.00  0.00    +0.000 N 
ATOM      2  C   UNL     1       3.263   6.027  17.906  0.00  0.00    +0.000 A 
ATOM      3  N   UNL     1       3.933   7.073  17.353  0.00  0.00    +0.000 N 
ATOM      4  N   UNL     1       3.181   4.814  17.406  0.00  0.00    +0.000 NA
ATOM      5  C   UNL     1       2.374   4.101  18.254  0.00  0.00    +0.000 A 
ATOM      6  C   UNL     1       1.926   2.774  18.158  0.00  0.00    +0.000 A 
ATOM      7  C   UNL     1       1.079   2.266  19.151  0.00  0.00    +0.000 A 
ATOM      8  C   UNL     1       0.679   3.066  20.221  0.00  0.00    +0.000 A 
ATOM      9  C   UNL     1       1.121   4.388  20.338  0.00  0.00    +0.000 A 
ATOM     10  C   UNL     1       1.979   4.875  19.339  0.00  0.00    +0.000 A 
ATOM     11  H   UNL     1       4.008   7.956  17.848  0.00  0.00    +0.000 HD
ENDROOT
BRANCH   1  12
ATOM     12  C   UNL     1       2.617   7.171  20.116  0.00  0.00    +0.000 C 
BRANCH  12  16
ATOM     13  C   UNL     1      -0.335  10.336  19.802  0.00  0.00    +0.000 A 
ATOM     14  C   UNL     1      -0.263   9.569  20.957  0.00  0.00    +0.000 A 
ATOM     15  C   UNL     1       0.605   8.486  21.004  0.00  0.00    +0.000 A 
ATOM     16  C   UNL     1       1.487   8.177  19.962  0.00  0.00    +0.000 A 
ATOM     17  C   UNL     1       1.373   8.935  18.784  0.00  0.00    +0.000 A 
ATOM     18  C   UNL     1       0.459   9.997  18.701  0.00  0.00    +0.000 A 
BRANCH  13  20
ATOM     19  N   UNL     1      -1.925  12.379  19.734  0.00  0.00    +0.000 NA
ATOM     20  C   UNL     1      -1.212  11.458  19.753  0.00  0.00    +0.000 C 
ENDBRANCH  13  20
ENDBRANCH  12  16
ENDBRANCH   1  12
BRANCH   3  21
ATOM     21  C   UNL     1       5.167   6.770  16.608  0.00  0.00    +0.000 C 
BRANCH  21  22
ATOM     22  C   UNL     1       6.416   6.828  17.439  0.00  0.00    +0.000 A 
ATOM     23  C   UNL     1       7.445   7.742  17.538  0.00  0.00    +0.000 A 
ATOM     24  C   UNL     1       8.345   7.239  18.508  0.00  0.00    +0.000 A 
ATOM     25  C   UNL     1       7.824   6.038  18.926  0.00  0.00    +0.000 A 
ATOM     26  O   UNL     1       6.652   5.777  18.284  0.00  0.00    +0.000 OA
ENDBRANCH  21  22
ENDBRANCH   3  21
TORSDOF 5
ENDMDL
MODEL 5
REMARK VINA RESULT:      -7.7      2.165      2.847
REMARK  Name = 
REMARK  5 active torsions:
REMARK  status: ('A' for Active; 'I' for Inactive)
REMARK    1  A    between atoms: C_2  and  C_3
REMARK    2  A    between atoms: C_6  and  C_7
REMARK    3  A    between atoms: C_7  and  N_8
REMARK    4  A    between atoms: N_10  and  C_11
REMARK    5  A    between atoms: C_11  and  C_12
REMARK                            x       y       z     vdW  Elec       q    Type
REMARK                         _______ _______ _______ _____ _____    ______ ____
ROOT
ATOM      1  N   UNL     1       2.620   6.123  19.089  0.00  0.00    +0.000 N 
ATOM      2  C   UNL     1       3.276   6.040  17.866  0.00  0.00    +0.000 A 
ATOM      3  N   UNL     1       3.965   7.070  17.305  0.00  0.00    +0.000 N 
ATOM      4  N   UNL     1       3.195   4.819  17.388  0.00  0.00    +0.000 NA
ATOM      5  C   UNL     1       2.366   4.128  18.233  0.00  0.00    +0.000 A 
ATOM      6  C   UNL     1       1.909   2.803  18.154  0.00  0.00    +0.000 A 
ATOM      7  C   UNL     1       1.039   2.320  19.140  0.00  0.00    +0.000 A 
ATOM      8  C   UNL     1       0.625   3.144  20.187  0.00  0.00    +0.000 A 
ATOM      9  C   UNL     1       1.075   4.465  20.287  0.00  0.00    +0.000 A 
ATOM     10  C   UNL     1       1.956   4.925  19.295  0.00  0.00    +0.000 A 
ATOM     11  H   UNL     1       4.037   7.962  17.784  0.00  0.00    +0.000 HD
ENDROOT
BRANCH   1  12
ATOM     12  C   UNL     1       2.597   7.232  20.040  0.00  0.00    +0.000 C 
BRANCH  12  16
ATOM     13  C   UNL     1      -0.413  10.178  18.993  0.00  0.00    +0.000 A 
ATOM     14  C   UNL     1       0.508   9.761  18.042  0.00  0.00    +0.000 A 
ATOM     15  C   UNL     1       1.538   8.907  18.416  0.00  0.00    +0.000 A 
ATOM     16  C   UNL     1       1.643   8.367  19.703  0.00  0.00    +0.000 A 
ATOM     17  C   UNL     1       0.729   8.831  20.666  0.00  0.00    +0.000 A 
ATOM     18  C   UNL     1      -0.282   9.739  20.316  0.00  0.00    +0.000 A 
BRANCH  13  20
ATOM     19  N   UNL     1      -2.354  11.737  18.282  0.00  0.00    +0.000 NA
ATOM     20  C   UNL     1      -1.481  11.041  18.612  0.00  0.00    +0.000 C 
ENDBRANCH  13  20
ENDBRANCH  12  16
ENDBRANCH   1  12
BRANCH   3  21
ATOM     21  C   UNL     1       5.211   6.743  16.591  0.00  0.00    +0.000 C 
BRANCH  21  22
ATOM     22  C   UNL     1       6.445   6.816  17.443  0.00  0.00    +0.000 A 
ATOM     23  C   UNL     1       7.464   7.739  17.555  0.00  0.00    +0.000 A 
ATOM     24  C   UNL     1       8.352   7.247  18.543  0.00  0.00    +0.000 A 
ATOM     25  C   UNL     1       7.833   6.043  18.958  0.00  0.00    +0.000 A 
ATOM     26  O   UNL     1       6.676   5.770  18.296  0.00  0.00    +0.000 OA
ENDBRANCH  21  22
ENDBRANCH   3  21
TORSDOF 5
ENDMDL
MODEL 6
REMARK VINA RESULT:      -7.6      2.861      7.186
REMARK  Name = 
REMARK  5 active torsions:
REMARK  status: ('A' for Active; 'I' for Inactive)
REMARK    1  A    between atoms: C_2  and  C_3
REMARK    2  A    between atoms: C_6  and  C_7
REMARK    3  A    between atoms: C_7  and  N_8
REMARK    4  A    between atoms: N_10  and  C_11
REMARK    5  A    between atoms: C_11  and  C_12
REMARK                            x       y       z     vdW  Elec       q    Type
REMARK                         _______ _______ _______ _____ _____    ______ ____
ROOT
ATOM      1  N   UNL     1       3.617   5.322  19.426  0.00  0.00    +0.000 N 
ATOM      2  C   UNL     1       2.524   6.097  19.801  0.00  0.00    +0.000 A 
ATOM      3  N   UNL     1       2.615   7.402  20.174  0.00  0.00    +0.000 N 
ATOM      4  N   UNL     1       1.412   5.411  19.666  0.00  0.00    +0.000 NA
ATOM      5  C   UNL     1       1.784   4.134  19.331  0.00  0.00    +0.000 A 
ATOM      6  C   UNL     1       0.990   2.997  19.119  0.00  0.00    +0.000 A 
ATOM      7  C   UNL     1       1.609   1.781  18.801  0.00  0.00    +0.000 A 
ATOM      8  C   UNL     1       2.997   1.696  18.700  0.00  0.00    +0.000 A 
ATOM      9  C   UNL     1       3.805   2.821  18.900  0.00  0.00    +0.000 A 
ATOM     10  C   UNL     1       3.165   4.032  19.205  0.00  0.00    +0.000 A 
ATOM     11  H   UNL     1       3.513   7.875  20.178  0.00  0.00    +0.000 HD
ENDROOT
BRANCH   1  12
ATOM     12  C   UNL     1       5.012   5.727  19.264  0.00  0.00    +0.000 C 
BRANCH  12  16
ATOM     13  C   UNL     1       6.385   4.963  15.220  0.00  0.00    +0.000 A 
ATOM     14  C   UNL     1       7.080   4.433  16.298  0.00  0.00    +0.000 A 
ATOM     15  C   UNL     1       6.702   4.778  17.590  0.00  0.00    +0.000 A 
ATOM     16  C   UNL     1       5.584   5.573  17.864  0.00  0.00    +0.000 A 
ATOM     17  C   UNL     1       4.916   6.137  16.763  0.00  0.00    +0.000 A 
ATOM     18  C   UNL     1       5.323   5.844  15.452  0.00  0.00    +0.000 A 
BRANCH  13  20
ATOM     19  N   UNL     1       7.071   4.323  12.806  0.00  0.00    +0.000 NA
ATOM     20  C   UNL     1       6.758   4.600  13.893  0.00  0.00    +0.000 C 
ENDBRANCH  13  20
ENDBRANCH  12  16
ENDBRANCH   1  12
BRANCH   3  21
ATOM     21  C   UNL     1       1.535   8.306  19.744  0.00  0.00    +0.000 C 
BRANCH  21  22
ATOM     22  C   UNL     1       0.782   8.945  20.874  0.00  0.00    +0.000 A 
ATOM     23  C   UNL     1       0.118   8.440  21.974  0.00  0.00    +0.000 A 
ATOM     24  C   UNL     1      -0.397   9.552  22.684  0.00  0.00    +0.000 A 
ATOM     25  C   UNL     1      -0.037  10.666  21.965  0.00  0.00    +0.000 A 
ATOM     26  O   UNL     1       0.679  10.310  20.862  0.00  0.00    +0.000 OA
ENDBRANCH  21  22
ENDBRANCH   3  21
TORSDOF 5
ENDMDL
MODEL 7
REMARK VINA RESULT:      -7.5      2.674      6.441
REMARK  Name = 
REMARK  5 active torsions:
REMARK  status: ('A' for Active; 'I' for Inactive)
REMARK    1  A    between atoms: C_2  and  C_3
REMARK    2  A    between atoms: C_6  and  C_7
REMARK    3  A    between atoms: C_7  and  N_8
REMARK    4  A    between atoms: N_10  and  C_11
REMARK    5  A    between atoms: C_11  and  C_12
REMARK                            x       y       z     vdW  Elec       q    Type
REMARK                         _______ _______ _______ _____ _____    ______ ____
ROOT
ATOM      1  N   UNL     1       3.521   5.148  19.578  0.00  0.00    +0.000 N 
ATOM      2  C   UNL     1       2.402   5.733  20.160  0.00  0.00    +0.000 A 
ATOM      3  N   UNL     1       2.412   6.955  20.759  0.00  0.00    +0.000 N 
ATOM      4  N   UNL     1       1.344   4.976  19.975  0.00  0.00    +0.000 NA
ATOM      5  C   UNL     1       1.794   3.821  19.388  0.00  0.00    +0.000 A 
ATOM      6  C   UNL     1       1.083   2.667  19.025  0.00  0.00    +0.000 A 
ATOM      7  C   UNL     1       1.775   1.593  18.449  0.00  0.00    +0.000 A 
ATOM      8  C   UNL     1       3.152   1.663  18.243  0.00  0.00    +0.000 A 
ATOM      9  C   UNL     1       3.876   2.809  18.591  0.00  0.00    +0.000 A 
ATOM     10  C   UNL     1       3.163   3.879  19.155  0.00  0.00    +0.000 A 
ATOM     11  H   UNL     1       3.264   7.506  20.790  0.00  0.00    +0.000 HD
ENDROOT
BRANCH   1  12
ATOM     12  C   UNL     1       4.858   5.710  19.402  0.00  0.00    +0.000 C 
BRANCH  12  16
ATOM     13  C   UNL     1       6.293   4.998  15.369  0.00  0.00    +0.000 A 
ATOM     14  C   UNL     1       6.980   4.465  16.452  0.00  0.00    +0.000 A 
ATOM     15  C   UNL     1       6.581   4.794  17.741  0.00  0.00    +0.000 A 
ATOM     16  C   UNL     1       5.450   5.575  18.008  0.00  0.00    +0.000 A 
ATOM     17  C   UNL     1       4.791   6.141  16.903  0.00  0.00    +0.000 A 
ATOM     18  C   UNL     1       5.218   5.865  15.595  0.00  0.00    +0.000 A 
BRANCH  13  20
ATOM     19  N   UNL     1       6.994   4.379  12.954  0.00  0.00    +0.000 NA
ATOM     20  C   UNL     1       6.687   4.651  14.044  0.00  0.00    +0.000 C 
ENDBRANCH  13  20
ENDBRANCH  12  16
ENDBRANCH   1  12
BRANCH   3  21
ATOM     21  C   UNL     1       1.227   7.810  20.574  0.00  0.00    +0.000 C 
BRANCH  21  22
ATOM     22  C   UNL     1       1.399   8.882  19.537  0.00  0.00    +0.000 A 
ATOM     23  C   UNL     1       1.970   8.899  18.280  0.00  0.00    +0.000 A 
ATOM     24  C   UNL     1       1.823  10.218  17.785  0.00  0.00    +0.000 A 
ATOM     25  C   UNL     1       1.191  10.931  18.776  0.00  0.00    +0.000 A 
ATOM     26  O   UNL     1       0.930  10.130  19.846  0.00  0.00    +0.000 OA
ENDBRANCH  21  22
ENDBRANCH   3  21
TORSDOF 5
ENDMDL
MODEL 8
REMARK VINA RESULT:      -7.5      2.534      6.688
REMARK  Name = 
REMARK  5 active torsions:
REMARK  status: ('A' for Active; 'I' for Inactive)
REMARK    1  A    between atoms: C_2  and  C_3
REMARK    2  A    between atoms: C_6  and  C_7
REMARK    3  A    between atoms: C_7  and  N_8
REMARK    4  A    between atoms: N_10  and  C_11
REMARK    5  A    between atoms: C_11  and  C_12
REMARK                            x       y       z     vdW  Elec       q    Type
REMARK                         _______ _______ _______ _____ _____    ______ ____
ROOT
ATOM      1  N   UNL     1       3.900   5.483  19.261  0.00  0.00    +0.000 N 
ATOM      2  C   UNL     1       2.995   6.514  19.034  0.00  0.00    +0.000 A 
ATOM      3  N   UNL     1       3.337   7.716  18.496  0.00  0.00    +0.000 N 
ATOM      4  N   UNL     1       1.778   6.127  19.340  0.00  0.00    +0.000 NA
ATOM      5  C   UNL     1       1.899   4.881  19.900  0.00  0.00    +0.000 A 
ATOM      6  C   UNL     1       0.911   4.043  20.440  0.00  0.00    +0.000 A 
ATOM      7  C   UNL     1       1.285   2.806  20.980  0.00  0.00    +0.000 A 
ATOM      8  C   UNL     1       2.622   2.410  20.988  0.00  0.00    +0.000 A 
ATOM      9  C   UNL     1       3.620   3.228  20.447  0.00  0.00    +0.000 A 
ATOM     10  C   UNL     1       3.223   4.458  19.899  0.00  0.00    +0.000 A 
ATOM     11  H   UNL     1       4.296   7.903  18.219  0.00  0.00    +0.000 HD
ENDROOT
BRANCH   1  12
ATOM     12  C   UNL     1       5.318   5.418  18.911  0.00  0.00    +0.000 C 
BRANCH  12  16
ATOM     13  C   UNL     1       6.109   4.149  14.838  0.00  0.00    +0.000 A 
ATOM     14  C   UNL     1       4.874   3.890  15.416  0.00  0.00    +0.000 A 
ATOM     15  C   UNL     1       4.670   4.195  16.756  0.00  0.00    +0.000 A 
ATOM     16  C   UNL     1       5.632   4.842  17.539  0.00  0.00    +0.000 A 
ATOM     17  C   UNL     1       6.890   5.060  16.953  0.00  0.00    +0.000 A 
ATOM     18  C   UNL     1       7.130   4.704  15.618  0.00  0.00    +0.000 A 
BRANCH  13  20
ATOM     19  N   UNL     1       6.487   3.592  12.337  0.00  0.00    +0.000 NA
ATOM     20  C   UNL     1       6.320   3.853  13.459  0.00  0.00    +0.000 C 
ENDBRANCH  13  20
ENDBRANCH  12  16
ENDBRANCH   1  12
BRANCH   3  21
ATOM     21  C   UNL     1       2.380   8.338  17.565  0.00  0.00    +0.000 C 
BRANCH  21  22
ATOM     22  C   UNL     1       1.709   9.568  18.104  0.00  0.00    +0.000 A 
ATOM     23  C   UNL     1       0.486   9.794  18.702  0.00  0.00    +0.000 A 
ATOM     24  C   UNL     1       0.426  11.178  18.996  0.00  0.00    +0.000 A 
ATOM     25  C   UNL     1       1.605  11.717  18.541  0.00  0.00    +0.000 A 
ATOM     26  O   UNL     1       2.393  10.750  17.996  0.00  0.00    +0.000 OA
ENDBRANCH  21  22
ENDBRANCH   3  21
TORSDOF 5
ENDMDL
MODEL 9
REMARK VINA RESULT:      -7.5      2.746      6.490
REMARK  Name = 
REMARK  5 active torsions:
REMARK  status: ('A' for Active; 'I' for Inactive)
REMARK    1  A    between atoms: C_2  and  C_3
REMARK    2  A    between atoms: C_6  and  C_7
REMARK    3  A    between atoms: C_7  and  N_8
REMARK    4  A    between atoms: N_10  and  C_11
REMARK    5  A    between atoms: C_11  and  C_12
REMARK                            x       y       z     vdW  Elec       q    Type
REMARK                         _______ _______ _______ _____ _____    ______ ____
ROOT
ATOM      1  N   UNL     1       3.289   5.092  19.724  0.00  0.00    +0.000 N 
ATOM      2  C   UNL     1       2.222   5.709  20.368  0.00  0.00    +0.000 A 
ATOM      3  N   UNL     1       2.307   6.920  20.982  0.00  0.00    +0.000 N 
ATOM      4  N   UNL     1       1.129   4.994  20.225  0.00  0.00    +0.000 NA
ATOM      5  C   UNL     1       1.506   3.833  19.600  0.00  0.00    +0.000 A 
ATOM      6  C   UNL     1       0.737   2.711  19.256  0.00  0.00    +0.000 A 
ATOM      7  C   UNL     1       1.358   1.622  18.633  0.00  0.00    +0.000 A 
ATOM      8  C   UNL     1       2.726   1.645  18.361  0.00  0.00    +0.000 A 
ATOM      9  C   UNL     1       3.509   2.757  18.689  0.00  0.00    +0.000 A 
ATOM     10  C   UNL     1       2.864   3.844  19.302  0.00  0.00    +0.000 A 
ATOM     11  H   UNL     1       3.179   7.439  20.980  0.00  0.00    +0.000 HD
ENDROOT
BRANCH   1  12
ATOM     12  C   UNL     1       4.637   5.607  19.490  0.00  0.00    +0.000 C 
BRANCH  12  16
ATOM     13  C   UNL     1       6.489   5.248  15.583  0.00  0.00    +0.000 A 
ATOM     14  C   UNL     1       5.262   5.885  15.711  0.00  0.00    +0.000 A 
ATOM     15  C   UNL     1       4.623   5.893  16.945  0.00  0.00    +0.000 A 
ATOM     16  C   UNL     1       5.204   5.361  18.101  0.00  0.00    +0.000 A 
ATOM     17  C   UNL     1       6.426   4.683  17.947  0.00  0.00    +0.000 A 
ATOM     18  C   UNL     1       7.055   4.617  16.695  0.00  0.00    +0.000 A 
BRANCH  13  20
ATOM     19  N   UNL     1       7.700   5.273  13.294  0.00  0.00    +0.000 NA
ATOM     20  C   UNL     1       7.157   5.251  14.323  0.00  0.00    +0.000 C 
ENDBRANCH  13  20
ENDBRANCH  12  16
ENDBRANCH   1  12
BRANCH   3  21
ATOM     21  C   UNL     1       1.148   7.821  20.866  0.00  0.00    +0.000 C 
BRANCH  21  22
ATOM     22  C   UNL     1       1.264   8.833  19.764  0.00  0.00    +0.000 A 
ATOM     23  C   UNL     1       1.882   8.821  18.530  0.00  0.00    +0.000 A 
ATOM     24  C   UNL     1       1.635  10.084  17.939  0.00  0.00    +0.000 A 
ATOM     25  C   UNL     1       0.901  10.799  18.855  0.00  0.00    +0.000 A 
ATOM     26  O   UNL     1       0.669  10.050  19.968  0.00  0.00    +0.000 OA
ENDBRANCH  21  22
ENDBRANCH   3  21
TORSDOF 5
ENDMDL
