MODEL 1
REMARK VINA RESULT:      -8.0      0.000      0.000
REMARK  Name = 
REMARK  12 active torsions:
REMARK  status: ('A' for Active; 'I' for Inactive)
REMARK    1  A    between atoms: C_1  and  C_2
REMARK    2  A    between atoms: C_5  and  C_6
REMARK    3  A    between atoms: C_6  and  S_7
REMARK    4  A    between atoms: S_7  and  C_10
REMARK    5  A    between atoms: C_10  and  C_11
REMARK    6  A    between atoms: C_14  and  C_15
REMARK    7  A    between atoms: N_17  and  C_18
REMARK    8  A    between atoms: C_18  and  C_19
REMARK    9  A    between atoms: C_19  and  C_20
REMARK   10  A    between atoms: C_20  and  N_21
REMARK   11  A    between atoms: C_23  and  C_24
REMARK   12  A    between atoms: C_26  and  C_27
REMARK                            x       y       z     vdW  Elec       q    Type
REMARK                         _______ _______ _______ _____ _____    ______ ____
ROOT
ATOM      1  C   UNL     1       2.498   7.007  19.272  0.00  0.00    +0.000 A 
ATOM      2  C   UNL     1       2.542   7.775  18.127  0.00  0.00    +0.000 A 
ATOM      3  C   UNL     1       1.750   8.918  18.381  0.00  0.00    +0.000 A 
ATOM      4  C   UNL     1       1.268   8.795  19.670  0.00  0.00    +0.000 A 
ATOM      5  O   UNL     1       1.728   7.622  20.219  0.00  0.00    +0.000 OA
ENDROOT
BRANCH   4   6
ATOM      6  C   UNL     1       0.413   9.677  20.439  0.00  0.00    +0.000 C 
ATOM      7  O   UNL     1      -0.260   9.298  21.394  0.00  0.00    +0.000 OA
ATOM      8  N   UNL     1       0.423  10.987  20.016  0.00  0.00    +0.000 N 
ATOM      9  H   UNL     1       1.030  11.236  19.244  0.00  0.00    +0.000 HD
BRANCH   8  10
ATOM     10  C   UNL     1      -0.300  12.035  20.704  0.00  0.00    +0.000 C 
BRANCH  10  11
ATOM     11  C   UNL     1      -1.486  12.557  19.889  0.00  0.00    +0.000 C 
BRANCH  11  12
ATOM     12  C   UNL     1      -1.464  12.118  18.409  0.00  0.00    +0.000 C 
BRANCH  12  13
ATOM     13  N   UNL     1      -2.282  10.926  18.156  0.00  0.00    +0.000 NA
ATOM     14  C   UNL     1      -3.707  11.103  18.455  0.00  0.00    +0.000 C 
ATOM     15  C   UNL     1      -4.485  11.832  17.352  0.00  0.00    +0.000 C 
ATOM     16  C   UNL     1      -5.939  12.036  17.768  0.00  0.00    +0.000 C 
ATOM     17  C   UNL     1      -4.383  11.017  16.064  0.00  0.00    +0.000 C 
ATOM     18  C   UNL     1      -2.911  10.849  15.669  0.00  0.00    +0.000 C 
ATOM     19  C   UNL     1      -2.814   9.918  14.457  0.00  0.00    +0.000 C 
ATOM     20  C   UNL     1      -2.067  10.304  16.841  0.00  0.00    +0.000 C 
ENDBRANCH  12  13
ENDBRANCH  11  12
ENDBRANCH  10  11
ENDBRANCH   8  10
ENDBRANCH   4   6
BRANCH   1  21
ATOM     21  C   UNL     1       3.154   5.739  19.660  0.00  0.00    +0.000 C 
BRANCH  21  22
ATOM     22  S   UNL     1       2.533   4.370  18.698  0.00  0.00    +0.000 S 
ATOM     23  O   UNL     1       1.634   4.951  17.718  0.00  0.00    +0.000 OA
ATOM     24  O   UNL     1       2.047   3.350  19.620  0.00  0.00    +0.000 OA
BRANCH  22  25
ATOM     25  C   UNL     1       3.982   3.749  17.844  0.00  0.00    +0.000 C 
BRANCH  25  30
ATOM     26  C   UNL     1       8.008   7.963  17.568  0.00  0.00    +0.000 C 
ATOM     27  C   UNL     1       6.977   6.875  17.617  0.00  0.00    +0.000 A 
ATOM     28  C   UNL     1       5.934   6.823  16.688  0.00  0.00    +0.000 A 
ATOM     29  C   UNL     1       4.974   5.807  16.754  0.00  0.00    +0.000 A 
ATOM     30  C   UNL     1       5.036   4.825  17.753  0.00  0.00    +0.000 A 
ATOM     31  C   UNL     1       6.092   4.870  18.671  0.00  0.00    +0.000 A 
ATOM     32  C   UNL     1       7.050   5.887  18.606  0.00  0.00    +0.000 A 
ENDBRANCH  25  30
ENDBRANCH  22  25
ENDBRANCH  21  22
ENDBRANCH   1  21
TORSDOF 9
ENDMDL
MODEL 2
REMARK VINA RESULT:      -7.6      1.085      1.587
REMARK  Name = 
REMARK  12 active torsions:
REMARK  status: ('A' for Active; 'I' for Inactive)
REMARK    1  A    between atoms: C_1  and  C_2
REMARK    2  A    between atoms: C_5  and  C_6
REMARK    3  A    between atoms: C_6  and  S_7
REMARK    4  A    between atoms: S_7  and  C_10
REMARK    5  A    between atoms: C_10  and  C_11
REMARK    6  A    between atoms: C_14  and  C_15
REMARK    7  A    between atoms: N_17  and  C_18
REMARK    8  A    between atoms: C_18  and  C_19
REMARK    9  A    between atoms: C_19  and  C_20
REMARK   10  A    between atoms: C_20  and  N_21
REMARK   11  A    between atoms: C_23  and  C_24
REMARK   12  A    between atoms: C_26  and  C_27
REMARK                            x       y       z     vdW  Elec       q    Type
REMARK                         _______ _______ _______ _____ _____    ______ ____
ROOT
ATOM      1  C   UNL     1       2.381   6.078  20.035  0.00  0.00    +0.000 A 
ATOM      2  C   UNL     1       2.721   6.749  18.879  0.00  0.00    +0.000 A 
ATOM      3  C   UNL     1       2.129   8.029  18.971  0.00  0.00    +0.000 A 
ATOM      4  C   UNL     1       1.465   8.079  20.180  0.00  0.00    +0.000 A 
ATOM      5  O   UNL     1       1.619   6.882  20.836  0.00  0.00    +0.000 OA
ENDROOT
BRANCH   4   6
ATOM      6  C   UNL     1       0.693   9.149  20.783  0.00  0.00    +0.000 C 
ATOM      7  O   UNL     1       0.535   9.265  21.995  0.00  0.00    +0.000 OA
ATOM      8  N   UNL     1       0.155  10.037  19.878  0.00  0.00    +0.000 N 
ATOM      9  H   UNL     1       0.355   9.900  18.895  0.00  0.00    +0.000 HD
BRANCH   8  10
ATOM     10  C   UNL     1      -0.578  11.217  20.286  0.00  0.00    +0.000 C 
BRANCH  10  11
ATOM     11  C   UNL     1      -0.380  12.389  19.321  0.00  0.00    +0.000 C 
BRANCH  11  12
ATOM     12  C   UNL     1      -1.375  12.395  18.140  0.00  0.00    +0.000 C 
BRANCH  12  13
ATOM     13  N   UNL     1      -2.137  11.146  18.030  0.00  0.00    +0.000 NA
ATOM     14  C   UNL     1      -3.537  11.258  18.455  0.00  0.00    +0.000 C 
ATOM     15  C   UNL     1      -4.457  11.876  17.396  0.00  0.00    +0.000 C 
ATOM     16  C   UNL     1      -5.876  12.020  17.939  0.00  0.00    +0.000 C 
ATOM     17  C   UNL     1      -4.425  10.995  16.148  0.00  0.00    +0.000 C 
ATOM     18  C   UNL     1      -2.989  10.889  15.623  0.00  0.00    +0.000 C 
ATOM     19  C   UNL     1      -2.947   9.896  14.457  0.00  0.00    +0.000 C 
ATOM     20  C   UNL     1      -2.007  10.462  16.734  0.00  0.00    +0.000 C 
ENDBRANCH  12  13
ENDBRANCH  11  12
ENDBRANCH  10  11
ENDBRANCH   8  10
ENDBRANCH   4   6
BRANCH   1  21
ATOM     21  C   UNL     1       2.731   4.742  20.565  0.00  0.00    +0.000 C 
BRANCH  21  22
ATOM     22  S   UNL     1       1.785   3.460  19.759  0.00  0.00    +0.000 S 
ATOM     23  O   UNL     1       0.989   4.133  18.749  0.00  0.00    +0.000 OA
ATOM     24  O   UNL     1       1.133   2.660  20.788  0.00  0.00    +0.000 OA
BRANCH  22  25
ATOM     25  C   UNL     1       3.025   2.461  18.934  0.00  0.00    +0.000 C 
BRANCH  25  30
ATOM     26  C   UNL     1       7.041   5.797  16.328  0.00  0.00    +0.000 C 
ATOM     27  C   UNL     1       6.008   4.954  17.015  0.00  0.00    +0.000 A 
ATOM     28  C   UNL     1       6.165   4.557  18.346  0.00  0.00    +0.000 A 
ATOM     29  C   UNL     1       5.197   3.763  18.969  0.00  0.00    +0.000 A 
ATOM     30  C   UNL     1       4.053   3.346  18.273  0.00  0.00    +0.000 A 
ATOM     31  C   UNL     1       3.891   3.760  16.945  0.00  0.00    +0.000 A 
ATOM     32  C   UNL     1       4.860   4.553  16.322  0.00  0.00    +0.000 A 
ENDBRANCH  25  30
ENDBRANCH  22  25
ENDBRANCH  21  22
ENDBRANCH   1  21
TORSDOF 9
ENDMDL
MODEL 3
REMARK VINA RESULT:      -7.5      2.907      9.137
REMARK  Name = 
REMARK  12 active torsions:
REMARK  status: ('A' for Active; 'I' for Inactive)
REMARK    1  A    between atoms: C_1  and  C_2
REMARK    2  A    between atoms: C_5  and  C_6
REMARK    3  A    between atoms: C_6  and  S_7
REMARK    4  A    between atoms: S_7  and  C_10
REMARK    5  A    between atoms: C_10  and  C_11
REMARK    6  A    between atoms: C_14  and  C_15
REMARK    7  A    between atoms: N_17  and  C_18
REMARK    8  A    between atoms: C_18  and  C_19
REMARK    9  A    between atoms: C_19  and  C_20
REMARK   10  A    between atoms: C_20  and  N_21
REMARK   11  A    between atoms: C_23  and  C_24
REMARK   12  A    between atoms: C_26  and  C_27
REMARK                            x       y       z     vdW  Elec       q    Type
REMARK                         _______ _______ _______ _____ _____    ______ ____
ROOT
ATOM      1  C   UNL     1       0.624   7.950  20.899  0.00  0.00    +0.000 A 
ATOM      2  C   UNL     1       1.719   8.235  20.112  0.00  0.00    +0.000 A 
ATOM      3  C   UNL     1       2.319   6.995  19.795  0.00  0.00    +0.000 A 
ATOM      4  C   UNL     1       1.556   6.014  20.398  0.00  0.00    +0.000 A 
ATOM      5  O   UNL     1       0.513   6.599  21.076  0.00  0.00    +0.000 OA
ENDROOT
BRANCH   4   6
ATOM      6  C   UNL     1       1.712   4.573  20.400  0.00  0.00    +0.000 C 
ATOM      7  O   UNL     1       0.764   3.793  20.376  0.00  0.00    +0.000 OA
ATOM      8  N   UNL     1       3.021   4.146  20.422  0.00  0.00    +0.000 N 
ATOM      9  H   UNL     1       3.754   4.845  20.404  0.00  0.00    +0.000 HD
BRANCH   8  10
ATOM     10  C   UNL     1       3.387   2.748  20.345  0.00  0.00    +0.000 C 
BRANCH  10  11
ATOM     11  C   UNL     1       4.323   2.453  19.170  0.00  0.00    +0.000 C 
BRANCH  11  12
ATOM     12  C   UNL     1       5.352   3.573  18.900  0.00  0.00    +0.000 C 
BRANCH  12  13
ATOM     13  N   UNL     1       4.901   4.527  17.880  0.00  0.00    +0.000 NA
ATOM     14  C   UNL     1       5.522   5.852  17.985  0.00  0.00    +0.000 C 
ATOM     15  C   UNL     1       6.932   5.924  17.384  0.00  0.00    +0.000 C 
ATOM     16  C   UNL     1       7.532   7.312  17.593  0.00  0.00    +0.000 C 
ATOM     17  C   UNL     1       6.848   5.571  15.901  0.00  0.00    +0.000 C 
ATOM     18  C   UNL     1       6.259   4.166  15.733  0.00  0.00    +0.000 C 
ATOM     19  C   UNL     1       6.053   3.877  14.242  0.00  0.00    +0.000 C 
ATOM     20  C   UNL     1       4.931   4.011  16.504  0.00  0.00    +0.000 C 
ENDBRANCH  12  13
ENDBRANCH  11  12
ENDBRANCH  10  11
ENDBRANCH   8  10
ENDBRANCH   4   6
BRANCH   1  21
ATOM     21  C   UNL     1      -0.434   8.794  21.499  0.00  0.00    +0.000 C 
BRANCH  21  22
ATOM     22  S   UNL     1       0.267  10.157  22.413  0.00  0.00    +0.000 S 
ATOM     23  O   UNL     1       1.546   9.683  22.910  0.00  0.00    +0.000 OA
ATOM     24  O   UNL     1      -0.741  10.647  23.344  0.00  0.00    +0.000 OA
BRANCH  22  25
ATOM     25  C   UNL     1       0.570  11.406  21.163  0.00  0.00    +0.000 C 
BRANCH  25  30
ATOM     26  C   UNL     1      -3.917  11.519  17.434  0.00  0.00    +0.000 C 
ATOM     27  C   UNL     1      -2.749  11.498  18.376  0.00  0.00    +0.000 A 
ATOM     28  C   UNL     1      -1.563  10.836  18.045  0.00  0.00    +0.000 A 
ATOM     29  C   UNL     1      -0.487  10.817  18.939  0.00  0.00    +0.000 A 
ATOM     30  C   UNL     1      -0.578  11.455  20.184  0.00  0.00    +0.000 A 
ATOM     31  C   UNL     1      -1.761  12.132  20.505  0.00  0.00    +0.000 A 
ATOM     32  C   UNL     1      -2.837  12.149  19.612  0.00  0.00    +0.000 A 
ENDBRANCH  25  30
ENDBRANCH  22  25
ENDBRANCH  21  22
ENDBRANCH   1  21
TORSDOF 9
ENDMDL
MODEL 4
REMARK VINA RESULT:      -7.5      1.375      1.979
REMARK  Name = 
REMARK  12 active torsions:
REMARK  status: ('A' for Active; 'I' for Inactive)
REMARK    1  A    between atoms: C_1  and  C_2
REMARK    2  A    between atoms: C_5  and  C_6
REMARK    3  A    between atoms: C_6  and  S_7
REMARK    4  A    between atoms: S_7  and  C_10
REMARK    5  A    between atoms: C_10  and  C_11
REMARK    6  A    between atoms: C_14  and  C_15
REMARK    7  A    between atoms: N_17  and  C_18
REMARK    8  A    between atoms: C_18  and  C_19
REMARK    9  A    between atoms: C_19  and  C_20
REMARK   10  A    between atoms: C_20  and  N_21
REMARK   11  A    between atoms: C_23  and  C_24
REMARK   12  A    between atoms: C_26  and  C_27
REMARK                            x       y       z     vdW  Elec       q    Type
REMARK                         _______ _______ _______ _____ _____    ______ ____
ROOT
ATOM      1  C   UNL     1       2.796   5.094  19.827  0.00  0.00    +0.000 A 
ATOM      2  C   UNL     1       1.948   5.468  20.848  0.00  0.00    +0.000 A 
ATOM      3  C   UNL     1       1.570   6.804  20.586  0.00  0.00    +0.000 A 
ATOM      4  C   UNL     1       2.201   7.178  19.416  0.00  0.00    +0.000 A 
ATOM      5  O   UNL     1       2.954   6.128  18.947  0.00  0.00    +0.000 OA
ENDROOT
BRANCH   4   6
ATOM      6  C   UNL     1       2.165   8.433  18.691  0.00  0.00    +0.000 C 
ATOM      7  O   UNL     1       2.873   8.668  17.715  0.00  0.00    +0.000 OA
ATOM      8  N   UNL     1       1.259   9.346  19.183  0.00  0.00    +0.000 N 
ATOM      9  H   UNL     1       0.683   9.072  19.969  0.00  0.00    +0.000 HD
BRANCH   8  10
ATOM     10  C   UNL     1       1.016  10.624  18.549  0.00  0.00    +0.000 C 
BRANCH  10  11
ATOM     11  C   UNL     1      -0.046  11.446  19.283  0.00  0.00    +0.000 C 
BRANCH  11  12
ATOM     12  C   UNL     1      -1.243  11.849  18.394  0.00  0.00    +0.000 C 
BRANCH  12  13
ATOM     13  N   UNL     1      -2.150  10.729  18.120  0.00  0.00    +0.000 NA
ATOM     14  C   UNL     1      -3.543  10.979  18.505  0.00  0.00    +0.000 C 
ATOM     15  C   UNL     1      -4.325  11.820  17.489  0.00  0.00    +0.000 C 
ATOM     16  C   UNL     1      -5.739  12.092  17.994  0.00  0.00    +0.000 C 
ATOM     17  C   UNL     1      -4.343  11.079  16.153  0.00  0.00    +0.000 C 
ATOM     18  C   UNL     1      -2.908  10.841  15.671  0.00  0.00    +0.000 C 
ATOM     19  C   UNL     1      -2.935   9.980  14.404  0.00  0.00    +0.000 C 
ATOM     20  C   UNL     1      -2.044  10.174  16.762  0.00  0.00    +0.000 C 
ENDBRANCH  12  13
ENDBRANCH  11  12
ENDBRANCH  10  11
ENDBRANCH   8  10
ENDBRANCH   4   6
BRANCH   1  21
ATOM     21  C   UNL     1       3.477   3.823  19.496  0.00  0.00    +0.000 C 
BRANCH  21  22
ATOM     22  S   UNL     1       2.992   3.230  17.884  0.00  0.00    +0.000 S 
ATOM     23  O   UNL     1       2.157   4.272  17.316  0.00  0.00    +0.000 OA
ATOM     24  O   UNL     1       2.469   1.878  18.035  0.00  0.00    +0.000 OA
BRANCH  22  25
ATOM     25  C   UNL     1       4.530   3.168  16.965  0.00  0.00    +0.000 C 
BRANCH  25  30
ATOM     26  C   UNL     1       7.563   8.115  17.575  0.00  0.00    +0.000 C 
ATOM     27  C   UNL     1       6.777   6.844  17.441  0.00  0.00    +0.000 A 
ATOM     28  C   UNL     1       6.984   5.769  18.309  0.00  0.00    +0.000 A 
ATOM     29  C   UNL     1       6.250   4.587  18.164  0.00  0.00    +0.000 A 
ATOM     30  C   UNL     1       5.298   4.455  17.143  0.00  0.00    +0.000 A 
ATOM     31  C   UNL     1       5.081   5.540  16.286  0.00  0.00    +0.000 A 
ATOM     32  C   UNL     1       5.816   6.721  16.431  0.00  0.00    +0.000 A 
ENDBRANCH  25  30
ENDBRANCH  22  25
ENDBRANCH  21  22
ENDBRANCH   1  21
TORSDOF 9
ENDMDL
MODEL 5
REMARK VINA RESULT:      -7.4      3.634      8.690
REMARK  Name = 
REMARK  12 active torsions:
REMARK  status: ('A' for Active; 'I' for Inactive)
REMARK    1  A    between atoms: C_1  and  C_2
REMARK    2  A    between atoms: C_5  and  C_6
REMARK    3  A    between atoms: C_6  and  S_7
REMARK    4  A    between atoms: S_7  and  C_10
REMARK    5  A    between atoms: C_10  and  C_11
REMARK    6  A    between atoms: C_14  and  C_15
REMARK    7  A    between atoms: N_17  and  C_18
REMARK    8  A    between atoms: C_18  and  C_19
REMARK    9  A    between atoms: C_19  and  C_20
REMARK   10  A    between atoms: C_20  and  N_21
REMARK   11  A    between atoms: C_23  and  C_24
REMARK   12  A    between atoms: C_26  and  C_27
REMARK                            x       y       z     vdW  Elec       q    Type
REMARK                         _______ _______ _______ _____ _____    ______ ____
ROOT
ATOM      1  C   UNL     1       0.712   8.082  20.978  0.00  0.00    +0.000 A 
ATOM      2  C   UNL     1       1.612   8.412  19.987  0.00  0.00    +0.000 A 
ATOM      3  C   UNL     1       2.311   7.225  19.670  0.00  0.00    +0.000 A 
ATOM      4  C   UNL     1       1.797   6.229  20.475  0.00  0.00    +0.000 A 
ATOM      5  O   UNL     1       0.814   6.753  21.280  0.00  0.00    +0.000 OA
ENDROOT
BRANCH   4   6
ATOM      6  C   UNL     1       2.143   4.824  20.565  0.00  0.00    +0.000 C 
ATOM      7  O   UNL     1       2.254   4.223  21.630  0.00  0.00    +0.000 OA
ATOM      8  N   UNL     1       2.331   4.208  19.347  0.00  0.00    +0.000 N 
ATOM      9  H   UNL     1       2.188   4.755  18.507  0.00  0.00    +0.000 HD
BRANCH   8  10
ATOM     10  C   UNL     1       2.601   2.792  19.222  0.00  0.00    +0.000 C 
BRANCH  10  11
ATOM     11  C   UNL     1       4.022   2.511  18.727  0.00  0.00    +0.000 C 
BRANCH  11  12
ATOM     12  C   UNL     1       4.950   3.744  18.771  0.00  0.00    +0.000 C 
BRANCH  12  13
ATOM     13  N   UNL     1       4.681   4.699  17.690  0.00  0.00    +0.000 NA
ATOM     14  C   UNL     1       5.376   5.982  17.837  0.00  0.00    +0.000 C 
ATOM     15  C   UNL     1       6.844   5.944  17.395  0.00  0.00    +0.000 C 
ATOM     16  C   UNL     1       7.512   7.294  17.643  0.00  0.00    +0.000 C 
ATOM     17  C   UNL     1       6.899   5.558  15.918  0.00  0.00    +0.000 C 
ATOM     18  C   UNL     1       6.235   4.192  15.712  0.00  0.00    +0.000 C 
ATOM     19  C   UNL     1       6.173   3.878  14.214  0.00  0.00    +0.000 C 
ATOM     20  C   UNL     1       4.824   4.146  16.335  0.00  0.00    +0.000 C 
ENDBRANCH  12  13
ENDBRANCH  11  12
ENDBRANCH  10  11
ENDBRANCH   8  10
ENDBRANCH   4   6
BRANCH   1  21
ATOM     21  C   UNL     1      -0.334   8.852  21.687  0.00  0.00    +0.000 C 
BRANCH  21  22
ATOM     22  S   UNL     1      -0.062  10.609  21.529  0.00  0.00    +0.000 S 
ATOM     23  O   UNL     1       1.344  10.818  21.820  0.00  0.00    +0.000 OA
ATOM     24  O   UNL     1      -1.080  11.299  22.312  0.00  0.00    +0.000 OA
BRANCH  22  25
ATOM     25  C   UNL     1      -0.338  10.934  19.787  0.00  0.00    +0.000 C 
BRANCH  25  30
ATOM     26  C   UNL     1       3.230  15.116  17.830  0.00  0.00    +0.000 C 
ATOM     27  C   UNL     1       2.331  14.030  18.342  0.00  0.00    +0.000 A 
ATOM     28  C   UNL     1       2.588  12.684  18.065  0.00  0.00    +0.000 A 
ATOM     29  C   UNL     1       1.734  11.684  18.541  0.00  0.00    +0.000 A 
ATOM     30  C   UNL     1       0.602  12.010  19.302  0.00  0.00    +0.000 A 
ATOM     31  C   UNL     1       0.356  13.358  19.592  0.00  0.00    +0.000 A 
ATOM     32  C   UNL     1       1.210  14.357  19.114  0.00  0.00    +0.000 A 
ENDBRANCH  25  30
ENDBRANCH  22  25
ENDBRANCH  21  22
ENDBRANCH   1  21
TORSDOF 9
ENDMDL
MODEL 6
REMARK VINA RESULT:      -7.4      5.871      9.448
REMARK  Name = 
REMARK  12 active torsions:
REMARK  status: ('A' for Active; 'I' for Inactive)
REMARK    1  A    between atoms: C_1  and  C_2
REMARK    2  A    between atoms: C_5  and  C_6
REMARK    3  A    between atoms: C_6  and  S_7
REMARK    4  A    between atoms: S_7  and  C_10
REMARK    5  A    between atoms: C_10  and  C_11
REMARK    6  A    between atoms: C_14  and  C_15
REMARK    7  A    between atoms: N_17  and  C_18
REMARK    8  A    between atoms: C_18  and  C_19
REMARK    9  A    between atoms: C_19  and  C_20
REMARK   10  A    between atoms: C_20  and  N_21
REMARK   11  A    between atoms: C_23  and  C_24
REMARK   12  A    between atoms: C_26  and  C_27
REMARK                            x       y       z     vdW  Elec       q    Type
REMARK                         _______ _______ _______ _____ _____    ______ ____
ROOT
ATOM      1  C   UNL     1       8.793   9.280  18.746  0.00  0.00    +0.000 A 
ATOM      2  C   UNL     1       8.071   9.481  17.589  0.00  0.00    +0.000 A 
ATOM      3  C   UNL     1       7.473   8.241  17.269  0.00  0.00    +0.000 A 
ATOM      4  C   UNL     1       7.853   7.347  18.251  0.00  0.00    +0.000 A 
ATOM      5  O   UNL     1       8.664   7.984  19.159  0.00  0.00    +0.000 OA
ENDROOT
BRANCH   4   6
ATOM      6  C   UNL     1       7.528   5.944  18.418  0.00  0.00    +0.000 C 
ATOM      7  O   UNL     1       8.290   5.133  18.936  0.00  0.00    +0.000 OA
ATOM      8  N   UNL     1       6.280   5.593  17.953  0.00  0.00    +0.000 N 
ATOM      9  H   UNL     1       5.689   6.321  17.570  0.00  0.00    +0.000 HD
BRANCH   8  10
ATOM     10  C   UNL     1       5.739   4.259  18.103  0.00  0.00    +0.000 C 
BRANCH  10  11
ATOM     11  C   UNL     1       4.575   3.991  17.145  0.00  0.00    +0.000 C 
BRANCH  11  12
ATOM     12  C   UNL     1       3.550   2.970  17.684  0.00  0.00    +0.000 C 
BRANCH  12  13
ATOM     13  N   UNL     1       2.251   3.577  17.996  0.00  0.00    +0.000 NA
ATOM     14  C   UNL     1       1.557   2.956  19.130  0.00  0.00    +0.000 C 
ATOM     15  C   UNL     1       2.069   3.422  20.499  0.00  0.00    +0.000 C 
ATOM     16  C   UNL     1       1.345   2.682  21.620  0.00  0.00    +0.000 C 
ATOM     17  C   UNL     1       1.866   4.932  20.606  0.00  0.00    +0.000 C 
ATOM     18  C   UNL     1       2.621   5.641  19.476  0.00  0.00    +0.000 C 
ATOM     19  C   UNL     1       2.300   7.138  19.512  0.00  0.00    +0.000 C 
ATOM     20  C   UNL     1       2.269   5.044  18.097  0.00  0.00    +0.000 C 
ENDBRANCH  12  13
ENDBRANCH  11  12
ENDBRANCH  10  11
ENDBRANCH   8  10
ENDBRANCH   4   6
BRANCH   1  21
ATOM     21  C   UNL     1       9.586  10.183  19.609  0.00  0.00    +0.000 C 
BRANCH  21  22
ATOM     22  S   UNL     1      10.053  11.668  18.735  0.00  0.00    +0.000 S 
ATOM     23  O   UNL     1       8.852  12.480  18.669  0.00  0.00    +0.000 OA
ATOM     24  O   UNL     1      10.739  11.278  17.510  0.00  0.00    +0.000 OA
BRANCH  22  25
ATOM     25  C   UNL     1      11.222  12.468  19.835  0.00  0.00    +0.000 C 
BRANCH  25  30
ATOM     26  C   UNL     1       8.310  15.771  23.664  0.00  0.00    +0.000 C 
ATOM     27  C   UNL     1       9.078  14.932  22.686  0.00  0.00    +0.000 A 
ATOM     28  C   UNL     1       9.942  15.513  21.754  0.00  0.00    +0.000 A 
ATOM     29  C   UNL     1      10.643  14.718  20.842  0.00  0.00    +0.000 A 
ATOM     30  C   UNL     1      10.491  13.324  20.841  0.00  0.00    +0.000 A 
ATOM     31  C   UNL     1       9.638  12.743  21.787  0.00  0.00    +0.000 A 
ATOM     32  C   UNL     1       8.936  13.539  22.697  0.00  0.00    +0.000 A 
ENDBRANCH  25  30
ENDBRANCH  22  25
ENDBRANCH  21  22
ENDBRANCH   1  21
TORSDOF 9
ENDMDL
MODEL 7
REMARK VINA RESULT:      -7.3      2.947      9.178
REMARK  Name = 
REMARK  12 active torsions:
REMARK  status: ('A' for Active; 'I' for Inactive)
REMARK    1  A    between atoms: C_1  and  C_2
REMARK    2  A    between atoms: C_5  and  C_6
REMARK    3  A    between atoms: C_6  and  S_7
REMARK    4  A    between atoms: S_7  and  C_10
REMARK    5  A    between atoms: C_10  and  C_11
REMARK    6  A    between atoms: C_14  and  C_15
REMARK    7  A    between atoms: N_17  and  C_18
REMARK    8  A    between atoms: C_18  and  C_19
REMARK    9  A    between atoms: C_19  and  C_20
REMARK   10  A    between atoms: C_20  and  N_21
REMARK   11  A    between atoms: C_23  and  C_24
REMARK   12  A    between atoms: C_26  and  C_27
REMARK                            x       y       z     vdW  Elec       q    Type
REMARK                         _______ _______ _______ _____ _____    ______ ____
ROOT
ATOM      1  C   UNL     1       0.550  10.926  20.527  0.00  0.00    +0.000 A 
ATOM      2  C   UNL     1      -0.050  10.330  21.617  0.00  0.00    +0.000 A 
ATOM      3  C   UNL     1       0.373   8.981  21.619  0.00  0.00    +0.000 A 
ATOM      4  C   UNL     1       1.215   8.822  20.536  0.00  0.00    +0.000 A 
ATOM      5  O   UNL     1       1.325  10.016  19.864  0.00  0.00    +0.000 OA
ENDROOT
BRANCH   4   6
ATOM      6  C   UNL     1       1.929   7.651  20.067  0.00  0.00    +0.000 C 
ATOM      7  O   UNL     1       2.682   7.664  19.097  0.00  0.00    +0.000 OA
ATOM      8  N   UNL     1       1.700   6.514  20.809  0.00  0.00    +0.000 N 
ATOM      9  H   UNL     1       1.095   6.584  21.618  0.00  0.00    +0.000 HD
BRANCH   8  10
ATOM     10  C   UNL     1       2.382   5.264  20.551  0.00  0.00    +0.000 C 
BRANCH  10  11
ATOM     11  C   UNL     1       1.872   4.572  19.285  0.00  0.00    +0.000 C 
BRANCH  11  12
ATOM     12  C   UNL     1       2.765   4.807  18.047  0.00  0.00    +0.000 C 
BRANCH  12  13
ATOM     13  N   UNL     1       3.969   3.968  18.045  0.00  0.00    +0.000 NA
ATOM     14  C   UNL     1       4.449   3.612  16.705  0.00  0.00    +0.000 C 
ATOM     15  C   UNL     1       5.259   4.721  16.023  0.00  0.00    +0.000 C 
ATOM     16  C   UNL     1       5.661   4.299  14.612  0.00  0.00    +0.000 C 
ATOM     17  C   UNL     1       6.483   5.029  16.882  0.00  0.00    +0.000 C 
ATOM     18  C   UNL     1       6.040   5.466  18.283  0.00  0.00    +0.000 C 
ATOM     19  C   UNL     1       7.273   5.640  19.175  0.00  0.00    +0.000 C 
ATOM     20  C   UNL     1       5.056   4.455  18.908  0.00  0.00    +0.000 C 
ENDBRANCH  12  13
ENDBRANCH  11  12
ENDBRANCH  10  11
ENDBRANCH   8  10
ENDBRANCH   4   6
BRANCH   1  21
ATOM     21  C   UNL     1       0.556  12.313  20.013  0.00  0.00    +0.000 C 
BRANCH  21  22
ATOM     22  S   UNL     1      -1.055  12.786  19.408  0.00  0.00    +0.000 S 
ATOM     23  O   UNL     1      -0.859  13.168  18.022  0.00  0.00    +0.000 OA
ATOM     24  O   UNL     1      -1.636  13.734  20.351  0.00  0.00    +0.000 OA
BRANCH  22  25
ATOM     25  C   UNL     1      -1.998  11.261  19.450  0.00  0.00    +0.000 C 
BRANCH  25  30
ATOM     26  C   UNL     1      -3.931  10.044  14.081  0.00  0.00    +0.000 C 
ATOM     27  C   UNL     1      -3.454  10.350  15.470  0.00  0.00    +0.000 A 
ATOM     28  C   UNL     1      -4.178  11.198  16.314  0.00  0.00    +0.000 A 
ATOM     29  C   UNL     1      -3.715  11.482  17.603  0.00  0.00    +0.000 A 
ATOM     30  C   UNL     1      -2.515  10.928  18.072  0.00  0.00    +0.000 A 
ATOM     31  C   UNL     1      -1.802  10.065  17.231  0.00  0.00    +0.000 A 
ATOM     32  C   UNL     1      -2.265   9.783  15.942  0.00  0.00    +0.000 A 
ENDBRANCH  25  30
ENDBRANCH  22  25
ENDBRANCH  21  22
ENDBRANCH   1  21
TORSDOF 9
ENDMDL
MODEL 8
REMARK VINA RESULT:      -7.3      2.636      4.080
REMARK  Name = 
REMARK  12 active torsions:
REMARK  status: ('A' for Active; 'I' for Inactive)
REMARK    1  A    between atoms: C_1  and  C_2
REMARK    2  A    between atoms: C_5  and  C_6
REMARK    3  A    between atoms: C_6  and  S_7
REMARK    4  A    between atoms: S_7  and  C_10
REMARK    5  A    between atoms: C_10  and  C_11
REMARK    6  A    between atoms: C_14  and  C_15
REMARK    7  A    between atoms: N_17  and  C_18
REMARK    8  A    between atoms: C_18  and  C_19
REMARK    9  A    between atoms: C_19  and  C_20
REMARK   10  A    between atoms: C_20  and  N_21
REMARK   11  A    between atoms: C_23  and  C_24
REMARK   12  A    between atoms: C_26  and  C_27
REMARK                            x       y       z     vdW  Elec       q    Type
REMARK                         _______ _______ _______ _____ _____    ______ ____
ROOT
ATOM      1  C   UNL     1       3.128   5.130  19.781  0.00  0.00    +0.000 A 
ATOM      2  C   UNL     1       2.124   5.160  20.725  0.00  0.00    +0.000 A 
ATOM      3  C   UNL     1       1.507   6.427  20.614  0.00  0.00    +0.000 A 
ATOM      4  C   UNL     1       2.159   7.104  19.602  0.00  0.00    +0.000 A 
ATOM      5  O   UNL     1       3.155   6.309  19.088  0.00  0.00    +0.000 OA
ENDROOT
BRANCH   4   6
ATOM      6  C   UNL     1       1.937   8.434  19.069  0.00  0.00    +0.000 C 
ATOM      7  O   UNL     1       2.363   8.801  17.977  0.00  0.00    +0.000 OA
ATOM      8  N   UNL     1       1.195   9.256  19.888  0.00  0.00    +0.000 N 
ATOM      9  H   UNL     1       0.846   8.875  20.758  0.00  0.00    +0.000 HD
BRANCH   8  10
ATOM     10  C   UNL     1       0.798  10.591  19.498  0.00  0.00    +0.000 C 
BRANCH  10  11
ATOM     11  C   UNL     1      -0.709  10.817  19.646  0.00  0.00    +0.000 C 
BRANCH  11  12
ATOM     12  C   UNL     1      -1.141  11.214  21.074  0.00  0.00    +0.000 C 
BRANCH  12  13
ATOM     13  N   UNL     1      -1.900  12.469  21.112  0.00  0.00    +0.000 NA
ATOM     14  C   UNL     1      -3.073  12.433  21.994  0.00  0.00    +0.000 C 
ATOM     15  C   UNL     1      -2.737  12.628  23.477  0.00  0.00    +0.000 C 
ATOM     16  C   UNL     1      -3.997  12.510  24.331  0.00  0.00    +0.000 C 
ATOM     17  C   UNL     1      -2.073  13.992  23.651  0.00  0.00    +0.000 C 
ATOM     18  C   UNL     1      -0.804  14.067  22.794  0.00  0.00    +0.000 C 
ATOM     19  C   UNL     1      -0.223  15.482  22.870  0.00  0.00    +0.000 C 
ATOM     20  C   UNL     1      -1.084  13.673  21.329  0.00  0.00    +0.000 C 
ENDBRANCH  12  13
ENDBRANCH  11  12
ENDBRANCH  10  11
ENDBRANCH   8  10
ENDBRANCH   4   6
BRANCH   1  21
ATOM     21  C   UNL     1       4.086   4.084  19.361  0.00  0.00    +0.000 C 
BRANCH  21  22
ATOM     22  S   UNL     1       3.524   3.247  17.888  0.00  0.00    +0.000 S 
ATOM     23  O   UNL     1       2.418   4.039  17.382  0.00  0.00    +0.000 OA
ATOM     24  O   UNL     1       3.326   1.840  18.212  0.00  0.00    +0.000 OA
BRANCH  22  25
ATOM     25  C   UNL     1       4.902   3.401  16.750  0.00  0.00    +0.000 C 
BRANCH  25  30
ATOM     26  C   UNL     1       7.933   8.285  17.750  0.00  0.00    +0.000 C 
ATOM     27  C   UNL     1       7.154   7.025  17.515  0.00  0.00    +0.000 A 
ATOM     28  C   UNL     1       7.599   5.795  18.008  0.00  0.00    +0.000 A 
ATOM     29  C   UNL     1       6.867   4.628  17.772  0.00  0.00    +0.000 A 
ATOM     30  C   UNL     1       5.675   4.665  17.034  0.00  0.00    +0.000 A 
ATOM     31  C   UNL     1       5.222   5.901  16.557  0.00  0.00    +0.000 A 
ATOM     32  C   UNL     1       5.956   7.068  16.792  0.00  0.00    +0.000 A 
ENDBRANCH  25  30
ENDBRANCH  22  25
ENDBRANCH  21  22
ENDBRANCH   1  21
TORSDOF 9
ENDMDL
MODEL 9
REMARK VINA RESULT:      -7.3      3.299      4.251
REMARK  Name = 
REMARK  12 active torsions:
REMARK  status: ('A' for Active; 'I' for Inactive)
REMARK    1  A    between atoms: C_1  and  C_2
REMARK    2  A    between atoms: C_5  and  C_6
REMARK    3  A    between atoms: C_6  and  S_7
REMARK    4  A    between atoms: S_7  and  C_10
REMARK    5  A    between atoms: C_10  and  C_11
REMARK    6  A    between atoms: C_14  and  C_15
REMARK    7  A    between atoms: N_17  and  C_18
REMARK    8  A    between atoms: C_18  and  C_19
REMARK    9  A    between atoms: C_19  and  C_20
REMARK   10  A    between atoms: C_20  and  N_21
REMARK   11  A    between atoms: C_23  and  C_24
REMARK   12  A    between atoms: C_26  and  C_27
REMARK                            x       y       z     vdW  Elec       q    Type
REMARK                         _______ _______ _______ _____ _____    ______ ____
ROOT
ATOM      1  C   UNL     1       2.013   4.074  19.176  0.00  0.00    +0.000 A 
ATOM      2  C   UNL     1       1.643   3.861  20.487  0.00  0.00    +0.000 A 
ATOM      3  C   UNL     1       1.533   5.137  21.085  0.00  0.00    +0.000 A 
ATOM      4  C   UNL     1       1.833   6.065  20.107  0.00  0.00    +0.000 A 
ATOM      5  O   UNL     1       2.127   5.414  18.934  0.00  0.00    +0.000 OA
ENDROOT
BRANCH   4   6
ATOM      6  C   UNL     1       1.870   7.513  20.170  0.00  0.00    +0.000 C 
ATOM      7  O   UNL     1       2.142   8.222  19.204  0.00  0.00    +0.000 OA
ATOM      8  N   UNL     1       1.566   8.035  21.407  0.00  0.00    +0.000 N 
ATOM      9  H   UNL     1       1.317   7.392  22.150  0.00  0.00    +0.000 HD
BRANCH   8  10
ATOM     10  C   UNL     1       1.470   9.458  21.652  0.00  0.00    +0.000 C 
BRANCH  10  11
ATOM     11  C   UNL     1       0.025   9.960  21.617  0.00  0.00    +0.000 C 
BRANCH  11  12
ATOM     12  C   UNL     1      -0.115  11.414  21.117  0.00  0.00    +0.000 C 
BRANCH  12  13
ATOM     13  N   UNL     1      -0.303  12.377  22.208  0.00  0.00    +0.000 NA
ATOM     14  C   UNL     1      -0.349  13.776  21.771  0.00  0.00    +0.000 C 
ATOM     15  C   UNL     1      -1.709  14.203  21.204  0.00  0.00    +0.000 C 
ATOM     16  C   UNL     1      -1.655  15.646  20.711  0.00  0.00    +0.000 C 
ATOM     17  C   UNL     1      -2.768  14.025  22.291  0.00  0.00    +0.000 C 
ATOM     18  C   UNL     1      -2.805  12.561  22.747  0.00  0.00    +0.000 C 
ATOM     19  C   UNL     1      -3.770  12.423  23.929  0.00  0.00    +0.000 C 
ATOM     20  C   UNL     1      -1.401  12.050  23.131  0.00  0.00    +0.000 C 
ENDBRANCH  12  13
ENDBRANCH  11  12
ENDBRANCH  10  11
ENDBRANCH   8  10
ENDBRANCH   4   6
BRANCH   1  21
ATOM     21  C   UNL     1       2.232   3.164  18.030  0.00  0.00    +0.000 C 
BRANCH  21  22
ATOM     22  S   UNL     1       3.939   2.654  17.926  0.00  0.00    +0.000 S 
ATOM     23  O   UNL     1       3.910   1.219  17.711  0.00  0.00    +0.000 OA
ATOM     24  O   UNL     1       4.649   3.206  19.072  0.00  0.00    +0.000 OA
BRANCH  22  25
ATOM     25  C   UNL     1       4.535   3.441  16.429  0.00  0.00    +0.000 C 
BRANCH  25  30
ATOM     26  C   UNL     1       7.771   8.140  17.651  0.00  0.00    +0.000 C 
ATOM     27  C   UNL     1       6.947   6.923  17.356  0.00  0.00    +0.000 A 
ATOM     28  C   UNL     1       7.513   5.644  17.364  0.00  0.00    +0.000 A 
ATOM     29  C   UNL     1       6.732   4.520  17.077  0.00  0.00    +0.000 A 
ATOM     30  C   UNL     1       5.370   4.651  16.772  0.00  0.00    +0.000 A 
ATOM     31  C   UNL     1       4.802   5.931  16.782  0.00  0.00    +0.000 A 
ATOM     32  C   UNL     1       5.583   7.055  17.067  0.00  0.00    +0.000 A 
ENDBRANCH  25  30
ENDBRANCH  22  25
ENDBRANCH  21  22
ENDBRANCH   1  21
TORSDOF 9
ENDMDL
