MODEL 1
REMARK VINA RESULT:      -6.8      0.000      0.000
REMARK  Name = 
REMARK  9 active torsions:
REMARK  status: ('A' for Active; 'I' for Inactive)
REMARK    1  A    between atoms: C_1  and  O_2
REMARK    2  A    between atoms: O_2  and  C_3
REMARK    3  A    between atoms: C_13  and  O_14
REMARK    4  A    between atoms: O_14  and  C_15
REMARK    5  A    between atoms: C_20  and  O_21
REMARK    6  A    between atoms: O_21  and  C_22
REMARK    7  A    between atoms: C_24  and  S_25
REMARK    8  A    between atoms: S_25  and  C_26
REMARK    9  A    between atoms: C_26  and  C_27
REMARK                            x       y       z     vdW  Elec       q    Type
REMARK                         _______ _______ _______ _____ _____    ______ ____
ROOT
ATOM      1  C   UNL     1      -6.032  12.392  18.081  0.00  0.00    +0.000 A 
ATOM      2  C   UNL     1      -5.188  11.883  17.100  0.00  0.00    +0.000 A 
ATOM      3  C   UNL     1      -3.864  11.566  17.402  0.00  0.00    +0.000 A 
ATOM      4  C   UNL     1      -3.040  10.941  16.364  0.00  0.00    +0.000 A 
ATOM      5  O   UNL     1      -3.463  10.842  15.215  0.00  0.00    +0.000 OA
ATOM      6  O   UNL     1      -1.854  10.406  16.745  0.00  0.00    +0.000 OA
ATOM      7  N   UNL     1      -1.287  10.718  17.996  0.00  0.00    +0.000 NA
ATOM      8  C   UNL     1      -1.976  11.378  18.877  0.00  0.00    +0.000 A 
ATOM      9  C   UNL     1      -3.357  11.808  18.667  0.00  0.00    +0.000 A 
ATOM     10  C   UNL     1      -4.135  12.392  19.694  0.00  0.00    +0.000 A 
ATOM     11  C   UNL     1      -5.516  12.652  19.374  0.00  0.00    +0.000 A 
ATOM     12  C   UNL     1      -3.508  12.595  21.048  0.00  0.00    +0.000 A 
ATOM     13  C   UNL     1      -4.148  13.256  22.115  0.00  0.00    +0.000 A 
ATOM     14  C   UNL     1      -3.618  13.319  23.401  0.00  0.00    +0.000 A 
ATOM     15  C   UNL     1      -2.429  12.677  23.686  0.00  0.00    +0.000 A 
ATOM     16  C   UNL     1      -1.740  12.025  22.669  0.00  0.00    +0.000 A 
ATOM     17  C   UNL     1      -2.216  12.092  21.329  0.00  0.00    +0.000 A 
ATOM     18  C   UNL     1      -1.275  11.740  20.186  0.00  0.00    +0.000 C 
ENDROOT
BRANCH   1  20
ATOM     19  C   UNL     1      -7.632  13.924  17.188  0.00  0.00    +0.000 C 
ATOM     20  O   UNL     1      -7.345  12.675  17.813  0.00  0.00    +0.000 OA
ENDBRANCH   1  20
BRANCH  11  21
ATOM     21  O   UNL     1      -6.279  13.106  20.418  0.00  0.00    +0.000 OA
ATOM     22  C   UNL     1      -7.291  12.333  21.039  0.00  0.00    +0.000 C 
ENDBRANCH  11  21
BRANCH  16  23
ATOM     23  O   UNL     1      -0.545  11.386  22.873  0.00  0.00    +0.000 OA
ATOM     24  C   UNL     1      -0.565  10.000  23.202  0.00  0.00    +0.000 C 
ENDBRANCH  16  23
BRANCH  18  25
ATOM     25  S   UNL     1      -0.154  13.198  19.745  0.00  0.00    +0.000 S 
BRANCH  25  26
ATOM     26  C   UNL     1       1.442  12.340  19.598  0.00  0.00    +0.000 C 
BRANCH  26  27
ATOM     27  C   UNL     1       2.339  12.776  18.456  0.00  0.00    +0.000 C 
ATOM     28  N   UNL     1       2.623  11.886  17.474  0.00  0.00    +0.000 N 
ATOM     29  O   UNL     1       2.802  13.915  18.399  0.00  0.00    +0.000 OA
ATOM     30  H   UNL     1       2.214  10.956  17.476  0.00  0.00    +0.000 HD
ATOM     31  H   UNL     1       3.181  12.196  16.690  0.00  0.00    +0.000 HD
ENDBRANCH  26  27
ENDBRANCH  25  26
ENDBRANCH  18  25
TORSDOF 6
ENDMDL
MODEL 2
REMARK VINA RESULT:      -6.4      1.097      1.113
REMARK  Name = 
REMARK  9 active torsions:
REMARK  status: ('A' for Active; 'I' for Inactive)
REMARK    1  A    between atoms: C_1  and  O_2
REMARK    2  A    between atoms: O_2  and  C_3
REMARK    3  A    between atoms: C_13  and  O_14
REMARK    4  A    between atoms: O_14  and  C_15
REMARK    5  A    between atoms: C_20  and  O_21
REMARK    6  A    between atoms: O_21  and  C_22
REMARK    7  A    between atoms: C_24  and  S_25
REMARK    8  A    between atoms: S_25  and  C_26
REMARK    9  A    between atoms: C_26  and  C_27
REMARK                            x       y       z     vdW  Elec       q    Type
REMARK                         _______ _______ _______ _____ _____    ______ ____
ROOT
ATOM      1  C   UNL     1      -6.060  12.145  18.399  0.00  0.00    +0.000 A 
ATOM      2  C   UNL     1      -5.439  11.581  17.290  0.00  0.00    +0.000 A 
ATOM      3  C   UNL     1      -4.074  11.301  17.311  0.00  0.00    +0.000 A 
ATOM      4  C   UNL     1      -3.482  10.617  16.157  0.00  0.00    +0.000 A 
ATOM      5  O   UNL     1      -4.145  10.436  15.139  0.00  0.00    +0.000 OA
ATOM      6  O   UNL     1      -2.228  10.123  16.300  0.00  0.00    +0.000 OA
ATOM      7  N   UNL     1      -1.408  10.525  17.372  0.00  0.00    +0.000 NA
ATOM      8  C   UNL     1      -1.903  11.235  18.340  0.00  0.00    +0.000 A 
ATOM      9  C   UNL     1      -3.307  11.633  18.414  0.00  0.00    +0.000 A 
ATOM     10  C   UNL     1      -3.856  12.276  19.549  0.00  0.00    +0.000 A 
ATOM     11  C   UNL     1      -5.279  12.498  19.527  0.00  0.00    +0.000 A 
ATOM     12  C   UNL     1      -2.951  12.577  20.715  0.00  0.00    +0.000 A 
ATOM     13  C   UNL     1      -3.359  13.301  21.853  0.00  0.00    +0.000 A 
ATOM     14  C   UNL     1      -2.560  13.456  22.984  0.00  0.00    +0.000 A 
ATOM     15  C   UNL     1      -1.321  12.850  23.038  0.00  0.00    +0.000 A 
ATOM     16  C   UNL     1      -0.855  12.139  21.937  0.00  0.00    +0.000 A 
ATOM     17  C   UNL     1      -1.616  12.110  20.734  0.00  0.00    +0.000 A 
ATOM     18  C   UNL     1      -0.941  11.693  19.436  0.00  0.00    +0.000 C 
ENDROOT
BRANCH   1  20
ATOM     19  C   UNL     1      -7.849  13.635  17.868  0.00  0.00    +0.000 C 
ATOM     20  O   UNL     1      -7.407  12.394  18.411  0.00  0.00    +0.000 OA
ENDBRANCH   1  20
BRANCH  11  21
ATOM     21  O   UNL     1      -5.806  13.011  20.683  0.00  0.00    +0.000 OA
ATOM     22  C   UNL     1      -6.706  12.300  21.514  0.00  0.00    +0.000 C 
ENDBRANCH  11  21
BRANCH  16  23
ATOM     23  O   UNL     1       0.372  11.529  21.911  0.00  0.00    +0.000 OA
ATOM     24  C   UNL     1       0.444  10.138  22.209  0.00  0.00    +0.000 C 
ENDBRANCH  16  23
BRANCH  18  25
ATOM     25  S   UNL     1       0.016  13.131  18.666  0.00  0.00    +0.000 S 
BRANCH  25  26
ATOM     26  C   UNL     1       1.721  12.550  18.917  0.00  0.00    +0.000 C 
BRANCH  26  27
ATOM     27  C   UNL     1       2.647  13.484  19.672  0.00  0.00    +0.000 C 
ATOM     28  N   UNL     1       2.484  13.621  21.011  0.00  0.00    +0.000 N 
ATOM     29  O   UNL     1       3.539  14.108  19.099  0.00  0.00    +0.000 OA
ATOM     30  H   UNL     1       1.784  13.080  21.511  0.00  0.00    +0.000 HD
ATOM     31  H   UNL     1       3.135  14.207  21.517  0.00  0.00    +0.000 HD
ENDBRANCH  26  27
ENDBRANCH  25  26
ENDBRANCH  18  25
TORSDOF 6
ENDMDL
MODEL 3
REMARK VINA RESULT:      -6.3      1.930      3.231
REMARK  Name = 
REMARK  9 active torsions:
REMARK  status: ('A' for Active; 'I' for Inactive)
REMARK    1  A    between atoms: C_1  and  O_2
REMARK    2  A    between atoms: O_2  and  C_3
REMARK    3  A    between atoms: C_13  and  O_14
REMARK    4  A    between atoms: O_14  and  C_15
REMARK    5  A    between atoms: C_20  and  O_21
REMARK    6  A    between atoms: O_21  and  C_22
REMARK    7  A    between atoms: C_24  and  S_25
REMARK    8  A    between atoms: S_25  and  C_26
REMARK    9  A    between atoms: C_26  and  C_27
REMARK                            x       y       z     vdW  Elec       q    Type
REMARK                         _______ _______ _______ _____ _____    ______ ____
ROOT
ATOM      1  C   UNL     1      -2.692  10.449  17.203  0.00  0.00    +0.000 A 
ATOM      2  C   UNL     1      -1.397   9.957  17.327  0.00  0.00    +0.000 A 
ATOM      3  C   UNL     1      -0.610  10.309  18.422  0.00  0.00    +0.000 A 
ATOM      4  C   UNL     1       0.711   9.689  18.563  0.00  0.00    +0.000 A 
ATOM      5  O   UNL     1       1.168   8.996  17.657  0.00  0.00    +0.000 OA
ATOM      6  O   UNL     1       1.348   9.837  19.750  0.00  0.00    +0.000 OA
ATOM      7  N   UNL     1       0.924  10.803  20.684  0.00  0.00    +0.000 NA
ATOM      8  C   UNL     1      -0.191  11.442  20.500  0.00  0.00    +0.000 A 
ATOM      9  C   UNL     1      -1.085  11.199  19.370  0.00  0.00    +0.000 A 
ATOM     10  C   UNL     1      -2.363  11.797  19.270  0.00  0.00    +0.000 A 
ATOM     11  C   UNL     1      -3.180  11.369  18.162  0.00  0.00    +0.000 A 
ATOM     12  C   UNL     1      -2.808  12.735  20.361  0.00  0.00    +0.000 A 
ATOM     13  C   UNL     1      -4.012  13.466  20.320  0.00  0.00    +0.000 A 
ATOM     14  C   UNL     1      -4.481  14.223  21.391  0.00  0.00    +0.000 A 
ATOM     15  C   UNL     1      -3.775  14.245  22.577  0.00  0.00    +0.000 A 
ATOM     16  C   UNL     1      -2.568  13.560  22.672  0.00  0.00    +0.000 A 
ATOM     17  C   UNL     1      -2.026  12.911  21.526  0.00  0.00    +0.000 A 
ATOM     18  C   UNL     1      -0.554  12.524  21.517  0.00  0.00    +0.000 C 
ENDROOT
BRANCH   1  20
ATOM     19  C   UNL     1      -2.999  10.324  14.838  0.00  0.00    +0.000 C 
ATOM     20  O   UNL     1      -3.493  10.086  16.153  0.00  0.00    +0.000 OA
ENDBRANCH   1  20
BRANCH  11  21
ATOM     21  O   UNL     1      -4.455  11.870  18.152  0.00  0.00    +0.000 OA
ATOM     22  C   UNL     1      -5.610  11.070  18.334  0.00  0.00    +0.000 C 
ENDBRANCH  11  21
BRANCH  16  23
ATOM     23  O   UNL     1      -1.803  13.555  23.809  0.00  0.00    +0.000 OA
ATOM     24  C   UNL     1      -1.415  14.806  24.371  0.00  0.00    +0.000 C 
ENDBRANCH  16  23
BRANCH  18  25
ATOM     25  S   UNL     1       0.542  13.997  21.066  0.00  0.00    +0.000 S 
BRANCH  25  26
ATOM     26  C   UNL     1       0.665  13.764  19.267  0.00  0.00    +0.000 C 
BRANCH  26  27
ATOM     27  C   UNL     1       2.061  13.577  18.705  0.00  0.00    +0.000 C 
ATOM     28  N   UNL     1       2.222  12.805  17.602  0.00  0.00    +0.000 N 
ATOM     29  O   UNL     1       3.040  14.114  19.222  0.00  0.00    +0.000 OA
ATOM     30  H   UNL     1       1.421  12.391  17.132  0.00  0.00    +0.000 HD
ATOM     31  H   UNL     1       3.147  12.724  17.203  0.00  0.00    +0.000 HD
ENDBRANCH  26  27
ENDBRANCH  25  26
ENDBRANCH  18  25
TORSDOF 6
ENDMDL
MODEL 4
REMARK VINA RESULT:      -6.3      1.563      1.685
REMARK  Name = 
REMARK  9 active torsions:
REMARK  status: ('A' for Active; 'I' for Inactive)
REMARK    1  A    between atoms: C_1  and  O_2
REMARK    2  A    between atoms: O_2  and  C_3
REMARK    3  A    between atoms: C_13  and  O_14
REMARK    4  A    between atoms: O_14  and  C_15
REMARK    5  A    between atoms: C_20  and  O_21
REMARK    6  A    between atoms: O_21  and  C_22
REMARK    7  A    between atoms: C_24  and  S_25
REMARK    8  A    between atoms: S_25  and  C_26
REMARK    9  A    between atoms: C_26  and  C_27
REMARK                            x       y       z     vdW  Elec       q    Type
REMARK                         _______ _______ _______ _____ _____    ______ ____
ROOT
ATOM      1  C   UNL     1      -5.600  12.271  17.783  0.00  0.00    +0.000 A 
ATOM      2  C   UNL     1      -4.772  11.613  16.880  0.00  0.00    +0.000 A 
ATOM      3  C   UNL     1      -3.484  11.231  17.251  0.00  0.00    +0.000 A 
ATOM      4  C   UNL     1      -2.683  10.454  16.301  0.00  0.00    +0.000 A 
ATOM      5  O   UNL     1      -3.083  10.280  15.153  0.00  0.00    +0.000 OA
ATOM      6  O   UNL     1      -1.551   9.872  16.768  0.00  0.00    +0.000 OA
ATOM      7  N   UNL     1      -0.994  10.257  18.003  0.00  0.00    +0.000 NA
ATOM      8  C   UNL     1      -1.653  11.045  18.797  0.00  0.00    +0.000 A 
ATOM      9  C   UNL     1      -2.992  11.552  18.505  0.00  0.00    +0.000 A 
ATOM     10  C   UNL     1      -3.751  12.284  19.449  0.00  0.00    +0.000 A 
ATOM     11  C   UNL     1      -5.099  12.612  19.062  0.00  0.00    +0.000 A 
ATOM     12  C   UNL     1      -3.144  12.566  20.798  0.00  0.00    +0.000 A 
ATOM     13  C   UNL     1      -3.760  13.368  21.779  0.00  0.00    +0.000 A 
ATOM     14  C   UNL     1      -3.260  13.511  23.071  0.00  0.00    +0.000 A 
ATOM     15  C   UNL     1      -2.130  12.815  23.451  0.00  0.00    +0.000 A 
ATOM     16  C   UNL     1      -1.466  12.023  22.520  0.00  0.00    +0.000 A 
ATOM     17  C   UNL     1      -1.901  11.999  21.165  0.00  0.00    +0.000 A 
ATOM     18  C   UNL     1      -0.960  11.476  20.090  0.00  0.00    +0.000 C 
ENDROOT
BRANCH   1  20
ATOM     19  C   UNL     1      -7.069  13.878  16.800  0.00  0.00    +0.000 C 
ATOM     20  O   UNL     1      -6.881  12.622  17.448  0.00  0.00    +0.000 OA
ENDBRANCH   1  20
BRANCH  11  21
ATOM     21  O   UNL     1      -5.853  13.214  20.035  0.00  0.00    +0.000 OA
ATOM     22  C   UNL     1      -6.951  12.587  20.673  0.00  0.00    +0.000 C 
ENDBRANCH  11  21
BRANCH  16  23
ATOM     23  O   UNL     1      -0.327  11.321  22.820  0.00  0.00    +0.000 OA
ATOM     24  C   UNL     1      -0.454   9.952  23.194  0.00  0.00    +0.000 C 
ENDBRANCH  16  23
BRANCH  18  25
ATOM     25  S   UNL     1       0.277  12.801  19.554  0.00  0.00    +0.000 S 
BRANCH  25  26
ATOM     26  C   UNL     1      -0.513  14.279  20.259  0.00  0.00    +0.000 C 
BRANCH  26  27
ATOM     27  C   UNL     1      -0.547  15.511  19.376  0.00  0.00    +0.000 C 
ATOM     28  N   UNL     1      -1.620  16.337  19.450  0.00  0.00    +0.000 N 
ATOM     29  O   UNL     1       0.376  15.778  18.608  0.00  0.00    +0.000 OA
ATOM     30  H   UNL     1      -2.371  16.160  20.111  0.00  0.00    +0.000 HD
ATOM     31  H   UNL     1      -1.615  17.182  18.896  0.00  0.00    +0.000 HD
ENDBRANCH  26  27
ENDBRANCH  25  26
ENDBRANCH  18  25
TORSDOF 6
ENDMDL
MODEL 5
REMARK VINA RESULT:      -6.1      2.499      4.222
REMARK  Name = 
REMARK  9 active torsions:
REMARK  status: ('A' for Active; 'I' for Inactive)
REMARK    1  A    between atoms: C_1  and  O_2
REMARK    2  A    between atoms: O_2  and  C_3
REMARK    3  A    between atoms: C_13  and  O_14
REMARK    4  A    between atoms: O_14  and  C_15
REMARK    5  A    between atoms: C_20  and  O_21
REMARK    6  A    between atoms: O_21  and  C_22
REMARK    7  A    between atoms: C_24  and  S_25
REMARK    8  A    between atoms: S_25  and  C_26
REMARK    9  A    between atoms: C_26  and  C_27
REMARK                            x       y       z     vdW  Elec       q    Type
REMARK                         _______ _______ _______ _____ _____    ______ ____
ROOT
ATOM      1  C   UNL     1      -2.884  10.190  16.852  0.00  0.00    +0.000 A 
ATOM      2  C   UNL     1      -1.542   9.998  17.159  0.00  0.00    +0.000 A 
ATOM      3  C   UNL     1      -1.011  10.492  18.350  0.00  0.00    +0.000 A 
ATOM      4  C   UNL     1       0.383  10.181  18.677  0.00  0.00    +0.000 A 
ATOM      5  O   UNL     1       1.105   9.631  17.849  0.00  0.00    +0.000 OA
ATOM      6  O   UNL     1       0.801  10.440  19.941  0.00  0.00    +0.000 OA
ATOM      7  N   UNL     1       0.046  11.262  20.800  0.00  0.00    +0.000 NA
ATOM      8  C   UNL     1      -1.148  11.639  20.458  0.00  0.00    +0.000 A 
ATOM      9  C   UNL     1      -1.801  11.228  19.216  0.00  0.00    +0.000 A 
ATOM     10  C   UNL     1      -3.155  11.527  18.935  0.00  0.00    +0.000 A 
ATOM     11  C   UNL     1      -3.694  10.953  17.728  0.00  0.00    +0.000 A 
ATOM     12  C   UNL     1      -3.946  12.313  19.947  0.00  0.00    +0.000 A 
ATOM     13  C   UNL     1      -5.267  12.755  19.735  0.00  0.00    +0.000 A 
ATOM     14  C   UNL     1      -6.036  13.360  20.725  0.00  0.00    +0.000 A 
ATOM     15  C   UNL     1      -5.523  13.512  21.997  0.00  0.00    +0.000 A 
ATOM     16  C   UNL     1      -4.217  13.114  22.263  0.00  0.00    +0.000 A 
ATOM     17  C   UNL     1      -3.391  12.632  21.209  0.00  0.00    +0.000 A 
ATOM     18  C   UNL     1      -1.883  12.586  21.407  0.00  0.00    +0.000 C 
ENDROOT
BRANCH   1  20
ATOM     19  C   UNL     1      -3.052  10.290  14.472  0.00  0.00    +0.000 C 
ATOM     20  O   UNL     1      -3.431   9.681  15.704  0.00  0.00    +0.000 OA
ENDBRANCH   1  20
BRANCH  11  21
ATOM     21  O   UNL     1      -5.036  11.154  17.538  0.00  0.00    +0.000 OA
ATOM     22  C   UNL     1      -5.563  12.168  16.700  0.00  0.00    +0.000 C 
ENDBRANCH  11  21
BRANCH  16  23
ATOM     23  O   UNL     1      -3.634  13.253  23.496  0.00  0.00    +0.000 OA
ATOM     24  C   UNL     1      -4.197  12.543  24.596  0.00  0.00    +0.000 C 
ENDBRANCH  16  23
BRANCH  18  25
ATOM     25  S   UNL     1      -1.097  14.278  21.102  0.00  0.00    +0.000 S 
BRANCH  25  26
ATOM     26  C   UNL     1      -0.230  14.517  22.682  0.00  0.00    +0.000 C 
BRANCH  26  27
ATOM     27  C   UNL     1      -0.936  15.372  23.716  0.00  0.00    +0.000 C 
ATOM     28  N   UNL     1      -2.172  15.851  23.431  0.00  0.00    +0.000 N 
ATOM     29  O   UNL     1      -0.417  15.630  24.801  0.00  0.00    +0.000 OA
ATOM     30  H   UNL     1      -2.638  15.612  22.560  0.00  0.00    +0.000 HD
ATOM     31  H   UNL     1      -2.658  16.380  24.142  0.00  0.00    +0.000 HD
ENDBRANCH  26  27
ENDBRANCH  25  26
ENDBRANCH  18  25
TORSDOF 6
ENDMDL
MODEL 6
REMARK VINA RESULT:      -6.1      2.568      4.306
REMARK  Name = 
REMARK  9 active torsions:
REMARK  status: ('A' for Active; 'I' for Inactive)
REMARK    1  A    between atoms: C_1  and  O_2
REMARK    2  A    between atoms: O_2  and  C_3
REMARK    3  A    between atoms: C_13  and  O_14
REMARK    4  A    between atoms: O_14  and  C_15
REMARK    5  A    between atoms: C_20  and  O_21
REMARK    6  A    between atoms: O_21  and  C_22
REMARK    7  A    between atoms: C_24  and  S_25
REMARK    8  A    between atoms: S_25  and  C_26
REMARK    9  A    between atoms: C_26  and  C_27
REMARK                            x       y       z     vdW  Elec       q    Type
REMARK                         _______ _______ _______ _____ _____    ______ ____
ROOT
ATOM      1  C   UNL     1      -3.612  11.080  17.098  0.00  0.00    +0.000 A 
ATOM      2  C   UNL     1      -2.279  10.840  17.411  0.00  0.00    +0.000 A 
ATOM      3  C   UNL     1      -1.771  11.194  18.660  0.00  0.00    +0.000 A 
ATOM      4  C   UNL     1      -0.387  10.832  18.981  0.00  0.00    +0.000 A 
ATOM      5  O   UNL     1       0.347  10.367  18.114  0.00  0.00    +0.000 OA
ATOM      6  O   UNL     1       0.004  10.947  20.274  0.00  0.00    +0.000 OA
ATOM      7  N   UNL     1      -0.761  11.680  21.201  0.00  0.00    +0.000 NA
ATOM      8  C   UNL     1      -1.944  12.106  20.877  0.00  0.00    +0.000 A 
ATOM      9  C   UNL     1      -2.572  11.841  19.584  0.00  0.00    +0.000 A 
ATOM     10  C   UNL     1      -3.917  12.185  19.309  0.00  0.00    +0.000 A 
ATOM     11  C   UNL     1      -4.434  11.753  18.035  0.00  0.00    +0.000 A 
ATOM     12  C   UNL     1      -4.722  12.866  20.383  0.00  0.00    +0.000 A 
ATOM     13  C   UNL     1      -6.034  13.344  20.191  0.00  0.00    +0.000 A 
ATOM     14  C   UNL     1      -6.820  13.848  21.225  0.00  0.00    +0.000 A 
ATOM     15  C   UNL     1      -6.334  13.854  22.517  0.00  0.00    +0.000 A 
ATOM     16  C   UNL     1      -5.039  13.413  22.766  0.00  0.00    +0.000 A 
ATOM     17  C   UNL     1      -4.193  13.039  21.683  0.00  0.00    +0.000 A 
ATOM     18  C   UNL     1      -2.691  12.952  21.908  0.00  0.00    +0.000 C 
ENDROOT
BRANCH   1  20
ATOM     19  C   UNL     1      -3.223  10.306  14.873  0.00  0.00    +0.000 C 
ATOM     20  O   UNL     1      -4.138  10.706  15.890  0.00  0.00    +0.000 OA
ENDBRANCH   1  20
BRANCH  11  21
ATOM     21  O   UNL     1      -5.769  11.990  17.838  0.00  0.00    +0.000 OA
ATOM     22  C   UNL     1      -6.266  12.937  16.910  0.00  0.00    +0.000 C 
ENDBRANCH  11  21
BRANCH  16  23
ATOM     23  O   UNL     1      -4.483  13.410  24.019  0.00  0.00    +0.000 OA
ATOM     24  C   UNL     1      -4.718  12.286  24.862  0.00  0.00    +0.000 C 
ENDBRANCH  16  23
BRANCH  18  25
ATOM     25  S   UNL     1      -1.882  14.658  21.806  0.00  0.00    +0.000 S 
BRANCH  25  26
ATOM     26  C   UNL     1      -0.778  14.575  23.249  0.00  0.00    +0.000 C 
BRANCH  26  27
ATOM     27  C   UNL     1      -1.289  15.211  24.526  0.00  0.00    +0.000 C 
ATOM     28  N   UNL     1      -2.623  15.411  24.666  0.00  0.00    +0.000 N 
ATOM     29  O   UNL     1      -0.525  15.539  25.433  0.00  0.00    +0.000 OA
ATOM     30  H   UNL     1      -3.276  15.106  23.950  0.00  0.00    +0.000 HD
ATOM     31  H   UNL     1      -2.963  15.791  25.539  0.00  0.00    +0.000 HD
ENDBRANCH  26  27
ENDBRANCH  25  26
ENDBRANCH  18  25
TORSDOF 6
ENDMDL
MODEL 7
REMARK VINA RESULT:      -6.1      2.212      4.670
REMARK  Name = 
REMARK  9 active torsions:
REMARK  status: ('A' for Active; 'I' for Inactive)
REMARK    1  A    between atoms: C_1  and  O_2
REMARK    2  A    between atoms: O_2  and  C_3
REMARK    3  A    between atoms: C_13  and  O_14
REMARK    4  A    between atoms: O_14  and  C_15
REMARK    5  A    between atoms: C_20  and  O_21
REMARK    6  A    between atoms: O_21  and  C_22
REMARK    7  A    between atoms: C_24  and  S_25
REMARK    8  A    between atoms: S_25  and  C_26
REMARK    9  A    between atoms: C_26  and  C_27
REMARK                            x       y       z     vdW  Elec       q    Type
REMARK                         _______ _______ _______ _____ _____    ______ ____
ROOT
ATOM      1  C   UNL     1      -5.401  12.061  18.597  0.00  0.00    +0.000 A 
ATOM      2  C   UNL     1      -5.633  12.876  19.700  0.00  0.00    +0.000 A 
ATOM      3  C   UNL     1      -4.591  13.204  20.567  0.00  0.00    +0.000 A 
ATOM      4  C   UNL     1      -4.860  14.145  21.659  0.00  0.00    +0.000 A 
ATOM      5  O   UNL     1      -6.010  14.510  21.891  0.00  0.00    +0.000 OA
ATOM      6  O   UNL     1      -3.792  14.651  22.324  0.00  0.00    +0.000 OA
ATOM      7  N   UNL     1      -2.518  14.066  22.201  0.00  0.00    +0.000 NA
ATOM      8  C   UNL     1      -2.307  13.144  21.311  0.00  0.00    +0.000 A 
ATOM      9  C   UNL     1      -3.326  12.678  20.373  0.00  0.00    +0.000 A 
ATOM     10  C   UNL     1      -3.034  11.784  19.316  0.00  0.00    +0.000 A 
ATOM     11  C   UNL     1      -4.112  11.510  18.400  0.00  0.00    +0.000 A 
ATOM     12  C   UNL     1      -1.622  11.281  19.166  0.00  0.00    +0.000 A 
ATOM     13  C   UNL     1      -1.234  10.313  18.218  0.00  0.00    +0.000 A 
ATOM     14  C   UNL     1       0.093   9.955  17.994  0.00  0.00    +0.000 A 
ATOM     15  C   UNL     1       1.102  10.589  18.690  0.00  0.00    +0.000 A 
ATOM     16  C   UNL     1       0.781  11.539  19.654  0.00  0.00    +0.000 A 
ATOM     17  C   UNL     1      -0.583  11.791  19.978  0.00  0.00    +0.000 A 
ATOM     18  C   UNL     1      -0.919  12.505  21.280  0.00  0.00    +0.000 C 
ENDROOT
BRANCH   1  20
ATOM     19  C   UNL     1      -7.082  12.846  17.093  0.00  0.00    +0.000 C 
ATOM     20  O   UNL     1      -6.403  11.757  17.715  0.00  0.00    +0.000 OA
ENDBRANCH   1  20
BRANCH  11  21
ATOM     21  O   UNL     1      -3.775  10.739  17.319  0.00  0.00    +0.000 OA
ATOM     22  C   UNL     1      -3.735  11.230  15.991  0.00  0.00    +0.000 C 
ENDBRANCH  11  21
BRANCH  16  23
ATOM     23  O   UNL     1       1.728  12.193  20.398  0.00  0.00    +0.000 OA
ATOM     24  C   UNL     1       2.406  13.299  19.810  0.00  0.00    +0.000 C 
ENDBRANCH  16  23
BRANCH  18  25
ATOM     25  S   UNL     1      -0.906  11.308  22.743  0.00  0.00    +0.000 S 
BRANCH  25  26
ATOM     26  C   UNL     1      -0.369   9.786  21.906  0.00  0.00    +0.000 C 
BRANCH  26  27
ATOM     27  C   UNL     1       0.947   9.191  22.369  0.00  0.00    +0.000 C 
ATOM     28  N   UNL     1       1.571   8.290  21.571  0.00  0.00    +0.000 N 
ATOM     29  O   UNL     1       1.459   9.515  23.440  0.00  0.00    +0.000 OA
ATOM     30  H   UNL     1       1.189   8.044  20.662  0.00  0.00    +0.000 HD
ATOM     31  H   UNL     1       2.471   7.933  21.861  0.00  0.00    +0.000 HD
ENDBRANCH  26  27
ENDBRANCH  25  26
ENDBRANCH  18  25
TORSDOF 6
ENDMDL
MODEL 8
REMARK VINA RESULT:      -6.1      2.297      3.663
REMARK  Name = 
REMARK  9 active torsions:
REMARK  status: ('A' for Active; 'I' for Inactive)
REMARK    1  A    between atoms: C_1  and  O_2
REMARK    2  A    between atoms: O_2  and  C_3
REMARK    3  A    between atoms: C_13  and  O_14
REMARK    4  A    between atoms: O_14  and  C_15
REMARK    5  A    between atoms: C_20  and  O_21
REMARK    6  A    between atoms: O_21  and  C_22
REMARK    7  A    between atoms: C_24  and  S_25
REMARK    8  A    between atoms: S_25  and  C_26
REMARK    9  A    between atoms: C_26  and  C_27
REMARK                            x       y       z     vdW  Elec       q    Type
REMARK                         _______ _______ _______ _____ _____    ______ ____
ROOT
ATOM      1  C   UNL     1      -2.618  10.486  17.610  0.00  0.00    +0.000 A 
ATOM      2  C   UNL     1      -1.327  10.067  17.913  0.00  0.00    +0.000 A 
ATOM      3  C   UNL     1      -0.707  10.484  19.090  0.00  0.00    +0.000 A 
ATOM      4  C   UNL     1       0.615   9.939  19.415  0.00  0.00    +0.000 A 
ATOM      5  O   UNL     1       1.220   9.254  18.595  0.00  0.00    +0.000 OA
ATOM      6  O   UNL     1       1.083  10.145  20.671  0.00  0.00    +0.000 OA
ATOM      7  N   UNL     1       0.494  11.104  21.516  0.00  0.00    +0.000 NA
ATOM      8  C   UNL     1      -0.620  11.679  21.173  0.00  0.00    +0.000 A 
ATOM      9  C   UNL     1      -1.346  11.365  19.945  0.00  0.00    +0.000 A 
ATOM     10  C   UNL     1      -2.629  11.891  19.665  0.00  0.00    +0.000 A 
ATOM     11  C   UNL     1      -3.272  11.397  18.474  0.00  0.00    +0.000 A 
ATOM     12  C   UNL     1      -3.259  12.825  20.665  0.00  0.00    +0.000 A 
ATOM     13  C   UNL     1      -4.484  13.488  20.450  0.00  0.00    +0.000 A 
ATOM     14  C   UNL     1      -5.126  14.239  21.432  0.00  0.00    +0.000 A 
ATOM     15  C   UNL     1      -4.582  14.323  22.698  0.00  0.00    +0.000 A 
ATOM     16  C   UNL     1      -3.364  13.707  22.965  0.00  0.00    +0.000 A 
ATOM     17  C   UNL     1      -2.645  13.066  21.916  0.00  0.00    +0.000 A 
ATOM     18  C   UNL     1      -1.167  12.758  22.106  0.00  0.00    +0.000 C 
ENDROOT
BRANCH   1  20
ATOM     19  C   UNL     1      -2.977  10.756  15.264  0.00  0.00    +0.000 C 
ATOM     20  O   UNL     1      -3.256  10.059  16.476  0.00  0.00    +0.000 OA
ENDBRANCH   1  20
BRANCH  11  21
ATOM     21  O   UNL     1      -4.559  11.827  18.287  0.00  0.00    +0.000 OA
ATOM     22  C   UNL     1      -5.686  10.970  18.344  0.00  0.00    +0.000 C 
ENDBRANCH  11  21
BRANCH  16  23
ATOM     23  O   UNL     1      -2.754  13.766  24.190  0.00  0.00    +0.000 OA
ATOM     24  C   UNL     1      -3.032  14.880  25.034  0.00  0.00    +0.000 C 
ENDBRANCH  16  23
BRANCH  18  25
ATOM     25  S   UNL     1      -0.099  14.280  21.760  0.00  0.00    +0.000 S 
BRANCH  25  26
ATOM     26  C   UNL     1      -1.072  15.059  20.437  0.00  0.00    +0.000 C 
BRANCH  26  27
ATOM     27  C   UNL     1      -0.387  15.202  19.092  0.00  0.00    +0.000 C 
ATOM     28  N   UNL     1       0.261  14.130  18.574  0.00  0.00    +0.000 N 
ATOM     29  O   UNL     1      -0.417  16.260  18.463  0.00  0.00    +0.000 OA
ATOM     30  H   UNL     1       0.258  13.234  19.054  0.00  0.00    +0.000 HD
ATOM     31  H   UNL     1       0.674  14.216  17.655  0.00  0.00    +0.000 HD
ENDBRANCH  26  27
ENDBRANCH  25  26
ENDBRANCH  18  25
TORSDOF 6
ENDMDL
MODEL 9
REMARK VINA RESULT:      -6.0      2.524      5.917
REMARK  Name = 
REMARK  9 active torsions:
REMARK  status: ('A' for Active; 'I' for Inactive)
REMARK    1  A    between atoms: C_1  and  O_2
REMARK    2  A    between atoms: O_2  and  C_3
REMARK    3  A    between atoms: C_13  and  O_14
REMARK    4  A    between atoms: O_14  and  C_15
REMARK    5  A    between atoms: C_20  and  O_21
REMARK    6  A    between atoms: O_21  and  C_22
REMARK    7  A    between atoms: C_24  and  S_25
REMARK    8  A    between atoms: S_25  and  C_26
REMARK    9  A    between atoms: C_26  and  C_27
REMARK                            x       y       z     vdW  Elec       q    Type
REMARK                         _______ _______ _______ _____ _____    ______ ____
ROOT
ATOM      1  C   UNL     1      -0.178  10.253  18.771  0.00  0.00    +0.000 A 
ATOM      2  C   UNL     1      -0.937   9.964  17.641  0.00  0.00    +0.000 A 
ATOM      3  C   UNL     1      -2.203  10.524  17.479  0.00  0.00    +0.000 A 
ATOM      4  C   UNL     1      -2.926  10.271  16.229  0.00  0.00    +0.000 A 
ATOM      5  O   UNL     1      -2.487   9.462  15.415  0.00  0.00    +0.000 OA
ATOM      6  O   UNL     1      -4.025  11.024  15.979  0.00  0.00    +0.000 OA
ATOM      7  N   UNL     1      -4.635  11.777  17.000  0.00  0.00    +0.000 NA
ATOM      8  C   UNL     1      -4.052  11.905  18.153  0.00  0.00    +0.000 A 
ATOM      9  C   UNL     1      -2.745  11.330  18.466  0.00  0.00    +0.000 A 
ATOM     10  C   UNL     1      -2.062  11.607  19.674  0.00  0.00    +0.000 A 
ATOM     11  C   UNL     1      -0.731  11.066  19.789  0.00  0.00    +0.000 A 
ATOM     12  C   UNL     1      -2.718  12.514  20.681  0.00  0.00    +0.000 A 
ATOM     13  C   UNL     1      -2.183  12.781  21.957  0.00  0.00    +0.000 A 
ATOM     14  C   UNL     1      -2.722  13.725  22.827  0.00  0.00    +0.000 A 
ATOM     15  C   UNL     1      -3.808  14.480  22.434  0.00  0.00    +0.000 A 
ATOM     16  C   UNL     1      -4.394  14.248  21.194  0.00  0.00    +0.000 A 
ATOM     17  C   UNL     1      -3.926  13.182  20.374  0.00  0.00    +0.000 A 
ATOM     18  C   UNL     1      -4.803  12.678  19.237  0.00  0.00    +0.000 C 
ENDROOT
BRANCH   1  20
ATOM     19  C   UNL     1       1.773   9.321  17.756  0.00  0.00    +0.000 C 
ATOM     20  O   UNL     1       1.082   9.742  18.930  0.00  0.00    +0.000 OA
ENDBRANCH   1  20
BRANCH  11  21
ATOM     21  O   UNL     1      -0.045  11.446  20.912  0.00  0.00    +0.000 OA
ATOM     22  C   UNL     1       1.047  12.349  20.892  0.00  0.00    +0.000 C 
ENDBRANCH  11  21
BRANCH  16  23
ATOM     23  O   UNL     1      -5.486  14.943  20.746  0.00  0.00    +0.000 OA
ATOM     24  C   UNL     1      -5.381  16.358  20.609  0.00  0.00    +0.000 C 
ENDBRANCH  16  23
BRANCH  18  25
ATOM     25  S   UNL     1      -6.118  11.473  19.865  0.00  0.00    +0.000 S 
BRANCH  25  26
ATOM     26  C   UNL     1      -7.624  12.414  19.477  0.00  0.00    +0.000 C 
BRANCH  26  27
ATOM     27  C   UNL     1      -7.569  13.299  18.247  0.00  0.00    +0.000 C 
ATOM     28  N   UNL     1      -7.386  12.719  17.035  0.00  0.00    +0.000 N 
ATOM     29  O   UNL     1      -7.694  14.520  18.326  0.00  0.00    +0.000 OA
ATOM     30  H   UNL     1      -7.326  11.709  16.942  0.00  0.00    +0.000 HD
ATOM     31  H   UNL     1      -7.398  13.308  16.214  0.00  0.00    +0.000 HD
ENDBRANCH  26  27
ENDBRANCH  25  26
ENDBRANCH  18  25
TORSDOF 6
ENDMDL
