MODEL 1
REMARK VINA RESULT:      -5.6      0.000      0.000
REMARK  Name = 
REMARK  2 active torsions:
REMARK  status: ('A' for Active; 'I' for Inactive)
REMARK    1  A    between atoms: N_1  and  S_2
REMARK    2  A    between atoms: S_2  and  C_5
REMARK                            x       y       z     vdW  Elec       q    Type
REMARK                         _______ _______ _______ _____ _____    ______ ____
ROOT
ATOM      1  C   UNL     1       5.367   5.132  16.801  0.00  0.00    +0.000 A 
ATOM      2  C   UNL     1       4.718   3.894  16.756  0.00  0.00    +0.000 A 
ATOM      3  C   UNL     1       3.421   3.784  17.260  0.00  0.00    +0.000 A 
ATOM      4  C   UNL     1       2.795   4.904  17.802  0.00  0.00    +0.000 A 
ATOM      5  F   UNL     1       1.546   4.798  18.272  0.00  0.00    +0.000 F 
ATOM      6  C   UNL     1       3.444   6.134  17.858  0.00  0.00    +0.000 A 
ATOM      7  C   UNL     1       4.741   6.254  17.356  0.00  0.00    +0.000 A 
ENDROOT
BRANCH   1   8
ATOM      8  S   UNL     1       6.998   5.287  16.131  0.00  0.00    +0.000 S 
ATOM      9  O   UNL     1       6.899   5.380  14.693  0.00  0.00    +0.000 OA
ATOM     10  O   UNL     1       7.881   4.360  16.798  0.00  0.00    +0.000 OA
BRANCH   8  11
ATOM     11  N   UNL     1       7.456   6.806  16.677  0.00  0.00    +0.000 NA
ATOM     12  H   UNL     1       8.352   7.063  16.263  0.00  0.00    +0.000 HD
ATOM     13  H   UNL     1       7.455   6.826  17.697  0.00  0.00    +0.000 HD
ENDBRANCH   8  11
ENDBRANCH   1   8
TORSDOF 2
ENDMDL
MODEL 2
REMARK VINA RESULT:      -5.6      0.043      1.466
REMARK  Name = 
REMARK  2 active torsions:
REMARK  status: ('A' for Active; 'I' for Inactive)
REMARK    1  A    between atoms: N_1  and  S_2
REMARK    2  A    between atoms: S_2  and  C_5
REMARK                            x       y       z     vdW  Elec       q    Type
REMARK                         _______ _______ _______ _____ _____    ______ ____
ROOT
ATOM      1  C   UNL     1       5.381   5.137  16.773  0.00  0.00    +0.000 A 
ATOM      2  C   UNL     1       4.760   6.258  17.335  0.00  0.00    +0.000 A 
ATOM      3  C   UNL     1       3.472   6.136  17.856  0.00  0.00    +0.000 A 
ATOM      4  C   UNL     1       2.822   4.905  17.806  0.00  0.00    +0.000 A 
ATOM      5  F   UNL     1       1.591   4.788  18.320  0.00  0.00    +0.000 F 
ATOM      6  C   UNL     1       3.434   3.791  17.239  0.00  0.00    +0.000 A 
ATOM      7  C   UNL     1       4.723   3.903  16.715  0.00  0.00    +0.000 A 
ENDROOT
BRANCH   1   8
ATOM      8  S   UNL     1       7.029   5.276  16.143  0.00  0.00    +0.000 S 
ATOM      9  O   UNL     1       6.967   5.349  14.702  0.00  0.00    +0.000 OA
ATOM     10  O   UNL     1       7.890   4.355  16.846  0.00  0.00    +0.000 OA
BRANCH   8  11
ATOM     11  N   UNL     1       7.480   6.801  16.679  0.00  0.00    +0.000 NA
ATOM     12  H   UNL     1       7.035   6.994  17.578  0.00  0.00    +0.000 HD
ATOM     13  H   UNL     1       7.275   7.498  15.963  0.00  0.00    +0.000 HD
ENDBRANCH   8  11
ENDBRANCH   1   8
TORSDOF 2
ENDMDL
MODEL 3
REMARK VINA RESULT:      -5.6      1.917      2.306
REMARK  Name = 
REMARK  2 active torsions:
REMARK  status: ('A' for Active; 'I' for Inactive)
REMARK    1  A    between atoms: N_1  and  S_2
REMARK    2  A    between atoms: S_2  and  C_5
REMARK                            x       y       z     vdW  Elec       q    Type
REMARK                         _______ _______ _______ _____ _____    ______ ____
ROOT
ATOM      1  C   UNL     1       5.552   5.039  18.236  0.00  0.00    +0.000 A 
ATOM      2  C   UNL     1       5.227   4.251  17.128  0.00  0.00    +0.000 A 
ATOM      3  C   UNL     1       3.889   3.951  16.871  0.00  0.00    +0.000 A 
ATOM      4  C   UNL     1       2.898   4.436  17.721  0.00  0.00    +0.000 A 
ATOM      5  F   UNL     1       1.614   4.158  17.464  0.00  0.00    +0.000 F 
ATOM      6  C   UNL     1       3.220   5.211  18.831  0.00  0.00    +0.000 A 
ATOM      7  C   UNL     1       4.556   5.517  19.096  0.00  0.00    +0.000 A 
ENDROOT
BRANCH   1   8
ATOM      8  S   UNL     1       7.244   5.453  18.548  0.00  0.00    +0.000 S 
ATOM      9  O   UNL     1       7.506   5.294  19.960  0.00  0.00    +0.000 OA
ATOM     10  O   UNL     1       7.587   6.650  17.817  0.00  0.00    +0.000 OA
BRANCH   8  11
ATOM     11  N   UNL     1       8.056   4.209  17.768  0.00  0.00    +0.000 NA
ATOM     12  H   UNL     1       9.039   4.217  18.043  0.00  0.00    +0.000 HD
ATOM     13  H   UNL     1       7.912   4.274  16.761  0.00  0.00    +0.000 HD
ENDBRANCH   8  11
ENDBRANCH   1   8
TORSDOF 2
ENDMDL
MODEL 4
REMARK VINA RESULT:      -5.6      1.115      1.214
REMARK  Name = 
REMARK  2 active torsions:
REMARK  status: ('A' for Active; 'I' for Inactive)
REMARK    1  A    between atoms: N_1  and  S_2
REMARK    2  A    between atoms: S_2  and  C_5
REMARK                            x       y       z     vdW  Elec       q    Type
REMARK                         _______ _______ _______ _____ _____    ______ ____
ROOT
ATOM      1  C   UNL     1       5.403   5.009  16.905  0.00  0.00    +0.000 A 
ATOM      2  C   UNL     1       4.713   3.803  16.745  0.00  0.00    +0.000 A 
ATOM      3  C   UNL     1       3.389   3.712  17.174  0.00  0.00    +0.000 A 
ATOM      4  C   UNL     1       2.775   4.818  17.757  0.00  0.00    +0.000 A 
ATOM      5  F   UNL     1       1.500   4.732  18.155  0.00  0.00    +0.000 F 
ATOM      6  C   UNL     1       3.464   6.016  17.927  0.00  0.00    +0.000 A 
ATOM      7  C   UNL     1       4.789   6.117  17.500  0.00  0.00    +0.000 A 
ENDROOT
BRANCH   1   8
ATOM      8  S   UNL     1       7.072   5.143  16.330  0.00  0.00    +0.000 S 
ATOM      9  O   UNL     1       7.519   6.503  16.524  0.00  0.00    +0.000 OA
ATOM     10  O   UNL     1       7.204   4.446  15.073  0.00  0.00    +0.000 OA
BRANCH   8  11
ATOM     11  N   UNL     1       7.901   4.204  17.447  0.00  0.00    +0.000 NA
ATOM     12  H   UNL     1       7.258   3.887  18.173  0.00  0.00    +0.000 HD
ATOM     13  H   UNL     1       8.705   4.718  17.808  0.00  0.00    +0.000 HD
ENDBRANCH   8  11
ENDBRANCH   1   8
TORSDOF 2
ENDMDL
MODEL 5
REMARK VINA RESULT:      -5.5      1.074      1.344
REMARK  Name = 
REMARK  2 active torsions:
REMARK  status: ('A' for Active; 'I' for Inactive)
REMARK    1  A    between atoms: N_1  and  S_2
REMARK    2  A    between atoms: S_2  and  C_5
REMARK                            x       y       z     vdW  Elec       q    Type
REMARK                         _______ _______ _______ _____ _____    ______ ____
ROOT
ATOM      1  C   UNL     1       5.437   5.207  16.950  0.00  0.00    +0.000 A 
ATOM      2  C   UNL     1       4.813   3.965  16.786  0.00  0.00    +0.000 A 
ATOM      3  C   UNL     1       3.489   3.807  17.194  0.00  0.00    +0.000 A 
ATOM      4  C   UNL     1       2.809   4.882  17.762  0.00  0.00    +0.000 A 
ATOM      5  F   UNL     1       1.534   4.731  18.139  0.00  0.00    +0.000 F 
ATOM      6  C   UNL     1       3.431   6.115  17.936  0.00  0.00    +0.000 A 
ATOM      7  C   UNL     1       4.756   6.283  17.531  0.00  0.00    +0.000 A 
ENDROOT
BRANCH   1   8
ATOM      8  S   UNL     1       7.105   5.425  16.402  0.00  0.00    +0.000 S 
ATOM      9  O   UNL     1       7.899   4.320  16.887  0.00  0.00    +0.000 OA
ATOM     10  O   UNL     1       7.492   6.805  16.579  0.00  0.00    +0.000 OA
BRANCH   8  11
ATOM     11  N   UNL     1       6.957   5.215  14.743  0.00  0.00    +0.000 NA
ATOM     12  H   UNL     1       7.826   4.834  14.368  0.00  0.00    +0.000 HD
ATOM     13  H   UNL     1       6.669   6.090  14.305  0.00  0.00    +0.000 HD
ENDBRANCH   8  11
ENDBRANCH   1   8
TORSDOF 2
ENDMDL
MODEL 6
REMARK VINA RESULT:      -5.5      1.293      2.120
REMARK  Name = 
REMARK  2 active torsions:
REMARK  status: ('A' for Active; 'I' for Inactive)
REMARK    1  A    between atoms: N_1  and  S_2
REMARK    2  A    between atoms: S_2  and  C_5
REMARK                            x       y       z     vdW  Elec       q    Type
REMARK                         _______ _______ _______ _____ _____    ______ ____
ROOT
ATOM      1  C   UNL     1       5.391   5.363  17.320  0.00  0.00    +0.000 A 
ATOM      2  C   UNL     1       4.530   6.370  17.769  0.00  0.00    +0.000 A 
ATOM      3  C   UNL     1       3.181   6.076  17.970  0.00  0.00    +0.000 A 
ATOM      4  C   UNL     1       2.711   4.789  17.718  0.00  0.00    +0.000 A 
ATOM      5  F   UNL     1       1.419   4.507  17.925  0.00  0.00    +0.000 F 
ATOM      6  C   UNL     1       3.564   3.789  17.260  0.00  0.00    +0.000 A 
ATOM      7  C   UNL     1       4.915   4.073  17.057  0.00  0.00    +0.000 A 
ENDROOT
BRANCH   1   8
ATOM      8  S   UNL     1       7.110   5.719  17.098  0.00  0.00    +0.000 S 
ATOM      9  O   UNL     1       7.482   6.781  18.004  0.00  0.00    +0.000 OA
ATOM     10  O   UNL     1       7.415   5.750  15.687  0.00  0.00    +0.000 OA
BRANCH   8  11
ATOM     11  N   UNL     1       7.833   4.320  17.678  0.00  0.00    +0.000 NA
ATOM     12  H   UNL     1       8.848   4.431  17.670  0.00  0.00    +0.000 HD
ATOM     13  H   UNL     1       7.505   3.512  17.149  0.00  0.00    +0.000 HD
ENDBRANCH   8  11
ENDBRANCH   1   8
TORSDOF 2
ENDMDL
MODEL 7
REMARK VINA RESULT:      -5.5      1.079      1.985
REMARK  Name = 
REMARK  2 active torsions:
REMARK  status: ('A' for Active; 'I' for Inactive)
REMARK    1  A    between atoms: N_1  and  S_2
REMARK    2  A    between atoms: S_2  and  C_5
REMARK                            x       y       z     vdW  Elec       q    Type
REMARK                         _______ _______ _______ _____ _____    ______ ____
ROOT
ATOM      1  C   UNL     1       5.371   5.233  16.942  0.00  0.00    +0.000 A 
ATOM      2  C   UNL     1       4.639   6.284  17.505  0.00  0.00    +0.000 A 
ATOM      3  C   UNL     1       3.325   6.058  17.917  0.00  0.00    +0.000 A 
ATOM      4  C   UNL     1       2.761   4.794  17.760  0.00  0.00    +0.000 A 
ATOM      5  F   UNL     1       1.506   4.576  18.169  0.00  0.00    +0.000 F 
ATOM      6  C   UNL     1       3.485   3.750  17.190  0.00  0.00    +0.000 A 
ATOM      7  C   UNL     1       4.799   3.966  16.775  0.00  0.00    +0.000 A 
ENDROOT
BRANCH   1   8
ATOM      8  S   UNL     1       7.049   5.504  16.450  0.00  0.00    +0.000 S 
ATOM      9  O   UNL     1       7.853   4.402  16.927  0.00  0.00    +0.000 OA
ATOM     10  O   UNL     1       7.399   6.886  16.677  0.00  0.00    +0.000 OA
BRANCH   8  11
ATOM     11  N   UNL     1       6.954   5.338  14.783  0.00  0.00    +0.000 NA
ATOM     12  H   UNL     1       6.714   4.375  14.548  0.00  0.00    +0.000 HD
ATOM     13  H   UNL     1       7.819   5.662  14.350  0.00  0.00    +0.000 HD
ENDBRANCH   8  11
ENDBRANCH   1   8
TORSDOF 2
ENDMDL
MODEL 8
REMARK VINA RESULT:      -5.5      2.004      2.041
REMARK  Name = 
REMARK  2 active torsions:
REMARK  status: ('A' for Active; 'I' for Inactive)
REMARK    1  A    between atoms: N_1  and  S_2
REMARK    2  A    between atoms: S_2  and  C_5
REMARK                            x       y       z     vdW  Elec       q    Type
REMARK                         _______ _______ _______ _____ _____    ______ ____
ROOT
ATOM      1  C   UNL     1       5.719   5.324  18.361  0.00  0.00    +0.000 A 
ATOM      2  C   UNL     1       5.133   4.142  18.825  0.00  0.00    +0.000 A 
ATOM      3  C   UNL     1       3.756   3.964  18.692  0.00  0.00    +0.000 A 
ATOM      4  C   UNL     1       2.985   4.965  18.105  0.00  0.00    +0.000 A 
ATOM      5  F   UNL     1       1.666   4.785  17.966  0.00  0.00    +0.000 F 
ATOM      6  C   UNL     1       3.565   6.146  17.652  0.00  0.00    +0.000 A 
ATOM      7  C   UNL     1       4.942   6.333  17.780  0.00  0.00    +0.000 A 
ENDROOT
BRANCH   1   8
ATOM      8  S   UNL     1       7.470   5.541  18.494  0.00  0.00    +0.000 S 
ATOM      9  O   UNL     1       7.799   6.893  18.105  0.00  0.00    +0.000 OA
ATOM     10  O   UNL     1       8.140   4.384  17.949  0.00  0.00    +0.000 OA
BRANCH   8  11
ATOM     11  N   UNL     1       7.708   5.451  20.153  0.00  0.00    +0.000 NA
ATOM     12  H   UNL     1       8.268   4.626  20.374  0.00  0.00    +0.000 HD
ATOM     13  H   UNL     1       6.810   5.479  20.636  0.00  0.00    +0.000 HD
ENDBRANCH   8  11
ENDBRANCH   1   8
TORSDOF 2
ENDMDL
MODEL 9
REMARK VINA RESULT:      -5.5      1.909      2.672
REMARK  Name = 
REMARK  2 active torsions:
REMARK  status: ('A' for Active; 'I' for Inactive)
REMARK    1  A    between atoms: N_1  and  S_2
REMARK    2  A    between atoms: S_2  and  C_5
REMARK                            x       y       z     vdW  Elec       q    Type
REMARK                         _______ _______ _______ _____ _____    ______ ____
ROOT
ATOM      1  C   UNL     1       5.199   5.227  18.275  0.00  0.00    +0.000 A 
ATOM      2  C   UNL     1       4.308   6.292  18.111  0.00  0.00    +0.000 A 
ATOM      3  C   UNL     1       2.959   6.024  17.874  0.00  0.00    +0.000 A 
ATOM      4  C   UNL     1       2.521   4.704  17.800  0.00  0.00    +0.000 A 
ATOM      5  F   UNL     1       1.225   4.450  17.586  0.00  0.00    +0.000 F 
ATOM      6  C   UNL     1       3.409   3.643  17.951  0.00  0.00    +0.000 A 
ATOM      7  C   UNL     1       4.760   3.901  18.190  0.00  0.00    +0.000 A 
ENDROOT
BRANCH   1   8
ATOM      8  S   UNL     1       6.904   5.560  18.612  0.00  0.00    +0.000 S 
ATOM      9  O   UNL     1       7.141   5.374  20.025  0.00  0.00    +0.000 OA
ATOM     10  O   UNL     1       7.312   6.746  17.898  0.00  0.00    +0.000 OA
BRANCH   8  11
ATOM     11  N   UNL     1       7.669   4.287  17.829  0.00  0.00    +0.000 NA
ATOM     12  H   UNL     1       7.703   3.476  18.447  0.00  0.00    +0.000 HD
ATOM     13  H   UNL     1       8.585   4.584  17.491  0.00  0.00    +0.000 HD
ENDBRANCH   8  11
ENDBRANCH   1   8
TORSDOF 2
ENDMDL
