MODEL 1
REMARK VINA RESULT:      -7.3      0.000      0.000
REMARK  Name = 
REMARK  7 active torsions:
REMARK  status: ('A' for Active; 'I' for Inactive)
REMARK    1  A    between atoms: C_2  and  O_3
REMARK    2  A    between atoms: C_2  and  C_4
REMARK    3  A    between atoms: C_7  and  C_8
REMARK    4  A    between atoms: C_13  and  O_14
REMARK    5  A    between atoms: O_14  and  P_15
REMARK    6  A    between atoms: P_15  and  O_17
REMARK    7  A    between atoms: P_15  and  O_18
REMARK                            x       y       z     vdW  Elec       q    Type
REMARK                         _______ _______ _______ _____ _____    ______ ____
ROOT
ATOM      1  C   UNL     1       5.973   4.689  18.111  0.00  0.00    +0.000 A 
ATOM      2  C   UNL     1       5.224   5.002  19.261  0.00  0.00    +0.000 A 
ATOM      3  C   UNL     1       3.848   4.770  19.319  0.00  0.00    +0.000 A 
ATOM      4  C   UNL     1       3.185   4.211  18.225  0.00  0.00    +0.000 A 
ATOM      5  C   UNL     1       3.933   3.862  17.088  0.00  0.00    +0.000 A 
ATOM      6  C   UNL     1       5.310   4.116  17.015  0.00  0.00    +0.000 A 
ENDROOT
BRANCH   4   7
ATOM      7  C   UNL     1       1.692   3.984  18.240  0.00  0.00    +0.000 C 
ATOM      8  F   UNL     1       1.339   2.677  18.102  0.00  0.00    +0.000 F 
ATOM      9  F   UNL     1       1.125   4.403  19.405  0.00  0.00    +0.000 F 
ATOM     10  F   UNL     1       1.051   4.656  17.247  0.00  0.00    +0.000 F 
ENDBRANCH   4   7
BRANCH   1  12
ATOM     11  O   UNL     1       7.845   6.059  18.663  0.00  0.00    +0.000 OA
ATOM     12  C   UNL     1       7.433   5.011  18.193  0.00  0.00    +0.000 C 
BRANCH  12  13
ATOM     13  O   UNL     1       8.270   4.079  17.699  0.00  0.00    +0.000 OA
ATOM     14  H   UNL     1       9.017   3.873  18.285  0.00  0.00    +0.000 HD
ENDBRANCH  12  13
ENDBRANCH   1  12
BRANCH   6  15
ATOM     15  O   UNL     1       6.001   3.692  15.907  0.00  0.00    +0.000 OA
BRANCH  15  16
ATOM     16  P   UNL     1       6.341   4.626  14.637  0.00  0.00    +0.000 P 
ATOM     17  O   UNL     1       6.088   4.006  13.308  0.00  0.00    +0.000 OA
BRANCH  16  18
ATOM     18  O   UNL     1       5.432   5.918  14.872  0.00  0.00    +0.000 OA
ATOM     19  H   UNL     1       4.508   5.688  15.088  0.00  0.00    +0.000 HD
ENDBRANCH  16  18
BRANCH  16  20
ATOM     20  O   UNL     1       7.806   5.230  14.792  0.00  0.00    +0.000 OA
ATOM     21  H   UNL     1       7.858   5.836  15.557  0.00  0.00    +0.000 HD
ENDBRANCH  16  20
ENDBRANCH  15  16
ENDBRANCH   6  15
TORSDOF 7
ENDMDL
MODEL 2
REMARK VINA RESULT:      -7.2      0.121      1.019
REMARK  Name = 
REMARK  7 active torsions:
REMARK  status: ('A' for Active; 'I' for Inactive)
REMARK    1  A    between atoms: C_2  and  O_3
REMARK    2  A    between atoms: C_2  and  C_4
REMARK    3  A    between atoms: C_7  and  C_8
REMARK    4  A    between atoms: C_13  and  O_14
REMARK    5  A    between atoms: O_14  and  P_15
REMARK    6  A    between atoms: P_15  and  O_17
REMARK    7  A    between atoms: P_15  and  O_18
REMARK                            x       y       z     vdW  Elec       q    Type
REMARK                         _______ _______ _______ _____ _____    ______ ____
ROOT
ATOM      1  C   UNL     1       5.973   4.665  18.182  0.00  0.00    +0.000 A 
ATOM      2  C   UNL     1       5.226   4.909  19.350  0.00  0.00    +0.000 A 
ATOM      3  C   UNL     1       3.850   4.673  19.397  0.00  0.00    +0.000 A 
ATOM      4  C   UNL     1       3.186   4.180  18.272  0.00  0.00    +0.000 A 
ATOM      5  C   UNL     1       3.932   3.901  17.115  0.00  0.00    +0.000 A 
ATOM      6  C   UNL     1       5.308   4.159  17.054  0.00  0.00    +0.000 A 
ENDROOT
BRANCH   4   7
ATOM      7  C   UNL     1       1.693   3.951  18.277  0.00  0.00    +0.000 C 
ATOM      8  F   UNL     1       1.341   2.648  18.108  0.00  0.00    +0.000 F 
ATOM      9  F   UNL     1       1.121   4.344  19.448  0.00  0.00    +0.000 F 
ATOM     10  F   UNL     1       1.055   4.644  17.295  0.00  0.00    +0.000 F 
ENDBRANCH   4   7
BRANCH   1  12
ATOM     11  O   UNL     1       7.846   6.001  18.814  0.00  0.00    +0.000 OA
ATOM     12  C   UNL     1       7.433   4.983  18.280  0.00  0.00    +0.000 C 
BRANCH  12  13
ATOM     13  O   UNL     1       8.270   4.085  17.728  0.00  0.00    +0.000 OA
ATOM     14  H   UNL     1       8.911   3.709  18.354  0.00  0.00    +0.000 HD
ENDBRANCH  12  13
ENDBRANCH   1  12
BRANCH   6  15
ATOM     15  O   UNL     1       5.997   3.803  15.922  0.00  0.00    +0.000 OA
BRANCH  15  16
ATOM     16  P   UNL     1       6.288   4.799  14.686  0.00  0.00    +0.000 P 
ATOM     17  O   UNL     1       5.433   6.015  14.636  0.00  0.00    +0.000 OA
BRANCH  16  18
ATOM     18  O   UNL     1       7.833   5.166  14.861  0.00  0.00    +0.000 OA
ATOM     19  H   UNL     1       7.970   6.111  15.063  0.00  0.00    +0.000 HD
ENDBRANCH  16  18
BRANCH  16  20
ATOM     20  O   UNL     1       6.305   3.973  13.324  0.00  0.00    +0.000 OA
ATOM     21  H   UNL     1       6.238   4.568  12.552  0.00  0.00    +0.000 HD
ENDBRANCH  16  20
ENDBRANCH  15  16
ENDBRANCH   6  15
TORSDOF 7
ENDMDL
MODEL 3
REMARK VINA RESULT:      -7.1      0.123      1.015
REMARK  Name = 
REMARK  7 active torsions:
REMARK  status: ('A' for Active; 'I' for Inactive)
REMARK    1  A    between atoms: C_2  and  O_3
REMARK    2  A    between atoms: C_2  and  C_4
REMARK    3  A    between atoms: C_7  and  C_8
REMARK    4  A    between atoms: C_13  and  O_14
REMARK    5  A    between atoms: O_14  and  P_15
REMARK    6  A    between atoms: P_15  and  O_17
REMARK    7  A    between atoms: P_15  and  O_18
REMARK                            x       y       z     vdW  Elec       q    Type
REMARK                         _______ _______ _______ _____ _____    ______ ____
ROOT
ATOM      1  C   UNL     1       5.999   4.686  18.179  0.00  0.00    +0.000 A 
ATOM      2  C   UNL     1       5.247   4.939  19.342  0.00  0.00    +0.000 A 
ATOM      3  C   UNL     1       3.872   4.698  19.386  0.00  0.00    +0.000 A 
ATOM      4  C   UNL     1       3.213   4.192  18.265  0.00  0.00    +0.000 A 
ATOM      5  C   UNL     1       3.964   3.903  17.113  0.00  0.00    +0.000 A 
ATOM      6  C   UNL     1       5.340   4.165  17.054  0.00  0.00    +0.000 A 
ENDROOT
BRANCH   4   7
ATOM      7  C   UNL     1       1.721   3.957  18.267  0.00  0.00    +0.000 C 
ATOM      8  F   UNL     1       1.375   2.653  18.096  0.00  0.00    +0.000 F 
ATOM      9  F   UNL     1       1.146   4.346  19.439  0.00  0.00    +0.000 F 
ATOM     10  F   UNL     1       1.082   4.650  17.287  0.00  0.00    +0.000 F 
ENDBRANCH   4   7
BRANCH   1  12
ATOM     11  O   UNL     1       7.863   6.055  18.761  0.00  0.00    +0.000 OA
ATOM     12  C   UNL     1       7.457   5.010  18.278  0.00  0.00    +0.000 C 
BRANCH  12  13
ATOM     13  O   UNL     1       8.302   4.083  17.787  0.00  0.00    +0.000 OA
ATOM     14  H   UNL     1       8.251   3.978  16.823  0.00  0.00    +0.000 HD
ENDBRANCH  12  13
ENDBRANCH   1  12
BRANCH   6  15
ATOM     15  O   UNL     1       6.034   3.800  15.928  0.00  0.00    +0.000 OA
BRANCH  15  16
ATOM     16  P   UNL     1       6.380   4.800  14.711  0.00  0.00    +0.000 P 
ATOM     17  O   UNL     1       7.814   5.177  14.587  0.00  0.00    +0.000 OA
BRANCH  16  18
ATOM     18  O   UNL     1       5.859   4.012  13.423  0.00  0.00    +0.000 OA
ATOM     19  H   UNL     1       4.942   3.693  13.528  0.00  0.00    +0.000 HD
ENDBRANCH  16  18
BRANCH  16  20
ATOM     20  O   UNL     1       5.392   6.049  14.745  0.00  0.00    +0.000 OA
ATOM     21  H   UNL     1       5.162   6.290  15.664  0.00  0.00    +0.000 HD
ENDBRANCH  16  20
ENDBRANCH  15  16
ENDBRANCH   6  15
TORSDOF 7
ENDMDL
MODEL 4
REMARK VINA RESULT:      -7.0      1.891      3.416
REMARK  Name = 
REMARK  7 active torsions:
REMARK  status: ('A' for Active; 'I' for Inactive)
REMARK    1  A    between atoms: C_2  and  O_3
REMARK    2  A    between atoms: C_2  and  C_4
REMARK    3  A    between atoms: C_7  and  C_8
REMARK    4  A    between atoms: C_13  and  O_14
REMARK    5  A    between atoms: O_14  and  P_15
REMARK    6  A    between atoms: P_15  and  O_17
REMARK    7  A    between atoms: P_15  and  O_18
REMARK                            x       y       z     vdW  Elec       q    Type
REMARK                         _______ _______ _______ _____ _____    ______ ____
ROOT
ATOM      1  C   UNL     1       4.439   4.426  17.089  0.00  0.00    +0.000 A 
ATOM      2  C   UNL     1       3.233   3.703  17.166  0.00  0.00    +0.000 A 
ATOM      3  C   UNL     1       2.372   3.840  18.257  0.00  0.00    +0.000 A 
ATOM      4  C   UNL     1       2.694   4.711  19.300  0.00  0.00    +0.000 A 
ATOM      5  C   UNL     1       3.878   5.462  19.211  0.00  0.00    +0.000 A 
ATOM      6  C   UNL     1       4.758   5.311  18.131  0.00  0.00    +0.000 A 
ENDROOT
BRANCH   4   7
ATOM      7  C   UNL     1       1.804   4.852  20.511  0.00  0.00    +0.000 C 
ATOM      8  F   UNL     1       0.562   4.324  20.340  0.00  0.00    +0.000 F 
ATOM      9  F   UNL     1       2.327   4.230  21.604  0.00  0.00    +0.000 F 
ATOM     10  F   UNL     1       1.616   6.150  20.873  0.00  0.00    +0.000 F 
ENDBRANCH   4   7
BRANCH   1  12
ATOM     11  O   UNL     1       5.245   4.897  14.894  0.00  0.00    +0.000 OA
ATOM     12  C   UNL     1       5.265   4.161  15.869  0.00  0.00    +0.000 C 
BRANCH  12  13
ATOM     13  O   UNL     1       6.023   3.049  15.900  0.00  0.00    +0.000 OA
ATOM     14  H   UNL     1       6.394   2.802  15.037  0.00  0.00    +0.000 HD
ENDBRANCH  12  13
ENDBRANCH   1  12
BRANCH   6  15
ATOM     15  O   UNL     1       5.865   6.120  18.063  0.00  0.00    +0.000 OA
BRANCH  15  16
ATOM     16  P   UNL     1       7.340   5.682  18.545  0.00  0.00    +0.000 P 
ATOM     17  O   UNL     1       7.982   4.612  17.734  0.00  0.00    +0.000 OA
BRANCH  16  18
ATOM     18  O   UNL     1       8.169   7.046  18.490  0.00  0.00    +0.000 OA
ATOM     19  H   UNL     1       8.387   7.312  17.576  0.00  0.00    +0.000 HD
ENDBRANCH  16  18
BRANCH  16  20
ATOM     20  O   UNL     1       7.326   5.376  20.108  0.00  0.00    +0.000 OA
ATOM     21  H   UNL     1       7.350   4.414  20.278  0.00  0.00    +0.000 HD
ENDBRANCH  16  20
ENDBRANCH  15  16
ENDBRANCH   6  15
TORSDOF 7
ENDMDL
MODEL 5
REMARK VINA RESULT:      -6.9      1.921      3.483
REMARK  Name = 
REMARK  7 active torsions:
REMARK  status: ('A' for Active; 'I' for Inactive)
REMARK    1  A    between atoms: C_2  and  O_3
REMARK    2  A    between atoms: C_2  and  C_4
REMARK    3  A    between atoms: C_7  and  C_8
REMARK    4  A    between atoms: C_13  and  O_14
REMARK    5  A    between atoms: O_14  and  P_15
REMARK    6  A    between atoms: P_15  and  O_17
REMARK    7  A    between atoms: P_15  and  O_18
REMARK                            x       y       z     vdW  Elec       q    Type
REMARK                         _______ _______ _______ _____ _____    ______ ____
ROOT
ATOM      1  C   UNL     1       4.422   4.434  17.080  0.00  0.00    +0.000 A 
ATOM      2  C   UNL     1       3.216   3.711  17.162  0.00  0.00    +0.000 A 
ATOM      3  C   UNL     1       2.351   3.860  18.248  0.00  0.00    +0.000 A 
ATOM      4  C   UNL     1       2.670   4.743  19.282  0.00  0.00    +0.000 A 
ATOM      5  C   UNL     1       3.853   5.493  19.188  0.00  0.00    +0.000 A 
ATOM      6  C   UNL     1       4.738   5.330  18.113  0.00  0.00    +0.000 A 
ENDROOT
BRANCH   4   7
ATOM      7  C   UNL     1       1.775   4.898  20.488  0.00  0.00    +0.000 C 
ATOM      8  F   UNL     1       0.593   4.232  20.380  0.00  0.00    +0.000 F 
ATOM      9  F   UNL     1       2.364   4.431  21.623  0.00  0.00    +0.000 F 
ATOM     10  F   UNL     1       1.455   6.196  20.739  0.00  0.00    +0.000 F 
ENDBRANCH   4   7
BRANCH   1  12
ATOM     11  O   UNL     1       5.257   4.894  14.894  0.00  0.00    +0.000 OA
ATOM     12  C   UNL     1       5.252   4.155  15.866  0.00  0.00    +0.000 C 
BRANCH  12  13
ATOM     13  O   UNL     1       5.985   3.026  15.899  0.00  0.00    +0.000 OA
ATOM     14  H   UNL     1       6.453   2.837  15.069  0.00  0.00    +0.000 HD
ENDBRANCH  12  13
ENDBRANCH   1  12
BRANCH   6  15
ATOM     15  O   UNL     1       5.844   6.138  18.040  0.00  0.00    +0.000 OA
BRANCH  15  16
ATOM     16  P   UNL     1       7.273   5.783  18.700  0.00  0.00    +0.000 P 
ATOM     17  O   UNL     1       7.213   5.208  20.071  0.00  0.00    +0.000 OA
BRANCH  16  18
ATOM     18  O   UNL     1       7.921   4.763  17.656  0.00  0.00    +0.000 OA
ATOM     19  H   UNL     1       7.508   4.823  16.772  0.00  0.00    +0.000 HD
ENDBRANCH  16  18
BRANCH  16  20
ATOM     20  O   UNL     1       8.248   7.036  18.574  0.00  0.00    +0.000 OA
ATOM     21  H   UNL     1       8.698   7.218  19.423  0.00  0.00    +0.000 HD
ENDBRANCH  16  20
ENDBRANCH  15  16
ENDBRANCH   6  15
TORSDOF 7
ENDMDL
MODEL 6
REMARK VINA RESULT:      -6.9      0.942      1.017
REMARK  Name = 
REMARK  7 active torsions:
REMARK  status: ('A' for Active; 'I' for Inactive)
REMARK    1  A    between atoms: C_2  and  O_3
REMARK    2  A    between atoms: C_2  and  C_4
REMARK    3  A    between atoms: C_7  and  C_8
REMARK    4  A    between atoms: C_13  and  O_14
REMARK    5  A    between atoms: O_14  and  P_15
REMARK    6  A    between atoms: P_15  and  O_17
REMARK    7  A    between atoms: P_15  and  O_18
REMARK                            x       y       z     vdW  Elec       q    Type
REMARK                         _______ _______ _______ _____ _____    ______ ____
ROOT
ATOM      1  C   UNL     1       6.060   5.224  18.052  0.00  0.00    +0.000 A 
ATOM      2  C   UNL     1       5.175   5.402  19.133  0.00  0.00    +0.000 A 
ATOM      3  C   UNL     1       3.957   4.722  19.196  0.00  0.00    +0.000 A 
ATOM      4  C   UNL     1       3.595   3.839  18.177  0.00  0.00    +0.000 A 
ATOM      5  C   UNL     1       4.489   3.629  17.115  0.00  0.00    +0.000 A 
ATOM      6  C   UNL     1       5.702   4.328  17.033  0.00  0.00    +0.000 A 
ENDROOT
BRANCH   4   7
ATOM      7  C   UNL     1       2.268   3.117  18.196  0.00  0.00    +0.000 C 
ATOM      8  F   UNL     1       2.250   1.991  17.432  0.00  0.00    +0.000 F 
ATOM      9  F   UNL     1       1.920   2.722  19.451  0.00  0.00    +0.000 F 
ATOM     10  F   UNL     1       1.245   3.893  17.748  0.00  0.00    +0.000 F 
ENDBRANCH   4   7
BRANCH   1  12
ATOM     11  O   UNL     1       8.007   6.091  19.122  0.00  0.00    +0.000 OA
ATOM     12  C   UNL     1       7.317   6.034  18.116  0.00  0.00    +0.000 C 
BRANCH  12  13
ATOM     13  O   UNL     1       7.638   6.715  17.000  0.00  0.00    +0.000 OA
ATOM     14  H   UNL     1       6.882   6.887  16.414  0.00  0.00    +0.000 HD
ENDBRANCH  12  13
ENDBRANCH   1  12
BRANCH   6  15
ATOM     15  O   UNL     1       6.566   4.032  16.009  0.00  0.00    +0.000 OA
BRANCH  15  16
ATOM     16  P   UNL     1       6.516   4.722  14.552  0.00  0.00    +0.000 P 
ATOM     17  O   UNL     1       6.031   3.846  13.451  0.00  0.00    +0.000 OA
BRANCH  16  18
ATOM     18  O   UNL     1       5.563   5.985  14.771  0.00  0.00    +0.000 OA
ATOM     19  H   UNL     1       4.746   5.754  15.255  0.00  0.00    +0.000 HD
ENDBRANCH  16  18
BRANCH  16  20
ATOM     20  O   UNL     1       7.913   5.423  14.241  0.00  0.00    +0.000 OA
ATOM     21  H   UNL     1       7.961   6.308  14.654  0.00  0.00    +0.000 HD
ENDBRANCH  16  20
ENDBRANCH  15  16
ENDBRANCH   6  15
TORSDOF 7
ENDMDL
MODEL 7
REMARK VINA RESULT:      -6.9      1.905      3.485
REMARK  Name = 
REMARK  7 active torsions:
REMARK  status: ('A' for Active; 'I' for Inactive)
REMARK    1  A    between atoms: C_2  and  O_3
REMARK    2  A    between atoms: C_2  and  C_4
REMARK    3  A    between atoms: C_7  and  C_8
REMARK    4  A    between atoms: C_13  and  O_14
REMARK    5  A    between atoms: O_14  and  P_15
REMARK    6  A    between atoms: P_15  and  O_17
REMARK    7  A    between atoms: P_15  and  O_18
REMARK                            x       y       z     vdW  Elec       q    Type
REMARK                         _______ _______ _______ _____ _____    ______ ____
ROOT
ATOM      1  C   UNL     1       4.415   4.404  17.093  0.00  0.00    +0.000 A 
ATOM      2  C   UNL     1       3.213   3.675  17.166  0.00  0.00    +0.000 A 
ATOM      3  C   UNL     1       2.346   3.811  18.253  0.00  0.00    +0.000 A 
ATOM      4  C   UNL     1       2.659   4.686  19.294  0.00  0.00    +0.000 A 
ATOM      5  C   UNL     1       3.839   5.443  19.208  0.00  0.00    +0.000 A 
ATOM      6  C   UNL     1       4.726   5.293  18.133  0.00  0.00    +0.000 A 
ENDROOT
BRANCH   4   7
ATOM      7  C   UNL     1       1.762   4.827  20.501  0.00  0.00    +0.000 C 
ATOM      8  F   UNL     1       0.575   4.174  20.377  0.00  0.00    +0.000 F 
ATOM      9  F   UNL     1       2.344   4.334  21.629  0.00  0.00    +0.000 F 
ATOM     10  F   UNL     1       1.453   6.124  20.774  0.00  0.00    +0.000 F 
ENDBRANCH   4   7
BRANCH   1  12
ATOM     11  O   UNL     1       5.252   4.888  14.912  0.00  0.00    +0.000 OA
ATOM     12  C   UNL     1       5.248   4.139  15.877  0.00  0.00    +0.000 C 
BRANCH  12  13
ATOM     13  O   UNL     1       5.985   3.013  15.901  0.00  0.00    +0.000 OA
ATOM     14  H   UNL     1       6.941   3.170  15.964  0.00  0.00    +0.000 HD
ENDBRANCH  12  13
ENDBRANCH   1  12
BRANCH   6  15
ATOM     15  O   UNL     1       5.828   6.107  18.068  0.00  0.00    +0.000 OA
BRANCH  15  16
ATOM     16  P   UNL     1       7.280   5.717  18.653  0.00  0.00    +0.000 P 
ATOM     17  O   UNL     1       8.286   6.814  18.639  0.00  0.00    +0.000 OA
BRANCH  16  18
ATOM     18  O   UNL     1       6.962   5.221  20.138  0.00  0.00    +0.000 OA
ATOM     19  H   UNL     1       6.155   4.673  20.181  0.00  0.00    +0.000 HD
ENDBRANCH  16  18
BRANCH  16  20
ATOM     20  O   UNL     1       7.792   4.373  17.967  0.00  0.00    +0.000 OA
ATOM     21  H   UNL     1       7.049   3.877  17.570  0.00  0.00    +0.000 HD
ENDBRANCH  16  20
ENDBRANCH  15  16
ENDBRANCH   6  15
TORSDOF 7
ENDMDL
MODEL 8
REMARK VINA RESULT:      -6.8      1.967      3.680
REMARK  Name = 
REMARK  7 active torsions:
REMARK  status: ('A' for Active; 'I' for Inactive)
REMARK    1  A    between atoms: C_2  and  O_3
REMARK    2  A    between atoms: C_2  and  C_4
REMARK    3  A    between atoms: C_7  and  C_8
REMARK    4  A    between atoms: C_13  and  O_14
REMARK    5  A    between atoms: O_14  and  P_15
REMARK    6  A    between atoms: P_15  and  O_17
REMARK    7  A    between atoms: P_15  and  O_18
REMARK                            x       y       z     vdW  Elec       q    Type
REMARK                         _______ _______ _______ _____ _____    ______ ____
ROOT
ATOM      1  C   UNL     1       4.570   4.594  17.165  0.00  0.00    +0.000 A 
ATOM      2  C   UNL     1       3.475   3.718  17.039  0.00  0.00    +0.000 A 
ATOM      3  C   UNL     1       2.758   3.285  18.156  0.00  0.00    +0.000 A 
ATOM      4  C   UNL     1       3.116   3.724  19.432  0.00  0.00    +0.000 A 
ATOM      5  C   UNL     1       4.185   4.627  19.561  0.00  0.00    +0.000 A 
ATOM      6  C   UNL     1       4.924   5.046  18.446  0.00  0.00    +0.000 A 
ENDROOT
BRANCH   4   7
ATOM      7  C   UNL     1       2.386   3.245  20.664  0.00  0.00    +0.000 C 
ATOM      8  F   UNL     1       1.918   4.254  21.448  0.00  0.00    +0.000 F 
ATOM      9  F   UNL     1       1.302   2.483  20.350  0.00  0.00    +0.000 F 
ATOM     10  F   UNL     1       3.167   2.474  21.468  0.00  0.00    +0.000 F 
ENDBRANCH   4   7
BRANCH   1  12
ATOM     11  O   UNL     1       5.577   4.115  15.057  0.00  0.00    +0.000 OA
ATOM     12  C   UNL     1       5.250   4.954  15.880  0.00  0.00    +0.000 C 
BRANCH  12  13
ATOM     13  O   UNL     1       5.497   6.264  15.691  0.00  0.00    +0.000 OA
ATOM     14  H   UNL     1       6.324   6.443  15.216  0.00  0.00    +0.000 HD
ENDBRANCH  12  13
ENDBRANCH   1  12
BRANCH   6  15
ATOM     15  O   UNL     1       5.913   5.980  18.623  0.00  0.00    +0.000 OA
BRANCH  15  16
ATOM     16  P   UNL     1       7.465   5.623  18.879  0.00  0.00    +0.000 P 
ATOM     17  O   UNL     1       7.991   4.476  18.090  0.00  0.00    +0.000 OA
BRANCH  16  18
ATOM     18  O   UNL     1       8.223   6.984  18.526  0.00  0.00    +0.000 OA
ATOM     19  H   UNL     1       8.989   6.841  17.937  0.00  0.00    +0.000 HD
ENDBRANCH  16  18
BRANCH  16  20
ATOM     20  O   UNL     1       7.736   5.499  20.444  0.00  0.00    +0.000 OA
ATOM     21  H   UNL     1       6.950   5.152  20.910  0.00  0.00    +0.000 HD
ENDBRANCH  16  20
ENDBRANCH  15  16
ENDBRANCH   6  15
TORSDOF 7
ENDMDL
MODEL 9
REMARK VINA RESULT:      -6.8      0.686      1.483
REMARK  Name = 
REMARK  7 active torsions:
REMARK  status: ('A' for Active; 'I' for Inactive)
REMARK    1  A    between atoms: C_2  and  O_3
REMARK    2  A    between atoms: C_2  and  C_4
REMARK    3  A    between atoms: C_7  and  C_8
REMARK    4  A    between atoms: C_13  and  O_14
REMARK    5  A    between atoms: O_14  and  P_15
REMARK    6  A    between atoms: P_15  and  O_17
REMARK    7  A    between atoms: P_15  and  O_18
REMARK                            x       y       z     vdW  Elec       q    Type
REMARK                         _______ _______ _______ _____ _____    ______ ____
ROOT
ATOM      1  C   UNL     1       5.810   5.029  18.360  0.00  0.00    +0.000 A 
ATOM      2  C   UNL     1       4.957   5.281  19.452  0.00  0.00    +0.000 A 
ATOM      3  C   UNL     1       3.615   4.893  19.431  0.00  0.00    +0.000 A 
ATOM      4  C   UNL     1       3.093   4.235  18.316  0.00  0.00    +0.000 A 
ATOM      5  C   UNL     1       3.948   3.948  17.239  0.00  0.00    +0.000 A 
ATOM      6  C   UNL     1       5.289   4.357  17.243  0.00  0.00    +0.000 A 
ENDROOT
BRANCH   4   7
ATOM      7  C   UNL     1       1.638   3.837  18.246  0.00  0.00    +0.000 C 
ATOM      8  F   UNL     1       0.941   4.488  17.275  0.00  0.00    +0.000 F 
ATOM      9  F   UNL     1       1.485   2.509  17.989  0.00  0.00    +0.000 F 
ATOM     10  F   UNL     1       0.975   4.073  19.410  0.00  0.00    +0.000 F 
ENDBRANCH   4   7
BRANCH   1  12
ATOM     11  O   UNL     1       7.875   5.293  19.524  0.00  0.00    +0.000 OA
ATOM     12  C   UNL     1       7.215   5.519  18.522  0.00  0.00    +0.000 C 
BRANCH  12  13
ATOM     13  O   UNL     1       7.708   6.244  17.500  0.00  0.00    +0.000 OA
ATOM     14  H   UNL     1       7.522   7.194  17.567  0.00  0.00    +0.000 HD
ENDBRANCH  12  13
ENDBRANCH   1  12
BRANCH   6  15
ATOM     15  O   UNL     1       6.094   3.990  16.194  0.00  0.00    +0.000 OA
BRANCH  15  16
ATOM     16  P   UNL     1       6.372   4.909  14.898  0.00  0.00    +0.000 P 
ATOM     17  O   UNL     1       7.807   5.161  14.593  0.00  0.00    +0.000 OA
BRANCH  16  18
ATOM     18  O   UNL     1       5.644   4.116  13.718  0.00  0.00    +0.000 OA
ATOM     19  H   UNL     1       6.274   3.616  13.163  0.00  0.00    +0.000 HD
ENDBRANCH  16  18
BRANCH  16  20
ATOM     20  O   UNL     1       5.494   6.236  14.983  0.00  0.00    +0.000 OA
ATOM     21  H   UNL     1       4.606   6.047  15.345  0.00  0.00    +0.000 HD
ENDBRANCH  16  20
ENDBRANCH  15  16
ENDBRANCH   6  15
TORSDOF 7
ENDMDL
