MODEL 1
REMARK VINA RESULT:      -7.9      0.000      0.000
REMARK  Name = 
REMARK  6 active torsions:
REMARK  status: ('A' for Active; 'I' for Inactive)
REMARK    1  A    between atoms: C_1  and  O_2
REMARK    2  A    between atoms: O_2  and  N_3
REMARK    3  A    between atoms: N_3  and  C_4
REMARK    4  A    between atoms: C_4  and  C_5
REMARK    5  A    between atoms: C_17  and  C_18
REMARK    6  A    between atoms: C_18  and  C_19
REMARK                            x       y       z     vdW  Elec       q    Type
REMARK                         _______ _______ _______ _____ _____    ______ ____
ROOT
ATOM      1  N   UNL     1       3.136   4.210  19.052  0.00  0.00    +0.000 N 
ATOM      2  C   UNL     1       3.728   4.342  17.782  0.00  0.00    +0.000 C 
ATOM      3  O   UNL     1       3.180   3.962  16.739  0.00  0.00    +0.000 OA
ATOM      4  N   UNL     1       5.042   4.789  17.726  0.00  0.00    +0.000 N 
ATOM      5  C   UNL     1       6.058   4.828  18.645  0.00  0.00    +0.000 C 
ATOM      6  O   UNL     1       6.097   4.901  19.852  0.00  0.00    +0.000 OA
ATOM      7  C   UNL     1       7.110   4.943  17.550  0.00  0.00    +0.000 C 
ATOM      8  C   UNL     1       5.968   4.550  16.582  0.00  0.00    +0.000 C 
ENDROOT
BRANCH   1  10
ATOM      9  C   UNL     1       1.326   3.063  20.038  0.00  0.00    +0.000 C 
ATOM     10  O   UNL     1       1.758   3.808  18.898  0.00  0.00    +0.000 OA
ENDBRANCH   1  10
BRANCH   1  11
ATOM     11  C   UNL     1       3.172   5.302  20.039  0.00  0.00    +0.000 C 
BRANCH  11  12
ATOM     12  C   UNL     1       2.487   6.601  19.645  0.00  0.00    +0.000 A 
ATOM     13  C   UNL     1       1.743   7.300  20.616  0.00  0.00    +0.000 A 
ATOM     14  C   UNL     1       1.194   8.559  20.346  0.00  0.00    +0.000 A 
ATOM     15  C   UNL     1       1.380   9.145  19.099  0.00  0.00    +0.000 A 
ATOM     16  C   UNL     1       2.102   8.465  18.120  0.00  0.00    +0.000 A 
ATOM     17  C   UNL     1       2.653   7.208  18.393  0.00  0.00    +0.000 A 
ENDBRANCH  11  12
ENDBRANCH   1  11
BRANCH   8  18
ATOM     18  C   UNL     1       5.707   5.438  15.371  0.00  0.00    +0.000 C 
BRANCH  18  19
ATOM     19  C   UNL     1       6.112   4.718  14.099  0.00  0.00    +0.000 A 
ATOM     20  C   UNL     1       7.316   5.009  13.440  0.00  0.00    +0.000 A 
ATOM     21  C   UNL     1       7.633   4.381  12.231  0.00  0.00    +0.000 A 
ATOM     22  C   UNL     1       6.760   3.447  11.677  0.00  0.00    +0.000 A 
ATOM     23  C   UNL     1       5.576   3.129  12.336  0.00  0.00    +0.000 A 
ATOM     24  C   UNL     1       5.254   3.758  13.540  0.00  0.00    +0.000 A 
ENDBRANCH  18  19
ENDBRANCH   8  18
TORSDOF 5
ENDMDL
MODEL 2
REMARK VINA RESULT:      -7.8      0.228      1.010
REMARK  Name = 
REMARK  6 active torsions:
REMARK  status: ('A' for Active; 'I' for Inactive)
REMARK    1  A    between atoms: C_1  and  O_2
REMARK    2  A    between atoms: O_2  and  N_3
REMARK    3  A    between atoms: N_3  and  C_4
REMARK    4  A    between atoms: C_4  and  C_5
REMARK    5  A    between atoms: C_17  and  C_18
REMARK    6  A    between atoms: C_18  and  C_19
REMARK                            x       y       z     vdW  Elec       q    Type
REMARK                         _______ _______ _______ _____ _____    ______ ____
ROOT
ATOM      1  N   UNL     1       3.233   4.163  18.941  0.00  0.00    +0.000 N 
ATOM      2  C   UNL     1       3.828   4.322  17.675  0.00  0.00    +0.000 C 
ATOM      3  O   UNL     1       3.285   3.960  16.622  0.00  0.00    +0.000 OA
ATOM      4  N   UNL     1       5.140   4.777  17.632  0.00  0.00    +0.000 N 
ATOM      5  C   UNL     1       6.154   4.803  18.555  0.00  0.00    +0.000 C 
ATOM      6  O   UNL     1       6.188   4.853  19.763  0.00  0.00    +0.000 OA
ATOM      7  C   UNL     1       7.208   4.944  17.465  0.00  0.00    +0.000 C 
ATOM      8  C   UNL     1       6.072   4.565  16.487  0.00  0.00    +0.000 C 
ENDROOT
BRANCH   1  10
ATOM      9  C   UNL     1       1.638   2.482  19.378  0.00  0.00    +0.000 C 
ATOM     10  O   UNL     1       1.858   3.758  18.773  0.00  0.00    +0.000 OA
ENDBRANCH   1  10
BRANCH   1  11
ATOM     11  C   UNL     1       3.260   5.235  19.949  0.00  0.00    +0.000 C 
BRANCH  11  12
ATOM     12  C   UNL     1       2.563   6.536  19.581  0.00  0.00    +0.000 A 
ATOM     13  C   UNL     1       1.811   7.207  20.566  0.00  0.00    +0.000 A 
ATOM     14  C   UNL     1       1.250   8.466  20.322  0.00  0.00    +0.000 A 
ATOM     15  C   UNL     1       1.431   9.079  19.087  0.00  0.00    +0.000 A 
ATOM     16  C   UNL     1       2.160   8.427  18.096  0.00  0.00    +0.000 A 
ATOM     17  C   UNL     1       2.723   7.170  18.342  0.00  0.00    +0.000 A 
ENDBRANCH  11  12
ENDBRANCH   1  11
BRANCH   8  18
ATOM     18  C   UNL     1       5.809   5.475  15.293  0.00  0.00    +0.000 C 
BRANCH  18  19
ATOM     19  C   UNL     1       6.096   4.735  14.000  0.00  0.00    +0.000 A 
ATOM     20  C   UNL     1       5.213   3.772  13.491  0.00  0.00    +0.000 A 
ATOM     21  C   UNL     1       5.535   3.054  12.334  0.00  0.00    +0.000 A 
ATOM     22  C   UNL     1       6.733   3.301  11.667  0.00  0.00    +0.000 A 
ATOM     23  C   UNL     1       7.605   4.275  12.146  0.00  0.00    +0.000 A 
ATOM     24  C   UNL     1       7.289   4.989  13.303  0.00  0.00    +0.000 A 
ENDBRANCH  18  19
ENDBRANCH   8  18
TORSDOF 5
ENDMDL
MODEL 3
REMARK VINA RESULT:      -7.7      0.254      1.011
REMARK  Name = 
REMARK  6 active torsions:
REMARK  status: ('A' for Active; 'I' for Inactive)
REMARK    1  A    between atoms: C_1  and  O_2
REMARK    2  A    between atoms: O_2  and  N_3
REMARK    3  A    between atoms: N_3  and  C_4
REMARK    4  A    between atoms: C_4  and  C_5
REMARK    5  A    between atoms: C_17  and  C_18
REMARK    6  A    between atoms: C_18  and  C_19
REMARK                            x       y       z     vdW  Elec       q    Type
REMARK                         _______ _______ _______ _____ _____    ______ ____
ROOT
ATOM      1  N   UNL     1       2.918   4.316  19.086  0.00  0.00    +0.000 N 
ATOM      2  C   UNL     1       3.484   4.398  17.800  0.00  0.00    +0.000 C 
ATOM      3  O   UNL     1       2.877   4.067  16.772  0.00  0.00    +0.000 OA
ATOM      4  N   UNL     1       4.829   4.732  17.706  0.00  0.00    +0.000 N 
ATOM      5  C   UNL     1       5.870   4.684  18.597  0.00  0.00    +0.000 C 
ATOM      6  O   UNL     1       5.948   4.752  19.802  0.00  0.00    +0.000 OA
ATOM      7  C   UNL     1       6.897   4.709  17.473  0.00  0.00    +0.000 C 
ATOM      8  C   UNL     1       5.700   4.416  16.538  0.00  0.00    +0.000 C 
ENDROOT
BRANCH   1  10
ATOM      9  C   UNL     1       1.033   3.373  20.145  0.00  0.00    +0.000 C 
ATOM     10  O   UNL     1       1.508   4.033  18.970  0.00  0.00    +0.000 OA
ENDBRANCH   1  10
BRANCH   1  11
ATOM     11  C   UNL     1       3.074   5.399  20.070  0.00  0.00    +0.000 C 
BRANCH  11  12
ATOM     12  C   UNL     1       2.545   6.767  19.668  0.00  0.00    +0.000 A 
ATOM     13  C   UNL     1       2.794   7.237  18.364  0.00  0.00    +0.000 A 
ATOM     14  C   UNL     1       2.230   8.431  17.899  0.00  0.00    +0.000 A 
ATOM     15  C   UNL     1       1.404   9.179  18.730  0.00  0.00    +0.000 A 
ATOM     16  C   UNL     1       1.155   8.738  20.028  0.00  0.00    +0.000 A 
ATOM     17  C   UNL     1       1.716   7.543  20.491  0.00  0.00    +0.000 A 
ENDBRANCH  11  12
ENDBRANCH   1  11
BRANCH   8  18
ATOM     18  C   UNL     1       5.481   5.324  15.334  0.00  0.00    +0.000 C 
BRANCH  18  19
ATOM     19  C   UNL     1       6.010   4.660  14.076  0.00  0.00    +0.000 A 
ATOM     20  C   UNL     1       7.260   4.997  13.535  0.00  0.00    +0.000 A 
ATOM     21  C   UNL     1       7.693   4.421  12.337  0.00  0.00    +0.000 A 
ATOM     22  C   UNL     1       6.891   3.492  11.676  0.00  0.00    +0.000 A 
ATOM     23  C   UNL     1       5.662   3.128  12.218  0.00  0.00    +0.000 A 
ATOM     24  C   UNL     1       5.225   3.706  13.411  0.00  0.00    +0.000 A 
ENDBRANCH  18  19
ENDBRANCH   8  18
TORSDOF 5
ENDMDL
MODEL 4
REMARK VINA RESULT:      -7.5      0.229      1.408
REMARK  Name = 
REMARK  6 active torsions:
REMARK  status: ('A' for Active; 'I' for Inactive)
REMARK    1  A    between atoms: C_1  and  O_2
REMARK    2  A    between atoms: O_2  and  N_3
REMARK    3  A    between atoms: N_3  and  C_4
REMARK    4  A    between atoms: C_4  and  C_5
REMARK    5  A    between atoms: C_17  and  C_18
REMARK    6  A    between atoms: C_18  and  C_19
REMARK                            x       y       z     vdW  Elec       q    Type
REMARK                         _______ _______ _______ _____ _____    ______ ____
ROOT
ATOM      1  N   UNL     1       3.019   4.299  18.970  0.00  0.00    +0.000 N 
ATOM      2  C   UNL     1       3.654   4.437  17.721  0.00  0.00    +0.000 C 
ATOM      3  O   UNL     1       3.106   4.145  16.649  0.00  0.00    +0.000 OA
ATOM      4  N   UNL     1       4.999   4.781  17.715  0.00  0.00    +0.000 N 
ATOM      5  C   UNL     1       5.991   4.701  18.659  0.00  0.00    +0.000 C 
ATOM      6  O   UNL     1       6.003   4.720  19.869  0.00  0.00    +0.000 OA
ATOM      7  C   UNL     1       7.077   4.778  17.595  0.00  0.00    +0.000 C 
ATOM      8  C   UNL     1       5.935   4.518  16.584  0.00  0.00    +0.000 C 
ENDROOT
BRANCH   1  10
ATOM      9  C   UNL     1       1.278   2.752  19.343  0.00  0.00    +0.000 C 
ATOM     10  O   UNL     1       1.619   4.014  18.766  0.00  0.00    +0.000 OA
ENDBRANCH   1  10
BRANCH   1  11
ATOM     11  C   UNL     1       3.113   5.342  20.005  0.00  0.00    +0.000 C 
BRANCH  11  12
ATOM     12  C   UNL     1       2.573   6.716  19.640  0.00  0.00    +0.000 A 
ATOM     13  C   UNL     1       2.788   7.208  18.337  0.00  0.00    +0.000 A 
ATOM     14  C   UNL     1       2.212   8.409  17.907  0.00  0.00    +0.000 A 
ATOM     15  C   UNL     1       1.406   9.141  18.772  0.00  0.00    +0.000 A 
ATOM     16  C   UNL     1       1.191   8.679  20.068  0.00  0.00    +0.000 A 
ATOM     17  C   UNL     1       1.765   7.477  20.496  0.00  0.00    +0.000 A 
ENDBRANCH  11  12
ENDBRANCH   1  11
BRANCH   8  18
ATOM     18  C   UNL     1       5.776   5.473  15.408  0.00  0.00    +0.000 C 
BRANCH  18  19
ATOM     19  C   UNL     1       6.070   4.752  14.106  0.00  0.00    +0.000 A 
ATOM     20  C   UNL     1       5.195   3.787  13.585  0.00  0.00    +0.000 A 
ATOM     21  C   UNL     1       5.524   3.087  12.420  0.00  0.00    +0.000 A 
ATOM     22  C   UNL     1       6.720   3.353  11.756  0.00  0.00    +0.000 A 
ATOM     23  C   UNL     1       7.583   4.329  12.248  0.00  0.00    +0.000 A 
ATOM     24  C   UNL     1       7.260   5.025  13.414  0.00  0.00    +0.000 A 
ENDBRANCH  18  19
ENDBRANCH   8  18
TORSDOF 5
ENDMDL
MODEL 5
REMARK VINA RESULT:      -6.9      1.711      7.120
REMARK  Name = 
REMARK  6 active torsions:
REMARK  status: ('A' for Active; 'I' for Inactive)
REMARK    1  A    between atoms: C_1  and  O_2
REMARK    2  A    between atoms: O_2  and  N_3
REMARK    3  A    between atoms: N_3  and  C_4
REMARK    4  A    between atoms: C_4  and  C_5
REMARK    5  A    between atoms: C_17  and  C_18
REMARK    6  A    between atoms: C_18  and  C_19
REMARK                            x       y       z     vdW  Elec       q    Type
REMARK                         _______ _______ _______ _____ _____    ______ ____
ROOT
ATOM      1  N   UNL     1       6.966   6.009  17.512  0.00  0.00    +0.000 N 
ATOM      2  C   UNL     1       5.660   6.482  17.744  0.00  0.00    +0.000 C 
ATOM      3  O   UNL     1       5.317   7.652  17.528  0.00  0.00    +0.000 OA
ATOM      4  N   UNL     1       4.766   5.627  18.375  0.00  0.00    +0.000 N 
ATOM      5  C   UNL     1       4.929   4.510  19.153  0.00  0.00    +0.000 C 
ATOM      6  O   UNL     1       5.782   3.656  19.229  0.00  0.00    +0.000 OA
ATOM      7  C   UNL     1       3.532   4.656  19.742  0.00  0.00    +0.000 C 
ATOM      8  C   UNL     1       3.549   6.070  19.113  0.00  0.00    +0.000 C 
ENDROOT
BRANCH   1  10
ATOM      9  C   UNL     1       8.092   8.076  17.658  0.00  0.00    +0.000 C 
ATOM     10  O   UNL     1       7.714   7.008  16.787  0.00  0.00    +0.000 OA
ENDBRANCH   1  10
BRANCH   1  11
ATOM     11  C   UNL     1       7.214   4.711  16.865  0.00  0.00    +0.000 C 
BRANCH  11  12
ATOM     12  C   UNL     1       6.734   4.561  15.430  0.00  0.00    +0.000 A 
ATOM     13  C   UNL     1       7.611   4.896  14.380  0.00  0.00    +0.000 A 
ATOM     14  C   UNL     1       7.269   4.664  13.042  0.00  0.00    +0.000 A 
ATOM     15  C   UNL     1       6.042   4.091  12.729  0.00  0.00    +0.000 A 
ATOM     16  C   UNL     1       5.154   3.764  13.752  0.00  0.00    +0.000 A 
ATOM     17  C   UNL     1       5.499   3.994  15.088  0.00  0.00    +0.000 A 
ENDBRANCH  11  12
ENDBRANCH   1  11
BRANCH   8  18
ATOM     18  C   UNL     1       2.388   6.477  18.214  0.00  0.00    +0.000 C 
BRANCH  18  19
ATOM     19  C   UNL     1       1.827   7.815  18.660  0.00  0.00    +0.000 A 
ATOM     20  C   UNL     1       1.642   8.873  17.758  0.00  0.00    +0.000 A 
ATOM     21  C   UNL     1       1.190  10.118  18.208  0.00  0.00    +0.000 A 
ATOM     22  C   UNL     1       0.904  10.314  19.558  0.00  0.00    +0.000 A 
ATOM     23  C   UNL     1       1.056   9.263  20.458  0.00  0.00    +0.000 A 
ATOM     24  C   UNL     1       1.513   8.021  20.012  0.00  0.00    +0.000 A 
ENDBRANCH  18  19
ENDBRANCH   8  18
TORSDOF 5
ENDMDL
MODEL 6
REMARK VINA RESULT:      -6.9      1.471      7.481
REMARK  Name = 
REMARK  6 active torsions:
REMARK  status: ('A' for Active; 'I' for Inactive)
REMARK    1  A    between atoms: C_1  and  O_2
REMARK    2  A    between atoms: O_2  and  N_3
REMARK    3  A    between atoms: N_3  and  C_4
REMARK    4  A    between atoms: C_4  and  C_5
REMARK    5  A    between atoms: C_17  and  C_18
REMARK    6  A    between atoms: C_18  and  C_19
REMARK                            x       y       z     vdW  Elec       q    Type
REMARK                         _______ _______ _______ _____ _____    ______ ____
ROOT
ATOM      1  N   UNL     1       5.988   4.419  16.916  0.00  0.00    +0.000 N 
ATOM      2  C   UNL     1       5.228   5.535  17.313  0.00  0.00    +0.000 C 
ATOM      3  O   UNL     1       5.737   6.599  17.693  0.00  0.00    +0.000 OA
ATOM      4  N   UNL     1       3.852   5.376  17.414  0.00  0.00    +0.000 N 
ATOM      5  C   UNL     1       3.043   4.276  17.545  0.00  0.00    +0.000 C 
ATOM      6  O   UNL     1       3.142   3.117  17.213  0.00  0.00    +0.000 OA
ATOM      7  C   UNL     1       1.899   5.122  18.088  0.00  0.00    +0.000 C 
ATOM      8  C   UNL     1       2.959   6.239  18.240  0.00  0.00    +0.000 C 
ENDROOT
BRANCH   1  10
ATOM      9  C   UNL     1       8.078   4.502  18.006  0.00  0.00    +0.000 C 
ATOM     10  O   UNL     1       7.375   4.803  16.799  0.00  0.00    +0.000 OA
ENDBRANCH   1  10
BRANCH   1  11
ATOM     11  C   UNL     1       5.643   3.634  15.720  0.00  0.00    +0.000 C 
BRANCH  11  12
ATOM     12  C   UNL     1       6.360   4.004  14.431  0.00  0.00    +0.000 A 
ATOM     13  C   UNL     1       5.992   3.353  13.236  0.00  0.00    +0.000 A 
ATOM     14  C   UNL     1       6.529   3.737  12.002  0.00  0.00    +0.000 A 
ATOM     15  C   UNL     1       7.445   4.781  11.937  0.00  0.00    +0.000 A 
ATOM     16  C   UNL     1       7.832   5.429  13.108  0.00  0.00    +0.000 A 
ATOM     17  C   UNL     1       7.292   5.047  14.341  0.00  0.00    +0.000 A 
ENDBRANCH  11  12
ENDBRANCH   1  11
BRANCH   8  18
ATOM     18  C   UNL     1       2.667   7.602  17.626  0.00  0.00    +0.000 C 
BRANCH  18  19
ATOM     19  C   UNL     1       1.887   8.459  18.605  0.00  0.00    +0.000 A 
ATOM     20  C   UNL     1       1.791   8.124  19.963  0.00  0.00    +0.000 A 
ATOM     21  C   UNL     1       1.007   8.892  20.830  0.00  0.00    +0.000 A 
ATOM     22  C   UNL     1       0.325  10.010  20.353  0.00  0.00    +0.000 A 
ATOM     23  C   UNL     1       0.435  10.370  19.013  0.00  0.00    +0.000 A 
ATOM     24  C   UNL     1       1.212   9.601  18.144  0.00  0.00    +0.000 A 
ENDBRANCH  18  19
ENDBRANCH   8  18
TORSDOF 5
ENDMDL
MODEL 7
REMARK VINA RESULT:      -6.7      3.197      8.775
REMARK  Name = 
REMARK  6 active torsions:
REMARK  status: ('A' for Active; 'I' for Inactive)
REMARK    1  A    between atoms: C_1  and  O_2
REMARK    2  A    between atoms: O_2  and  N_3
REMARK    3  A    between atoms: N_3  and  C_4
REMARK    4  A    between atoms: C_4  and  C_5
REMARK    5  A    between atoms: C_17  and  C_18
REMARK    6  A    between atoms: C_18  and  C_19
REMARK                            x       y       z     vdW  Elec       q    Type
REMARK                         _______ _______ _______ _____ _____    ______ ____
ROOT
ATOM      1  N   UNL     1       2.373   6.547  19.649  0.00  0.00    +0.000 N 
ATOM      2  C   UNL     1       1.683   7.622  20.240  0.00  0.00    +0.000 C 
ATOM      3  O   UNL     1       1.040   7.515  21.293  0.00  0.00    +0.000 OA
ATOM      4  N   UNL     1       1.612   8.812  19.528  0.00  0.00    +0.000 N 
ATOM      5  C   UNL     1       1.771   9.122  18.202  0.00  0.00    +0.000 C 
ATOM      6  O   UNL     1       2.400   8.630  17.294  0.00  0.00    +0.000 OA
ATOM      7  C   UNL     1       1.008  10.430  18.365  0.00  0.00    +0.000 C 
ATOM      8  C   UNL     1       0.576   9.864  19.739  0.00  0.00    +0.000 C 
ENDROOT
BRANCH   1  10
ATOM      9  C   UNL     1       1.363   4.502  20.251  0.00  0.00    +0.000 C 
ATOM     10  O   UNL     1       2.399   5.434  20.567  0.00  0.00    +0.000 OA
ENDBRANCH   1  10
BRANCH   1  11
ATOM     11  C   UNL     1       3.731   6.705  19.104  0.00  0.00    +0.000 C 
BRANCH  11  12
ATOM     12  C   UNL     1       4.091   5.839  17.906  0.00  0.00    +0.000 A 
ATOM     13  C   UNL     1       4.856   6.401  16.866  0.00  0.00    +0.000 A 
ATOM     14  C   UNL     1       5.320   5.622  15.799  0.00  0.00    +0.000 A 
ATOM     15  C   UNL     1       5.027   4.264  15.753  0.00  0.00    +0.000 A 
ATOM     16  C   UNL     1       4.261   3.691  16.766  0.00  0.00    +0.000 A 
ATOM     17  C   UNL     1       3.801   4.470  17.833  0.00  0.00    +0.000 A 
ENDBRANCH  11  12
ENDBRANCH   1  11
BRANCH   8  18
ATOM     18  C   UNL     1       0.801  10.721  20.979  0.00  0.00    +0.000 C 
BRANCH  18  19
ATOM     19  C   UNL     1      -0.520  11.286  21.469  0.00  0.00    +0.000 A 
ATOM     20  C   UNL     1      -1.351  12.046  20.633  0.00  0.00    +0.000 A 
ATOM     21  C   UNL     1      -2.529  12.614  21.130  0.00  0.00    +0.000 A 
ATOM     22  C   UNL     1      -2.895  12.416  22.460  0.00  0.00    +0.000 A 
ATOM     23  C   UNL     1      -2.093  11.640  23.292  0.00  0.00    +0.000 A 
ATOM     24  C   UNL     1      -0.914  11.077  22.800  0.00  0.00    +0.000 A 
ENDBRANCH  18  19
ENDBRANCH   8  18
TORSDOF 5
ENDMDL
MODEL 8
REMARK VINA RESULT:      -6.7      1.457      7.398
REMARK  Name = 
REMARK  6 active torsions:
REMARK  status: ('A' for Active; 'I' for Inactive)
REMARK    1  A    between atoms: C_1  and  O_2
REMARK    2  A    between atoms: O_2  and  N_3
REMARK    3  A    between atoms: N_3  and  C_4
REMARK    4  A    between atoms: C_4  and  C_5
REMARK    5  A    between atoms: C_17  and  C_18
REMARK    6  A    between atoms: C_18  and  C_19
REMARK                            x       y       z     vdW  Elec       q    Type
REMARK                         _______ _______ _______ _____ _____    ______ ____
ROOT
ATOM      1  N   UNL     1       5.987   4.384  16.970  0.00  0.00    +0.000 N 
ATOM      2  C   UNL     1       5.208   5.503  17.321  0.00  0.00    +0.000 C 
ATOM      3  O   UNL     1       5.698   6.590  17.653  0.00  0.00    +0.000 OA
ATOM      4  N   UNL     1       3.835   5.324  17.431  0.00  0.00    +0.000 N 
ATOM      5  C   UNL     1       3.046   4.218  17.609  0.00  0.00    +0.000 C 
ATOM      6  O   UNL     1       3.164   3.047  17.328  0.00  0.00    +0.000 OA
ATOM      7  C   UNL     1       1.887   5.065  18.118  0.00  0.00    +0.000 C 
ATOM      8  C   UNL     1       2.928   6.206  18.221  0.00  0.00    +0.000 C 
ENDROOT
BRANCH   1  10
ATOM      9  C   UNL     1       8.078   4.542  18.049  0.00  0.00    +0.000 C 
ATOM     10  O   UNL     1       7.366   4.787  16.835  0.00  0.00    +0.000 OA
ENDBRANCH   1  10
BRANCH   1  11
ATOM     11  C   UNL     1       5.654   3.543  15.809  0.00  0.00    +0.000 C 
BRANCH  11  12
ATOM     12  C   UNL     1       6.187   4.001  14.460  0.00  0.00    +0.000 A 
ATOM     13  C   UNL     1       7.188   4.991  14.424  0.00  0.00    +0.000 A 
ATOM     14  C   UNL     1       7.802   5.364  13.222  0.00  0.00    +0.000 A 
ATOM     15  C   UNL     1       7.427   4.751  12.032  0.00  0.00    +0.000 A 
ATOM     16  C   UNL     1       6.431   3.778  12.044  0.00  0.00    +0.000 A 
ATOM     17  C   UNL     1       5.820   3.404  13.246  0.00  0.00    +0.000 A 
ENDBRANCH  11  12
ENDBRANCH   1  11
BRANCH   8  18
ATOM     18  C   UNL     1       2.612   7.537  17.550  0.00  0.00    +0.000 C 
BRANCH  18  19
ATOM     19  C   UNL     1       1.879   8.448  18.516  0.00  0.00    +0.000 A 
ATOM     20  C   UNL     1       1.331   9.672  18.104  0.00  0.00    +0.000 A 
ATOM     21  C   UNL     1       0.722  10.525  19.030  0.00  0.00    +0.000 A 
ATOM     22  C   UNL     1       0.640  10.158  20.372  0.00  0.00    +0.000 A 
ATOM     23  C   UNL     1       1.154   8.933  20.788  0.00  0.00    +0.000 A 
ATOM     24  C   UNL     1       1.768   8.083  19.867  0.00  0.00    +0.000 A 
ENDBRANCH  18  19
ENDBRANCH   8  18
TORSDOF 5
ENDMDL
MODEL 9
REMARK VINA RESULT:      -6.7      2.290      7.750
REMARK  Name = 
REMARK  6 active torsions:
REMARK  status: ('A' for Active; 'I' for Inactive)
REMARK    1  A    between atoms: C_1  and  O_2
REMARK    2  A    between atoms: O_2  and  N_3
REMARK    3  A    between atoms: N_3  and  C_4
REMARK    4  A    between atoms: C_4  and  C_5
REMARK    5  A    between atoms: C_17  and  C_18
REMARK    6  A    between atoms: C_18  and  C_19
REMARK                            x       y       z     vdW  Elec       q    Type
REMARK                         _______ _______ _______ _____ _____    ______ ____
ROOT
ATOM      1  N   UNL     1       3.213   5.227  19.444  0.00  0.00    +0.000 N 
ATOM      2  C   UNL     1       2.330   6.250  19.837  0.00  0.00    +0.000 C 
ATOM      3  O   UNL     1       1.397   6.069  20.631  0.00  0.00    +0.000 OA
ATOM      4  N   UNL     1       2.433   7.475  19.191  0.00  0.00    +0.000 N 
ATOM      5  C   UNL     1       2.982   7.860  17.995  0.00  0.00    +0.000 C 
ATOM      6  O   UNL     1       3.882   7.435  17.308  0.00  0.00    +0.000 OA
ATOM      7  C   UNL     1       2.153   9.137  17.969  0.00  0.00    +0.000 C 
ATOM      8  C   UNL     1       1.340   8.487  19.114  0.00  0.00    +0.000 C 
ENDROOT
BRANCH   1  10
ATOM      9  C   UNL     1       2.379   3.022  19.522  0.00  0.00    +0.000 C 
ATOM     10  O   UNL     1       2.999   4.067  20.275  0.00  0.00    +0.000 OA
ENDBRANCH   1  10
BRANCH   1  11
ATOM     11  C   UNL     1       4.665   5.449  19.357  0.00  0.00    +0.000 C 
BRANCH  11  12
ATOM     12  C   UNL     1       5.369   4.890  18.130  0.00  0.00    +0.000 A 
ATOM     13  C   UNL     1       4.590   4.389  17.068  0.00  0.00    +0.000 A 
ATOM     14  C   UNL     1       5.176   3.975  15.866  0.00  0.00    +0.000 A 
ATOM     15  C   UNL     1       6.554   4.057  15.702  0.00  0.00    +0.000 A 
ATOM     16  C   UNL     1       7.344   4.538  16.743  0.00  0.00    +0.000 A 
ATOM     17  C   UNL     1       6.756   4.954  17.943  0.00  0.00    +0.000 A 
ENDBRANCH  11  12
ENDBRANCH   1  11
BRANCH   8  18
ATOM     18  C   UNL     1       1.133   9.280  20.398  0.00  0.00    +0.000 C 
BRANCH  18  19
ATOM     19  C   UNL     1       0.043  10.316  20.201  0.00  0.00    +0.000 A 
ATOM     20  C   UNL     1      -0.148  11.366  21.111  0.00  0.00    +0.000 A 
ATOM     21  C   UNL     1      -1.205  12.267  20.944  0.00  0.00    +0.000 A 
ATOM     22  C   UNL     1      -2.071  12.138  19.860  0.00  0.00    +0.000 A 
ATOM     23  C   UNL     1      -1.875  11.117  18.934  0.00  0.00    +0.000 A 
ATOM     24  C   UNL     1      -0.824  10.213  19.102  0.00  0.00    +0.000 A 
ENDBRANCH  18  19
ENDBRANCH   8  18
TORSDOF 5
ENDMDL
