MODEL 1
REMARK VINA RESULT:      -7.6      0.000      0.000
REMARK  Name = 
REMARK  7 active torsions:
REMARK  status: ('A' for Active; 'I' for Inactive)
REMARK    1  A    between atoms: C_1  and  C_2
REMARK    2  A    between atoms: N_10  and  C_11
REMARK    3  A    between atoms: C_11  and  C_12
REMARK    4  A    between atoms: C_12  and  C_13
REMARK    5  A    between atoms: C_13  and  N_14
REMARK    6  A    between atoms: C_15  and  C_17
REMARK    7  A    between atoms: N_20  and  C_21
REMARK                            x       y       z     vdW  Elec       q    Type
REMARK                         _______ _______ _______ _____ _____    ______ ____
ROOT
ATOM      1  C   UNL     1       4.353   7.105  17.353  0.00  0.00    +0.000 C 
ENDROOT
BRANCH   1   2
ATOM      2  C   UNL     1       2.849   6.937  17.562  0.00  0.00    +0.000 C 
BRANCH   2  12
ATOM      3  C   UNL     1       1.289   2.575  21.660  0.00  0.00    +0.000 C 
ATOM      4  C   UNL     1       1.649   3.007  20.267  0.00  0.00    +0.000 A 
ATOM      5  C   UNL     1       1.704   2.057  19.229  0.00  0.00    +0.000 A 
ATOM      6  C   UNL     1       2.034   2.424  17.926  0.00  0.00    +0.000 A 
ATOM      7  C   UNL     1       2.324   3.752  17.598  0.00  0.00    +0.000 A 
ATOM      8  C   UNL     1       2.275   4.701  18.628  0.00  0.00    +0.000 A 
ATOM      9  C   UNL     1       1.944   4.350  19.939  0.00  0.00    +0.000 A 
ATOM     10  C   UNL     1       1.995   5.570  20.651  0.00  0.00    +0.000 A 
ATOM     11  N   UNL     1       2.332   6.607  19.888  0.00  0.00    +0.000 NA
ATOM     12  N   UNL     1       2.497   6.061  18.664  0.00  0.00    +0.000 N 
ENDBRANCH   2  12
ENDBRANCH   1   2
BRANCH   1  13
ATOM     13  C   UNL     1       5.129   5.795  17.413  0.00  0.00    +0.000 C 
BRANCH  13  14
ATOM     14  N   UNL     1       5.308   5.256  16.077  0.00  0.00    +0.000 N 
ATOM     15  C   UNL     1       6.513   5.368  15.416  0.00  0.00    +0.000 C 
ATOM     16  O   UNL     1       7.468   5.968  15.894  0.00  0.00    +0.000 OA
ATOM     17  H   UNL     1       4.594   4.639  15.719  0.00  0.00    +0.000 HD
BRANCH  15  18
ATOM     18  C   UNL     1       6.584   4.724  14.116  0.00  0.00    +0.000 A 
ATOM     19  C   UNL     1       7.477   4.878  13.030  0.00  0.00    +0.000 A 
ATOM     20  N   UNL     1       7.193   4.070  12.001  0.00  0.00    +0.000 NA
ATOM     21  N   UNL     1       6.118   3.386  12.427  0.00  0.00    +0.000 N 
ATOM     22  C   UNL     1       5.513   2.377  11.592  0.00  0.00    +0.000 C 
ATOM     23  C   UNL     1       5.711   3.745  13.675  0.00  0.00    +0.000 A 
ENDBRANCH  15  18
ENDBRANCH  13  14
ENDBRANCH   1  13
TORSDOF 5
ENDMDL
MODEL 2
REMARK VINA RESULT:      -7.4      1.233      1.461
REMARK  Name = 
REMARK  7 active torsions:
REMARK  status: ('A' for Active; 'I' for Inactive)
REMARK    1  A    between atoms: C_1  and  C_2
REMARK    2  A    between atoms: N_10  and  C_11
REMARK    3  A    between atoms: C_11  and  C_12
REMARK    4  A    between atoms: C_12  and  C_13
REMARK    5  A    between atoms: C_13  and  N_14
REMARK    6  A    between atoms: C_15  and  C_17
REMARK    7  A    between atoms: N_20  and  C_21
REMARK                            x       y       z     vdW  Elec       q    Type
REMARK                         _______ _______ _______ _____ _____    ______ ____
ROOT
ATOM      1  C   UNL     1       5.979   6.392  17.107  0.00  0.00    +0.000 C 
ENDROOT
BRANCH   1   2
ATOM      2  C   UNL     1       4.492   6.216  16.799  0.00  0.00    +0.000 C 
BRANCH   2  12
ATOM      3  C   UNL     1       1.128   3.190  21.015  0.00  0.00    +0.000 C 
ATOM      4  C   UNL     1       1.875   3.239  19.713  0.00  0.00    +0.000 A 
ATOM      5  C   UNL     1       1.945   2.093  18.900  0.00  0.00    +0.000 A 
ATOM      6  C   UNL     1       2.629   2.105  17.685  0.00  0.00    +0.000 A 
ATOM      7  C   UNL     1       3.274   3.258  17.227  0.00  0.00    +0.000 A 
ATOM      8  C   UNL     1       3.211   4.400  18.036  0.00  0.00    +0.000 A 
ATOM      9  C   UNL     1       2.528   4.406  19.254  0.00  0.00    +0.000 A 
ATOM     10  C   UNL     1       2.691   5.723  19.741  0.00  0.00    +0.000 A 
ATOM     11  N   UNL     1       3.412   6.494  18.931  0.00  0.00    +0.000 NA
ATOM     12  N   UNL     1       3.718   5.675  17.901  0.00  0.00    +0.000 N 
ENDBRANCH   2  12
ENDBRANCH   1   2
BRANCH   1  13
ATOM     13  C   UNL     1       6.830   5.189  16.717  0.00  0.00    +0.000 C 
BRANCH  13  14
ATOM     14  N   UNL     1       6.291   4.559  15.525  0.00  0.00    +0.000 N 
ATOM     15  C   UNL     1       6.903   4.709  14.298  0.00  0.00    +0.000 C 
ATOM     16  O   UNL     1       7.888   5.418  14.140  0.00  0.00    +0.000 OA
ATOM     17  H   UNL     1       5.572   3.860  15.646  0.00  0.00    +0.000 HD
BRANCH  15  18
ATOM     18  C   UNL     1       6.306   3.969  13.200  0.00  0.00    +0.000 A 
ATOM     19  C   UNL     1       6.837   3.010  12.304  0.00  0.00    +0.000 A 
ATOM     20  N   UNL     1       5.933   2.553  11.430  0.00  0.00    +0.000 NA
ATOM     21  N   UNL     1       4.812   3.214  11.766  0.00  0.00    +0.000 N 
ATOM     22  C   UNL     1       3.579   2.975  11.055  0.00  0.00    +0.000 C 
ATOM     23  C   UNL     1       4.984   4.074  12.806  0.00  0.00    +0.000 A 
ENDBRANCH  15  18
ENDBRANCH  13  14
ENDBRANCH   1  13
TORSDOF 5
ENDMDL
MODEL 3
REMARK VINA RESULT:      -7.3      1.209      2.111
REMARK  Name = 
REMARK  7 active torsions:
REMARK  status: ('A' for Active; 'I' for Inactive)
REMARK    1  A    between atoms: C_1  and  C_2
REMARK    2  A    between atoms: N_10  and  C_11
REMARK    3  A    between atoms: C_11  and  C_12
REMARK    4  A    between atoms: C_12  and  C_13
REMARK    5  A    between atoms: C_13  and  N_14
REMARK    6  A    between atoms: C_15  and  C_17
REMARK    7  A    between atoms: N_20  and  C_21
REMARK                            x       y       z     vdW  Elec       q    Type
REMARK                         _______ _______ _______ _____ _____    ______ ____
ROOT
ATOM      1  C   UNL     1       6.032   6.101  18.191  0.00  0.00    +0.000 C 
ENDROOT
BRANCH   1   2
ATOM      2  C   UNL     1       4.725   6.282  17.420  0.00  0.00    +0.000 C 
BRANCH   2  12
ATOM      3  C   UNL     1       0.462   2.138  19.124  0.00  0.00    +0.000 C 
ATOM      4  C   UNL     1       1.241   3.400  19.359  0.00  0.00    +0.000 A 
ATOM      5  C   UNL     1       1.018   4.157  20.524  0.00  0.00    +0.000 A 
ATOM      6  C   UNL     1       1.725   5.332  20.774  0.00  0.00    +0.000 A 
ATOM      7  C   UNL     1       2.686   5.805  19.876  0.00  0.00    +0.000 A 
ATOM      8  C   UNL     1       2.909   5.057  18.712  0.00  0.00    +0.000 A 
ATOM      9  C   UNL     1       2.211   3.877  18.448  0.00  0.00    +0.000 A 
ATOM     10  C   UNL     1       2.728   3.434  17.209  0.00  0.00    +0.000 A 
ATOM     11  N   UNL     1       3.660   4.244  16.712  0.00  0.00    +0.000 NA
ATOM     12  N   UNL     1       3.757   5.223  17.638  0.00  0.00    +0.000 N 
ENDBRANCH   2  12
ENDBRANCH   1   2
BRANCH   1  13
ATOM     13  C   UNL     1       6.740   4.785  17.894  0.00  0.00    +0.000 C 
BRANCH  13  14
ATOM     14  N   UNL     1       6.580   4.434  16.495  0.00  0.00    +0.000 N 
ATOM     15  C   UNL     1       7.183   5.174  15.499  0.00  0.00    +0.000 C 
ATOM     16  O   UNL     1       7.831   6.186  15.735  0.00  0.00    +0.000 OA
ATOM     17  H   UNL     1       6.176   3.534  16.278  0.00  0.00    +0.000 HD
BRANCH  15  18
ATOM     18  C   UNL     1       7.005   4.676  14.146  0.00  0.00    +0.000 A 
ATOM     19  C   UNL     1       7.652   4.990  12.927  0.00  0.00    +0.000 A 
ATOM     20  N   UNL     1       7.188   4.282  11.891  0.00  0.00    +0.000 NA
ATOM     21  N   UNL     1       6.243   3.503  12.442  0.00  0.00    +0.000 N 
ATOM     22  C   UNL     1       5.509   2.557  11.635  0.00  0.00    +0.000 C 
ATOM     23  C   UNL     1       6.089   3.705  13.779  0.00  0.00    +0.000 A 
ENDBRANCH  15  18
ENDBRANCH  13  14
ENDBRANCH   1  13
TORSDOF 5
ENDMDL
MODEL 4
REMARK VINA RESULT:      -7.3      3.109      6.772
REMARK  Name = 
REMARK  7 active torsions:
REMARK  status: ('A' for Active; 'I' for Inactive)
REMARK    1  A    between atoms: C_1  and  C_2
REMARK    2  A    between atoms: N_10  and  C_11
REMARK    3  A    between atoms: C_11  and  C_12
REMARK    4  A    between atoms: C_12  and  C_13
REMARK    5  A    between atoms: C_13  and  N_14
REMARK    6  A    between atoms: C_15  and  C_17
REMARK    7  A    between atoms: N_20  and  C_21
REMARK                            x       y       z     vdW  Elec       q    Type
REMARK                         _______ _______ _______ _____ _____    ______ ____
ROOT
ATOM      1  C   UNL     1       2.862   1.905  19.073  0.00  0.00    +0.000 C 
ENDROOT
BRANCH   1   2
ATOM      2  C   UNL     1       3.440   2.515  17.796  0.00  0.00    +0.000 C 
BRANCH   2  12
ATOM      3  C   UNL     1       7.778   6.921  17.929  0.00  0.00    +0.000 C 
ATOM      4  C   UNL     1       6.876   5.982  17.181  0.00  0.00    +0.000 A 
ATOM      5  C   UNL     1       6.904   5.952  15.774  0.00  0.00    +0.000 A 
ATOM      6  C   UNL     1       6.081   5.091  15.049  0.00  0.00    +0.000 A 
ATOM      7  C   UNL     1       5.194   4.223  15.693  0.00  0.00    +0.000 A 
ATOM      8  C   UNL     1       5.160   4.251  17.093  0.00  0.00    +0.000 A 
ATOM      9  C   UNL     1       5.979   5.105  17.834  0.00  0.00    +0.000 A 
ATOM     10  C   UNL     1       5.654   4.823  19.181  0.00  0.00    +0.000 A 
ATOM     11  N   UNL     1       4.714   3.889  19.306  0.00  0.00    +0.000 NA
ATOM     12  N   UNL     1       4.427   3.553  18.029  0.00  0.00    +0.000 N 
ENDBRANCH   2  12
ENDBRANCH   1   2
BRANCH   1  13
ATOM     13  C   UNL     1       1.490   2.453  19.446  0.00  0.00    +0.000 C 
BRANCH  13  14
ATOM     14  N   UNL     1       1.469   3.897  19.298  0.00  0.00    +0.000 N 
ATOM     15  C   UNL     1       1.810   4.728  20.344  0.00  0.00    +0.000 C 
ATOM     16  O   UNL     1       2.091   4.299  21.457  0.00  0.00    +0.000 OA
ATOM     17  H   UNL     1       1.382   4.274  18.365  0.00  0.00    +0.000 HD
BRANCH  15  18
ATOM     18  C   UNL     1       1.819   6.150  20.046  0.00  0.00    +0.000 A 
ATOM     19  C   UNL     1       1.492   7.284  20.826  0.00  0.00    +0.000 A 
ATOM     20  N   UNL     1       1.651   8.437  20.165  0.00  0.00    +0.000 NA
ATOM     21  N   UNL     1       2.087   8.047  18.956  0.00  0.00    +0.000 N 
ATOM     22  C   UNL     1       2.401   9.022  17.940  0.00  0.00    +0.000 C 
ATOM     23  C   UNL     1       2.195   6.696  18.832  0.00  0.00    +0.000 A 
ENDBRANCH  15  18
ENDBRANCH  13  14
ENDBRANCH   1  13
TORSDOF 5
ENDMDL
MODEL 5
REMARK VINA RESULT:      -7.3      1.531      2.993
REMARK  Name = 
REMARK  7 active torsions:
REMARK  status: ('A' for Active; 'I' for Inactive)
REMARK    1  A    between atoms: C_1  and  C_2
REMARK    2  A    between atoms: N_10  and  C_11
REMARK    3  A    between atoms: C_11  and  C_12
REMARK    4  A    between atoms: C_12  and  C_13
REMARK    5  A    between atoms: C_13  and  N_14
REMARK    6  A    between atoms: C_15  and  C_17
REMARK    7  A    between atoms: N_20  and  C_21
REMARK                            x       y       z     vdW  Elec       q    Type
REMARK                         _______ _______ _______ _____ _____    ______ ____
ROOT
ATOM      1  C   UNL     1       5.096   3.600  18.837  0.00  0.00    +0.000 C 
ENDROOT
BRANCH   1   2
ATOM      2  C   UNL     1       3.631   3.785  18.444  0.00  0.00    +0.000 C 
BRANCH   2  12
ATOM      3  C   UNL     1       0.834   8.521  21.272  0.00  0.00    +0.000 C 
ATOM      4  C   UNL     1       1.586   7.938  20.110  0.00  0.00    +0.000 A 
ATOM      5  C   UNL     1       1.914   8.749  19.007  0.00  0.00    +0.000 A 
ATOM      6  C   UNL     1       2.613   8.240  17.914  0.00  0.00    +0.000 A 
ATOM      7  C   UNL     1       3.016   6.901  17.870  0.00  0.00    +0.000 A 
ATOM      8  C   UNL     1       2.688   6.089  18.964  0.00  0.00    +0.000 A 
ATOM      9  C   UNL     1       1.991   6.584  20.068  0.00  0.00    +0.000 A 
ATOM     10  C   UNL     1       1.875   5.474  20.936  0.00  0.00    +0.000 A 
ATOM     11  N   UNL     1       2.431   4.368  20.446  0.00  0.00    +0.000 NA
ATOM     12  N   UNL     1       2.920   4.760  19.250  0.00  0.00    +0.000 N 
ENDBRANCH   2  12
ENDBRANCH   1   2
BRANCH   1  13
ATOM     13  C   UNL     1       6.043   4.574  18.146  0.00  0.00    +0.000 C 
BRANCH  13  14
ATOM     14  N   UNL     1       6.082   4.307  16.719  0.00  0.00    +0.000 N 
ATOM     15  C   UNL     1       6.830   5.091  15.866  0.00  0.00    +0.000 C 
ATOM     16  O   UNL     1       7.448   6.075  16.253  0.00  0.00    +0.000 OA
ATOM     17  H   UNL     1       5.704   3.430  16.394  0.00  0.00    +0.000 HD
BRANCH  15  18
ATOM     18  C   UNL     1       6.843   4.676  14.474  0.00  0.00    +0.000 A 
ATOM     19  C   UNL     1       7.645   5.066  13.376  0.00  0.00    +0.000 A 
ATOM     20  N   UNL     1       7.335   4.420  12.246  0.00  0.00    +0.000 NA
ATOM     21  N   UNL     1       6.334   3.605  12.615  0.00  0.00    +0.000 N 
ATOM     22  C   UNL     1       5.728   2.707  11.662  0.00  0.00    +0.000 C 
ATOM     23  C   UNL     1       5.998   3.726  13.929  0.00  0.00    +0.000 A 
ENDBRANCH  15  18
ENDBRANCH  13  14
ENDBRANCH   1  13
TORSDOF 5
ENDMDL
MODEL 6
REMARK VINA RESULT:      -7.2      1.925      3.275
REMARK  Name = 
REMARK  7 active torsions:
REMARK  status: ('A' for Active; 'I' for Inactive)
REMARK    1  A    between atoms: C_1  and  C_2
REMARK    2  A    between atoms: N_10  and  C_11
REMARK    3  A    between atoms: C_11  and  C_12
REMARK    4  A    between atoms: C_12  and  C_13
REMARK    5  A    between atoms: C_13  and  N_14
REMARK    6  A    between atoms: C_15  and  C_17
REMARK    7  A    between atoms: N_20  and  C_21
REMARK                            x       y       z     vdW  Elec       q    Type
REMARK                         _______ _______ _______ _____ _____    ______ ____
ROOT
ATOM      1  C   UNL     1       5.448   5.540  18.229  0.00  0.00    +0.000 C 
ENDROOT
BRANCH   1   2
ATOM      2  C   UNL     1       3.961   5.341  17.938  0.00  0.00    +0.000 C 
BRANCH   2  12
ATOM      3  C   UNL     1       0.277   8.931  21.371  0.00  0.00    +0.000 C 
ATOM      4  C   UNL     1       1.100   8.683  20.139  0.00  0.00    +0.000 A 
ATOM      5  C   UNL     1       1.200   9.678  19.149  0.00  0.00    +0.000 A 
ATOM      6  C   UNL     1       1.957   9.481  17.996  0.00  0.00    +0.000 A 
ATOM      7  C   UNL     1       2.646   8.285  17.776  0.00  0.00    +0.000 A 
ATOM      8  C   UNL     1       2.546   7.289  18.757  0.00  0.00    +0.000 A 
ATOM      9  C   UNL     1       1.795   7.472  19.920  0.00  0.00    +0.000 A 
ATOM     10  C   UNL     1       1.959   6.265  20.637  0.00  0.00    +0.000 A 
ATOM     11  N   UNL     1       2.730   5.383  20.005  0.00  0.00    +0.000 NA
ATOM     12  N   UNL     1       3.078   6.022  18.867  0.00  0.00    +0.000 N 
ENDBRANCH   2  12
ENDBRANCH   1   2
BRANCH   1  13
ATOM     13  C   UNL     1       6.125   6.539  17.299  0.00  0.00    +0.000 C 
BRANCH  13  14
ATOM     14  N   UNL     1       6.131   6.034  15.938  0.00  0.00    +0.000 N 
ATOM     15  C   UNL     1       7.018   5.054  15.544  0.00  0.00    +0.000 C 
ATOM     16  O   UNL     1       7.873   4.603  16.296  0.00  0.00    +0.000 OA
ATOM     17  H   UNL     1       5.355   6.278  15.341  0.00  0.00    +0.000 HD
BRANCH  15  18
ATOM     18  C   UNL     1       6.874   4.583  14.177  0.00  0.00    +0.000 A 
ATOM     19  C   UNL     1       7.564   4.907  12.986  0.00  0.00    +0.000 A 
ATOM     20  N   UNL     1       7.121   4.226  11.923  0.00  0.00    +0.000 NA
ATOM     21  N   UNL     1       6.145   3.454  12.430  0.00  0.00    +0.000 N 
ATOM     22  C   UNL     1       5.421   2.536  11.584  0.00  0.00    +0.000 C 
ATOM     23  C   UNL     1       5.953   3.636  13.765  0.00  0.00    +0.000 A 
ENDBRANCH  15  18
ENDBRANCH  13  14
ENDBRANCH   1  13
TORSDOF 5
ENDMDL
MODEL 7
REMARK VINA RESULT:      -7.2      2.176      4.195
REMARK  Name = 
REMARK  7 active torsions:
REMARK  status: ('A' for Active; 'I' for Inactive)
REMARK    1  A    between atoms: C_1  and  C_2
REMARK    2  A    between atoms: N_10  and  C_11
REMARK    3  A    between atoms: C_11  and  C_12
REMARK    4  A    between atoms: C_12  and  C_13
REMARK    5  A    between atoms: C_13  and  N_14
REMARK    6  A    between atoms: C_15  and  C_17
REMARK    7  A    between atoms: N_20  and  C_21
REMARK                            x       y       z     vdW  Elec       q    Type
REMARK                         _______ _______ _______ _____ _____    ______ ____
ROOT
ATOM      1  C   UNL     1       3.049   1.533  19.310  0.00  0.00    +0.000 C 
ENDROOT
BRANCH   1   2
ATOM      2  C   UNL     1       1.789   2.397  19.261  0.00  0.00    +0.000 C 
BRANCH   2  12
ATOM      3  C   UNL     1       2.476   8.337  17.681  0.00  0.00    +0.000 C 
ATOM      4  C   UNL     1       2.218   7.266  18.702  0.00  0.00    +0.000 A 
ATOM      5  C   UNL     1       1.988   7.616  20.045  0.00  0.00    +0.000 A 
ATOM      6  C   UNL     1       1.743   6.648  21.017  0.00  0.00    +0.000 A 
ATOM      7  C   UNL     1       1.718   5.287  20.695  0.00  0.00    +0.000 A 
ATOM      8  C   UNL     1       1.951   4.933  19.360  0.00  0.00    +0.000 A 
ATOM      9  C   UNL     1       2.195   5.891  18.373  0.00  0.00    +0.000 A 
ATOM     10  C   UNL     1       2.363   5.139  17.188  0.00  0.00    +0.000 A 
ATOM     11  N   UNL     1       2.251   3.826  17.382  0.00  0.00    +0.000 NA
ATOM     12  N   UNL     1       1.999   3.720  18.705  0.00  0.00    +0.000 N 
ENDBRANCH   2  12
ENDBRANCH   1   2
BRANCH   1  13
ATOM     13  C   UNL     1       4.297   2.296  19.737  0.00  0.00    +0.000 C 
BRANCH  13  14
ATOM     14  N   UNL     1       4.893   2.962  18.593  0.00  0.00    +0.000 N 
ATOM     15  C   UNL     1       5.596   4.140  18.738  0.00  0.00    +0.000 C 
ATOM     16  O   UNL     1       5.706   4.708  19.817  0.00  0.00    +0.000 OA
ATOM     17  H   UNL     1       4.942   2.451  17.724  0.00  0.00    +0.000 HD
BRANCH  15  18
ATOM     18  C   UNL     1       6.205   4.666  17.528  0.00  0.00    +0.000 A 
ATOM     19  C   UNL     1       7.072   5.760  17.302  0.00  0.00    +0.000 A 
ATOM     20  N   UNL     1       7.416   5.898  16.016  0.00  0.00    +0.000 NA
ATOM     21  N   UNL     1       6.774   4.886  15.410  0.00  0.00    +0.000 N 
ATOM     22  C   UNL     1       6.913   4.676  13.989  0.00  0.00    +0.000 C 
ATOM     23  C   UNL     1       6.033   4.129  16.264  0.00  0.00    +0.000 A 
ENDBRANCH  15  18
ENDBRANCH  13  14
ENDBRANCH   1  13
TORSDOF 5
ENDMDL
MODEL 8
REMARK VINA RESULT:      -7.2      4.251      5.939
REMARK  Name = 
REMARK  7 active torsions:
REMARK  status: ('A' for Active; 'I' for Inactive)
REMARK    1  A    between atoms: C_1  and  C_2
REMARK    2  A    between atoms: N_10  and  C_11
REMARK    3  A    between atoms: C_11  and  C_12
REMARK    4  A    between atoms: C_12  and  C_13
REMARK    5  A    between atoms: C_13  and  N_14
REMARK    6  A    between atoms: C_15  and  C_17
REMARK    7  A    between atoms: N_20  and  C_21
REMARK                            x       y       z     vdW  Elec       q    Type
REMARK                         _______ _______ _______ _____ _____    ______ ____
ROOT
ATOM      1  C   UNL     1       6.670   5.815  19.105  0.00  0.00    +0.000 C 
ENDROOT
BRANCH   1   2
ATOM      2  C   UNL     1       5.977   4.681  18.350  0.00  0.00    +0.000 C 
BRANCH   2  12
ATOM      3  C   UNL     1       1.165   2.604  21.632  0.00  0.00    +0.000 C 
ATOM      4  C   UNL     1       1.878   3.694  20.884  0.00  0.00    +0.000 A 
ATOM      5  C   UNL     1       1.296   4.971  20.779  0.00  0.00    +0.000 A 
ATOM      6  C   UNL     1       1.931   6.004  20.093  0.00  0.00    +0.000 A 
ATOM      7  C   UNL     1       3.174   5.812  19.481  0.00  0.00    +0.000 A 
ATOM      8  C   UNL     1       3.755   4.541  19.579  0.00  0.00    +0.000 A 
ATOM      9  C   UNL     1       3.133   3.496  20.265  0.00  0.00    +0.000 A 
ATOM     10  C   UNL     1       4.032   2.412  20.142  0.00  0.00    +0.000 A 
ATOM     11  N   UNL     1       5.123   2.715  19.441  0.00  0.00    +0.000 NA
ATOM     12  N   UNL     1       4.938   4.011  19.109  0.00  0.00    +0.000 N 
ENDBRANCH   2  12
ENDBRANCH   1   2
BRANCH   1  13
ATOM     13  C   UNL     1       8.137   5.991  18.732  0.00  0.00    +0.000 C 
BRANCH  13  14
ATOM     14  N   UNL     1       8.551   7.364  18.959  0.00  0.00    +0.000 N 
ATOM     15  C   UNL     1       8.241   8.363  18.060  0.00  0.00    +0.000 C 
ATOM     16  O   UNL     1       7.654   8.138  17.008  0.00  0.00    +0.000 OA
ATOM     17  H   UNL     1       8.906   7.603  19.873  0.00  0.00    +0.000 HD
BRANCH  15  18
ATOM     18  C   UNL     1       8.649   9.704  18.439  0.00  0.00    +0.000 A 
ATOM     19  C   UNL     1       9.293  10.208  19.594  0.00  0.00    +0.000 A 
ATOM     20  N   UNL     1       9.503  11.528  19.542  0.00  0.00    +0.000 NA
ATOM     21  N   UNL     1       9.000  11.878  18.347  0.00  0.00    +0.000 N 
ATOM     22  C   UNL     1       9.058  13.249  17.899  0.00  0.00    +0.000 C 
ATOM     23  C   UNL     1       8.472  10.831  17.656  0.00  0.00    +0.000 A 
ENDBRANCH  15  18
ENDBRANCH  13  14
ENDBRANCH   1  13
TORSDOF 5
ENDMDL
MODEL 9
REMARK VINA RESULT:      -7.1      4.479      8.192
REMARK  Name = 
REMARK  7 active torsions:
REMARK  status: ('A' for Active; 'I' for Inactive)
REMARK    1  A    between atoms: C_1  and  C_2
REMARK    2  A    between atoms: N_10  and  C_11
REMARK    3  A    between atoms: C_11  and  C_12
REMARK    4  A    between atoms: C_12  and  C_13
REMARK    5  A    between atoms: C_13  and  N_14
REMARK    6  A    between atoms: C_15  and  C_17
REMARK    7  A    between atoms: N_20  and  C_21
REMARK                            x       y       z     vdW  Elec       q    Type
REMARK                         _______ _______ _______ _____ _____    ______ ____
ROOT
ATOM      1  C   UNL     1       2.756   8.420  17.996  0.00  0.00    +0.000 C 
ENDROOT
BRANCH   1   2
ATOM      2  C   UNL     1       2.595   6.952  17.603  0.00  0.00    +0.000 C 
BRANCH   2  12
ATOM      3  C   UNL     1       1.407   2.538  21.768  0.00  0.00    +0.000 C 
ATOM      4  C   UNL     1       1.696   2.980  20.362  0.00  0.00    +0.000 A 
ATOM      5  C   UNL     1       1.762   2.029  19.326  0.00  0.00    +0.000 A 
ATOM      6  C   UNL     1       2.026   2.406  18.011  0.00  0.00    +0.000 A 
ATOM      7  C   UNL     1       2.236   3.745  17.668  0.00  0.00    +0.000 A 
ATOM      8  C   UNL     1       2.175   4.695  18.696  0.00  0.00    +0.000 A 
ATOM      9  C   UNL     1       1.909   4.335  20.019  0.00  0.00    +0.000 A 
ATOM     10  C   UNL     1       1.923   5.559  20.725  0.00  0.00    +0.000 A 
ATOM     11  N   UNL     1       2.179   6.608  19.947  0.00  0.00    +0.000 NA
ATOM     12  N   UNL     1       2.329   6.065  18.720  0.00  0.00    +0.000 N 
ENDBRANCH   2  12
ENDBRANCH   1   2
BRANCH   1  13
ATOM     13  C   UNL     1       1.464   9.223  17.902  0.00  0.00    +0.000 C 
BRANCH  13  14
ATOM     14  N   UNL     1       1.097   9.737  19.209  0.00  0.00    +0.000 N 
ATOM     15  C   UNL     1      -0.181  10.186  19.468  0.00  0.00    +0.000 C 
ATOM     16  O   UNL     1      -1.048  10.226  18.604  0.00  0.00    +0.000 OA
ATOM     17  H   UNL     1       1.740   9.586  19.973  0.00  0.00    +0.000 HD
BRANCH  15  18
ATOM     18  C   UNL     1      -0.439  10.607  20.834  0.00  0.00    +0.000 A 
ATOM     19  C   UNL     1       0.068  10.158  22.076  0.00  0.00    +0.000 A 
ATOM     20  N   UNL     1      -0.428  10.834  23.119  0.00  0.00    +0.000 NA
ATOM     21  N   UNL     1      -1.255  11.726  22.549  0.00  0.00    +0.000 N 
ATOM     22  C   UNL     1      -1.979  12.676  23.359  0.00  0.00    +0.000 C 
ATOM     23  C   UNL     1      -1.303  11.626  21.193  0.00  0.00    +0.000 A 
ENDBRANCH  15  18
ENDBRANCH  13  14
ENDBRANCH   1  13
TORSDOF 5
ENDMDL
