MODEL 1
REMARK VINA RESULT:      -9.6      0.000      0.000
REMARK  Name = 
REMARK  8 active torsions:
REMARK  status: ('A' for Active; 'I' for Inactive)
REMARK    1  A    between atoms: C_1  and  C_2
REMARK    2  A    between atoms: C_4  and  C_5
REMARK    3  A    between atoms: C_8  and  N_9
REMARK    4  A    between atoms: N_9  and  C_10
REMARK    5  A    between atoms: C_10  and  C_11
REMARK    6  A    between atoms: C_17  and  C_19
REMARK    7  A    between atoms: C_22  and  O_23
REMARK    8  A    between atoms: C_25  and  O_26
REMARK                            x       y       z     vdW  Elec       q    Type
REMARK                         _______ _______ _______ _____ _____    ______ ____
ROOT
ATOM      1  N   UNL     1      -0.470  10.923  18.959  0.00  0.00    +0.000 N 
ATOM      2  C   UNL     1      -0.321  12.309  19.248  0.00  0.00    +0.000 C 
ATOM      3  O   UNL     1      -1.325  13.024  19.310  0.00  0.00    +0.000 OA
ENDROOT
BRANCH   1   7
ATOM      4  C   UNL     1       2.259   7.702  19.066  0.00  0.00    +0.000 A 
ATOM      5  C   UNL     1       2.098   8.480  17.895  0.00  0.00    +0.000 A 
ATOM      6  C   UNL     1       1.269   9.608  17.856  0.00  0.00    +0.000 A 
ATOM      7  C   UNL     1       0.592   9.993  19.007  0.00  0.00    +0.000 A 
ATOM      8  C   UNL     1       0.848   9.332  20.216  0.00  0.00    +0.000 A 
ATOM      9  C   UNL     1       1.664   8.195  20.239  0.00  0.00    +0.000 A 
BRANCH   4  13
ATOM     10  C   UNL     1       6.186   5.647  17.301  0.00  0.00    +0.000 C 
ATOM     11  C   UNL     1       4.994   5.529  18.192  0.00  0.00    +0.000 A 
ATOM     12  N   UNL     1       4.179   6.584  18.284  0.00  0.00    +0.000 NA
ATOM     13  C   UNL     1       3.054   6.447  19.026  0.00  0.00    +0.000 A 
ATOM     14  C   UNL     1       2.711   5.222  19.651  0.00  0.00    +0.000 A 
ATOM     15  C   UNL     1       1.501   4.917  20.341  0.00  0.00    +0.000 A 
ATOM     16  C   UNL     1       1.306   3.677  20.953  0.00  0.00    +0.000 A 
ATOM     17  C   UNL     1       2.304   2.720  20.881  0.00  0.00    +0.000 A 
ATOM     18  C   UNL     1       3.471   2.997  20.166  0.00  0.00    +0.000 A 
ATOM     19  C   UNL     1       3.685   4.219  19.535  0.00  0.00    +0.000 A 
ATOM     20  N   UNL     1       4.805   4.359  18.818  0.00  0.00    +0.000 NA
ENDBRANCH   4  13
ENDBRANCH   1   7
BRANCH   2  21
ATOM     21  C   UNL     1       1.038  12.959  19.442  0.00  0.00    +0.000 A 
ATOM     22  C   UNL     1       1.859  13.306  18.359  0.00  0.00    +0.000 A 
ATOM     23  C   UNL     1       3.155  13.804  18.523  0.00  0.00    +0.000 A 
ATOM     24  C   UNL     1       3.609  14.084  19.799  0.00  0.00    +0.000 A 
ATOM     25  C   UNL     1       2.778  13.891  20.894  0.00  0.00    +0.000 A 
ATOM     26  C   UNL     1       1.508  13.319  20.719  0.00  0.00    +0.000 A 
BRANCH  24  27
ATOM     27  O   UNL     1       4.862  14.568  20.012  0.00  0.00    +0.000 OA
ATOM     28  H   UNL     1       5.300  14.021  20.688  0.00  0.00    +0.000 HD
ENDBRANCH  24  27
BRANCH  26  29
ATOM     29  O   UNL     1       0.750  13.116  21.839  0.00  0.00    +0.000 OA
ATOM     30  H   UNL     1       0.106  12.409  21.663  0.00  0.00    +0.000 HD
ENDBRANCH  26  29
ENDBRANCH   2  21
BRANCH   1  31
ATOM     31  C   UNL     1      -1.854  10.418  18.896  0.00  0.00    +0.000 C 
BRANCH  31  32
ATOM     32  C   UNL     1      -2.567  10.514  17.571  0.00  0.00    +0.000 A 
ATOM     33  C   UNL     1      -2.134   9.796  16.452  0.00  0.00    +0.000 A 
ATOM     34  C   UNL     1      -2.876   9.837  15.275  0.00  0.00    +0.000 A 
ATOM     35  C   UNL     1      -4.021  10.617  15.248  0.00  0.00    +0.000 A 
ATOM     36  N   UNL     1      -4.448  11.358  16.292  0.00  0.00    +0.000 NA
ATOM     37  C   UNL     1      -3.715  11.287  17.428  0.00  0.00    +0.000 A 
ENDBRANCH  31  32
ENDBRANCH   1  31
TORSDOF 7
ENDMDL
MODEL 2
REMARK VINA RESULT:      -9.4      0.671      1.163
REMARK  Name = 
REMARK  8 active torsions:
REMARK  status: ('A' for Active; 'I' for Inactive)
REMARK    1  A    between atoms: C_1  and  C_2
REMARK    2  A    between atoms: C_4  and  C_5
REMARK    3  A    between atoms: C_8  and  N_9
REMARK    4  A    between atoms: N_9  and  C_10
REMARK    5  A    between atoms: C_10  and  C_11
REMARK    6  A    between atoms: C_17  and  C_19
REMARK    7  A    between atoms: C_22  and  O_23
REMARK    8  A    between atoms: C_25  and  O_26
REMARK                            x       y       z     vdW  Elec       q    Type
REMARK                         _______ _______ _______ _____ _____    ______ ____
ROOT
ATOM      1  N   UNL     1      -0.310  11.024  19.114  0.00  0.00    +0.000 N 
ATOM      2  C   UNL     1      -0.104  12.394  19.438  0.00  0.00    +0.000 C 
ATOM      3  O   UNL     1      -1.079  13.144  19.541  0.00  0.00    +0.000 OA
ENDROOT
BRANCH   1   7
ATOM      4  C   UNL     1       2.304   7.707  19.033  0.00  0.00    +0.000 A 
ATOM      5  C   UNL     1       2.198   8.576  17.921  0.00  0.00    +0.000 A 
ATOM      6  C   UNL     1       1.409   9.733  17.950  0.00  0.00    +0.000 A 
ATOM      7  C   UNL     1       0.719  10.054  19.113  0.00  0.00    +0.000 A 
ATOM      8  C   UNL     1       0.923   9.296  20.273  0.00  0.00    +0.000 A 
ATOM      9  C   UNL     1       1.699   8.132  20.227  0.00  0.00    +0.000 A 
BRANCH   4  13
ATOM     10  C   UNL     1       5.905   5.514  16.800  0.00  0.00    +0.000 C 
ATOM     11  C   UNL     1       4.842   5.445  17.847  0.00  0.00    +0.000 A 
ATOM     12  N   UNL     1       4.073   6.523  18.025  0.00  0.00    +0.000 NA
ATOM     13  C   UNL     1       3.056   6.431  18.914  0.00  0.00    +0.000 A 
ATOM     14  C   UNL     1       2.772   5.227  19.607  0.00  0.00    +0.000 A 
ATOM     15  C   UNL     1       1.659   4.968  20.461  0.00  0.00    +0.000 A 
ATOM     16  C   UNL     1       1.520   3.746  21.121  0.00  0.00    +0.000 A 
ATOM     17  C   UNL     1       2.475   2.761  20.937  0.00  0.00    +0.000 A 
ATOM     18  C   UNL     1       3.540   2.993  20.065  0.00  0.00    +0.000 A 
ATOM     19  C   UNL     1       3.697   4.196  19.384  0.00  0.00    +0.000 A 
ATOM     20  N   UNL     1       4.712   4.293  18.518  0.00  0.00    +0.000 NA
ENDBRANCH   4  13
ENDBRANCH   1   7
BRANCH   2  21
ATOM     21  C   UNL     1       1.282  12.989  19.621  0.00  0.00    +0.000 A 
ATOM     22  C   UNL     1       1.856  13.165  20.888  0.00  0.00    +0.000 A 
ATOM     23  C   UNL     1       3.083  13.811  21.077  0.00  0.00    +0.000 A 
ATOM     24  C   UNL     1       3.822  14.185  19.971  0.00  0.00    +0.000 A 
ATOM     25  C   UNL     1       3.358  13.903  18.694  0.00  0.00    +0.000 A 
ATOM     26  C   UNL     1       2.091  13.324  18.519  0.00  0.00    +0.000 A 
BRANCH  24  27
ATOM     27  O   UNL     1       5.019  14.817  20.102  0.00  0.00    +0.000 OA
ATOM     28  H   UNL     1       5.498  14.762  19.255  0.00  0.00    +0.000 HD
ENDBRANCH  24  27
BRANCH  26  29
ATOM     29  O   UNL     1       1.671  13.105  17.236  0.00  0.00    +0.000 OA
ATOM     30  H   UNL     1       1.247  13.912  16.898  0.00  0.00    +0.000 HD
ENDBRANCH  26  29
ENDBRANCH   2  21
BRANCH   1  31
ATOM     31  C   UNL     1      -1.712  10.571  19.066  0.00  0.00    +0.000 C 
BRANCH  31  32
ATOM     32  C   UNL     1      -2.417  10.638  17.735  0.00  0.00    +0.000 A 
ATOM     33  C   UNL     1      -2.025   9.838  16.657  0.00  0.00    +0.000 A 
ATOM     34  C   UNL     1      -2.762   9.859  15.477  0.00  0.00    +0.000 A 
ATOM     35  C   UNL     1      -3.860  10.701  15.404  0.00  0.00    +0.000 A 
ATOM     36  N   UNL     1      -4.244  11.520  16.406  0.00  0.00    +0.000 NA
ATOM     37  C   UNL     1      -3.518  11.467  17.547  0.00  0.00    +0.000 A 
ENDBRANCH  31  32
ENDBRANCH   1  31
TORSDOF 7
ENDMDL
MODEL 3
REMARK VINA RESULT:      -9.2      0.812      2.252
REMARK  Name = 
REMARK  8 active torsions:
REMARK  status: ('A' for Active; 'I' for Inactive)
REMARK    1  A    between atoms: C_1  and  C_2
REMARK    2  A    between atoms: C_4  and  C_5
REMARK    3  A    between atoms: C_8  and  N_9
REMARK    4  A    between atoms: N_9  and  C_10
REMARK    5  A    between atoms: C_10  and  C_11
REMARK    6  A    between atoms: C_17  and  C_19
REMARK    7  A    between atoms: C_22  and  O_23
REMARK    8  A    between atoms: C_25  and  O_26
REMARK                            x       y       z     vdW  Elec       q    Type
REMARK                         _______ _______ _______ _____ _____    ______ ____
ROOT
ATOM      1  N   UNL     1      -0.456  11.228  19.032  0.00  0.00    +0.000 N 
ATOM      2  C   UNL     1      -0.210  12.611  19.266  0.00  0.00    +0.000 C 
ATOM      3  O   UNL     1      -1.165  13.392  19.327  0.00  0.00    +0.000 OA
ENDROOT
BRANCH   1   7
ATOM      4  C   UNL     1       2.064   7.843  19.177  0.00  0.00    +0.000 A 
ATOM      5  C   UNL     1       1.935   8.603  17.990  0.00  0.00    +0.000 A 
ATOM      6  C   UNL     1       1.179   9.780  17.936  0.00  0.00    +0.000 A 
ATOM      7  C   UNL     1       0.546  10.233  19.087  0.00  0.00    +0.000 A 
ATOM      8  C   UNL     1       0.777   9.585  20.308  0.00  0.00    +0.000 A 
ATOM      9  C   UNL     1       1.520   8.399  20.346  0.00  0.00    +0.000 A 
BRANCH   4  13
ATOM     10  C   UNL     1       2.458   3.596  21.314  0.00  0.00    +0.000 C 
ATOM     11  C   UNL     1       2.879   4.485  20.191  0.00  0.00    +0.000 A 
ATOM     12  N   UNL     1       2.333   5.703  20.123  0.00  0.00    +0.000 NA
ATOM     13  C   UNL     1       2.777   6.539  19.155  0.00  0.00    +0.000 A 
ATOM     14  C   UNL     1       3.817   6.171  18.265  0.00  0.00    +0.000 A 
ATOM     15  C   UNL     1       4.457   7.002  17.298  0.00  0.00    +0.000 A 
ATOM     16  C   UNL     1       5.445   6.500  16.449  0.00  0.00    +0.000 A 
ATOM     17  C   UNL     1       5.819   5.171  16.552  0.00  0.00    +0.000 A 
ATOM     18  C   UNL     1       5.230   4.366  17.528  0.00  0.00    +0.000 A 
ATOM     19  C   UNL     1       4.252   4.843  18.397  0.00  0.00    +0.000 A 
ATOM     20  N   UNL     1       3.802   4.011  19.342  0.00  0.00    +0.000 NA
ENDBRANCH   4  13
ENDBRANCH   1   7
BRANCH   2  21
ATOM     21  C   UNL     1       1.192  13.178  19.400  0.00  0.00    +0.000 A 
ATOM     22  C   UNL     1       1.983  13.482  18.282  0.00  0.00    +0.000 A 
ATOM     23  C   UNL     1       3.313  13.902  18.390  0.00  0.00    +0.000 A 
ATOM     24  C   UNL     1       3.839  14.146  19.645  0.00  0.00    +0.000 A 
ATOM     25  C   UNL     1       3.049  13.996  20.775  0.00  0.00    +0.000 A 
ATOM     26  C   UNL     1       1.740  13.501  20.656  0.00  0.00    +0.000 A 
BRANCH  24  27
ATOM     27  O   UNL     1       5.127  14.553  19.803  0.00  0.00    +0.000 OA
ATOM     28  H   UNL     1       5.154  15.527  19.778  0.00  0.00    +0.000 HD
ENDBRANCH  24  27
BRANCH  26  29
ATOM     29  O   UNL     1       1.022  13.336  21.808  0.00  0.00    +0.000 OA
ATOM     30  H   UNL     1       0.756  12.405  21.887  0.00  0.00    +0.000 HD
ENDBRANCH  26  29
ENDBRANCH   2  21
BRANCH   1  31
ATOM     31  C   UNL     1      -1.870  10.812  19.024  0.00  0.00    +0.000 C 
BRANCH  31  32
ATOM     32  C   UNL     1      -2.569  10.761  17.689  0.00  0.00    +0.000 A 
ATOM     33  C   UNL     1      -2.138   9.909  16.668  0.00  0.00    +0.000 A 
ATOM     34  C   UNL     1      -2.868   9.821  15.486  0.00  0.00    +0.000 A 
ATOM     35  C   UNL     1      -4.000  10.609  15.354  0.00  0.00    +0.000 A 
ATOM     36  N   UNL     1      -4.425  11.475  16.298  0.00  0.00    +0.000 NA
ATOM     37  C   UNL     1      -3.704  11.528  17.442  0.00  0.00    +0.000 A 
ENDBRANCH  31  32
ENDBRANCH   1  31
TORSDOF 7
ENDMDL
MODEL 4
REMARK VINA RESULT:      -9.2      1.180      1.363
REMARK  Name = 
REMARK  8 active torsions:
REMARK  status: ('A' for Active; 'I' for Inactive)
REMARK    1  A    between atoms: C_1  and  C_2
REMARK    2  A    between atoms: C_4  and  C_5
REMARK    3  A    between atoms: C_8  and  N_9
REMARK    4  A    between atoms: N_9  and  C_10
REMARK    5  A    between atoms: C_10  and  C_11
REMARK    6  A    between atoms: C_17  and  C_19
REMARK    7  A    between atoms: C_22  and  O_23
REMARK    8  A    between atoms: C_25  and  O_26
REMARK                            x       y       z     vdW  Elec       q    Type
REMARK                         _______ _______ _______ _____ _____    ______ ____
ROOT
ATOM      1  N   UNL     1      -0.279  10.801  18.985  0.00  0.00    +0.000 N 
ATOM      2  C   UNL     1      -0.171  12.175  19.342  0.00  0.00    +0.000 C 
ATOM      3  O   UNL     1      -1.199  12.823  19.561  0.00  0.00    +0.000 OA
ENDROOT
BRANCH   1   7
ATOM      4  C   UNL     1       2.616   7.772  18.449  0.00  0.00    +0.000 A 
ATOM      5  C   UNL     1       2.433   8.783  17.476  0.00  0.00    +0.000 A 
ATOM      6  C   UNL     1       1.546   9.850  17.665  0.00  0.00    +0.000 A 
ATOM      7  C   UNL     1       0.831   9.935  18.854  0.00  0.00    +0.000 A 
ATOM      8  C   UNL     1       1.101   9.035  19.893  0.00  0.00    +0.000 A 
ATOM      9  C   UNL     1       1.977   7.962  19.686  0.00  0.00    +0.000 A 
BRANCH   4  13
ATOM     10  C   UNL     1       7.055   6.376  17.398  0.00  0.00    +0.000 C 
ATOM     11  C   UNL     1       5.649   5.980  17.707  0.00  0.00    +0.000 A 
ATOM     12  N   UNL     1       4.768   6.953  17.957  0.00  0.00    +0.000 NA
ATOM     13  C   UNL     1       3.476   6.598  18.154  0.00  0.00    +0.000 A 
ATOM     14  C   UNL     1       3.046   5.250  18.056  0.00  0.00    +0.000 A 
ATOM     15  C   UNL     1       1.704   4.770  18.112  0.00  0.00    +0.000 A 
ATOM     16  C   UNL     1       1.418   3.405  18.046  0.00  0.00    +0.000 A 
ATOM     17  C   UNL     1       2.456   2.499  17.915  0.00  0.00    +0.000 A 
ATOM     18  C   UNL     1       3.767   2.967  17.813  0.00  0.00    +0.000 A 
ATOM     19  C   UNL     1       4.080   4.322  17.862  0.00  0.00    +0.000 A 
ATOM     20  N   UNL     1       5.359   4.671  17.684  0.00  0.00    +0.000 NA
ENDBRANCH   4  13
ENDBRANCH   1   7
BRANCH   2  21
ATOM     21  C   UNL     1       1.163  12.894  19.423  0.00  0.00    +0.000 A 
ATOM     22  C   UNL     1       1.889  13.249  18.276  0.00  0.00    +0.000 A 
ATOM     23  C   UNL     1       3.168  13.813  18.337  0.00  0.00    +0.000 A 
ATOM     24  C   UNL     1       3.695  14.150  19.569  0.00  0.00    +0.000 A 
ATOM     25  C   UNL     1       2.952  13.949  20.725  0.00  0.00    +0.000 A 
ATOM     26  C   UNL     1       1.703  13.311  20.654  0.00  0.00    +0.000 A 
BRANCH  24  27
ATOM     27  O   UNL     1       4.934  14.699  19.682  0.00  0.00    +0.000 OA
ATOM     28  H   UNL     1       5.459  14.451  18.900  0.00  0.00    +0.000 HD
ENDBRANCH  24  27
BRANCH  26  29
ATOM     29  O   UNL     1       1.035  13.104  21.830  0.00  0.00    +0.000 OA
ATOM     30  H   UNL     1       0.449  12.335  21.731  0.00  0.00    +0.000 HD
ENDBRANCH  26  29
ENDBRANCH   2  21
BRANCH   1  31
ATOM     31  C   UNL     1      -1.631  10.217  19.045  0.00  0.00    +0.000 C 
BRANCH  31  32
ATOM     32  C   UNL     1      -2.498  10.350  17.819  0.00  0.00    +0.000 A 
ATOM     33  C   UNL     1      -3.724  11.022  17.858  0.00  0.00    +0.000 A 
ATOM     34  C   UNL     1      -4.449  11.206  16.683  0.00  0.00    +0.000 A 
ATOM     35  C   UNL     1      -3.932  10.690  15.506  0.00  0.00    +0.000 A 
ATOM     36  N   UNL     1      -2.775   9.998  15.435  0.00  0.00    +0.000 NA
ATOM     37  C   UNL     1      -2.085   9.847  16.589  0.00  0.00    +0.000 A 
ENDBRANCH  31  32
ENDBRANCH   1  31
TORSDOF 7
ENDMDL
MODEL 5
REMARK VINA RESULT:      -9.1      1.072      2.522
REMARK  Name = 
REMARK  8 active torsions:
REMARK  status: ('A' for Active; 'I' for Inactive)
REMARK    1  A    between atoms: C_1  and  C_2
REMARK    2  A    between atoms: C_4  and  C_5
REMARK    3  A    between atoms: C_8  and  N_9
REMARK    4  A    between atoms: N_9  and  C_10
REMARK    5  A    between atoms: C_10  and  C_11
REMARK    6  A    between atoms: C_17  and  C_19
REMARK    7  A    between atoms: C_22  and  O_23
REMARK    8  A    between atoms: C_25  and  O_26
REMARK                            x       y       z     vdW  Elec       q    Type
REMARK                         _______ _______ _______ _____ _____    ______ ____
ROOT
ATOM      1  N   UNL     1      -0.353  11.288  19.207  0.00  0.00    +0.000 N 
ATOM      2  C   UNL     1      -0.067  12.654  19.488  0.00  0.00    +0.000 C 
ATOM      3  O   UNL     1      -0.998  13.461  19.572  0.00  0.00    +0.000 OA
ENDROOT
BRANCH   1   7
ATOM      4  C   UNL     1       2.063   7.825  19.247  0.00  0.00    +0.000 A 
ATOM      5  C   UNL     1       1.961   8.626  18.085  0.00  0.00    +0.000 A 
ATOM      6  C   UNL     1       1.241   9.827  18.067  0.00  0.00    +0.000 A 
ATOM      7  C   UNL     1       0.618  10.261  19.231  0.00  0.00    +0.000 A 
ATOM      8  C   UNL     1       0.826   9.568  20.431  0.00  0.00    +0.000 A 
ATOM      9  C   UNL     1       1.533   8.359  20.432  0.00  0.00    +0.000 A 
BRANCH   4  13
ATOM     10  C   UNL     1       2.407   3.541  21.318  0.00  0.00    +0.000 C 
ATOM     11  C   UNL     1       2.814   4.432  20.192  0.00  0.00    +0.000 A 
ATOM     12  N   UNL     1       2.302   5.666  20.157  0.00  0.00    +0.000 NA
ATOM     13  C   UNL     1       2.736   6.501  19.184  0.00  0.00    +0.000 A 
ATOM     14  C   UNL     1       3.734   6.115  18.254  0.00  0.00    +0.000 A 
ATOM     15  C   UNL     1       4.363   6.939  17.275  0.00  0.00    +0.000 A 
ATOM     16  C   UNL     1       5.306   6.421  16.386  0.00  0.00    +0.000 A 
ATOM     17  C   UNL     1       5.644   5.080  16.460  0.00  0.00    +0.000 A 
ATOM     18  C   UNL     1       5.066   4.280  17.446  0.00  0.00    +0.000 A 
ATOM     19  C   UNL     1       4.134   4.774  18.354  0.00  0.00    +0.000 A 
ATOM     20  N   UNL     1       3.692   3.943  19.305  0.00  0.00    +0.000 NA
ENDBRANCH   4  13
ENDBRANCH   1   7
BRANCH   2  21
ATOM     21  C   UNL     1       1.351  13.174  19.646  0.00  0.00    +0.000 A 
ATOM     22  C   UNL     1       1.943  13.352  20.904  0.00  0.00    +0.000 A 
ATOM     23  C   UNL     1       3.206  13.931  21.069  0.00  0.00    +0.000 A 
ATOM     24  C   UNL     1       3.958  14.232  19.949  0.00  0.00    +0.000 A 
ATOM     25  C   UNL     1       3.470  13.940  18.682  0.00  0.00    +0.000 A 
ATOM     26  C   UNL     1       2.171  13.430  18.531  0.00  0.00    +0.000 A 
BRANCH  24  27
ATOM     27  O   UNL     1       5.190  14.797  20.056  0.00  0.00    +0.000 OA
ATOM     28  H   UNL     1       5.723  14.538  19.283  0.00  0.00    +0.000 HD
ENDBRANCH  24  27
BRANCH  26  29
ATOM     29  O   UNL     1       1.730  13.199  17.257  0.00  0.00    +0.000 OA
ATOM     30  H   UNL     1       2.481  13.269  16.643  0.00  0.00    +0.000 HD
ENDBRANCH  26  29
ENDBRANCH   2  21
BRANCH   1  31
ATOM     31  C   UNL     1      -1.779  10.915  19.179  0.00  0.00    +0.000 C 
BRANCH  31  32
ATOM     32  C   UNL     1      -2.445  10.822  17.829  0.00  0.00    +0.000 A 
ATOM     33  C   UNL     1      -1.997   9.928  16.852  0.00  0.00    +0.000 A 
ATOM     34  C   UNL     1      -2.698   9.803  15.655  0.00  0.00    +0.000 A 
ATOM     35  C   UNL     1      -3.817  10.597  15.465  0.00  0.00    +0.000 A 
ATOM     36  N   UNL     1      -4.256  11.502  16.366  0.00  0.00    +0.000 NA
ATOM     37  C   UNL     1      -3.564  11.591  17.525  0.00  0.00    +0.000 A 
ENDBRANCH  31  32
ENDBRANCH   1  31
TORSDOF 7
ENDMDL
MODEL 6
REMARK VINA RESULT:      -8.5      2.062      5.007
REMARK  Name = 
REMARK  8 active torsions:
REMARK  status: ('A' for Active; 'I' for Inactive)
REMARK    1  A    between atoms: C_1  and  C_2
REMARK    2  A    between atoms: C_4  and  C_5
REMARK    3  A    between atoms: C_8  and  N_9
REMARK    4  A    between atoms: N_9  and  C_10
REMARK    5  A    between atoms: C_10  and  C_11
REMARK    6  A    between atoms: C_17  and  C_19
REMARK    7  A    between atoms: C_22  and  O_23
REMARK    8  A    between atoms: C_25  and  O_26
REMARK                            x       y       z     vdW  Elec       q    Type
REMARK                         _______ _______ _______ _____ _____    ______ ____
ROOT
ATOM      1  N   UNL     1       0.323  11.063  20.103  0.00  0.00    +0.000 N 
ATOM      2  C   UNL     1      -0.788  11.764  19.555  0.00  0.00    +0.000 C 
ATOM      3  O   UNL     1      -1.090  12.870  20.013  0.00  0.00    +0.000 OA
ENDROOT
BRANCH   1   7
ATOM      4  C   UNL     1       2.428   7.746  18.554  0.00  0.00    +0.000 A 
ATOM      5  C   UNL     1       1.877   7.713  19.857  0.00  0.00    +0.000 A 
ATOM      6  C   UNL     1       1.098   8.760  20.365  0.00  0.00    +0.000 A 
ATOM      7  C   UNL     1       0.839   9.864  19.561  0.00  0.00    +0.000 A 
ATOM      8  C   UNL     1       1.244   9.857  18.220  0.00  0.00    +0.000 A 
ATOM      9  C   UNL     1       2.038   8.813  17.729  0.00  0.00    +0.000 A 
BRANCH   4  13
ATOM     10  C   UNL     1       6.854   6.788  17.051  0.00  0.00    +0.000 C 
ATOM     11  C   UNL     1       5.513   6.259  17.441  0.00  0.00    +0.000 A 
ATOM     12  N   UNL     1       4.586   7.138  17.832  0.00  0.00    +0.000 NA
ATOM     13  C   UNL     1       3.346   6.667  18.104  0.00  0.00    +0.000 A 
ATOM     14  C   UNL     1       3.011   5.299  17.942  0.00  0.00    +0.000 A 
ATOM     15  C   UNL     1       1.719   4.709  18.068  0.00  0.00    +0.000 A 
ATOM     16  C   UNL     1       1.531   3.333  17.924  0.00  0.00    +0.000 A 
ATOM     17  C   UNL     1       2.620   2.525  17.644  0.00  0.00    +0.000 A 
ATOM     18  C   UNL     1       3.878   3.104  17.472  0.00  0.00    +0.000 A 
ATOM     19  C   UNL     1       4.091   4.474  17.597  0.00  0.00    +0.000 A 
ATOM     20  N   UNL     1       5.321   4.936  17.345  0.00  0.00    +0.000 NA
ENDBRANCH   4  13
ENDBRANCH   1   7
BRANCH   2  21
ATOM     21  C   UNL     1      -1.655  11.183  18.452  0.00  0.00    +0.000 A 
ATOM     22  C   UNL     1      -2.466  10.057  18.656  0.00  0.00    +0.000 A 
ATOM     23  C   UNL     1      -3.184   9.447  17.622  0.00  0.00    +0.000 A 
ATOM     24  C   UNL     1      -3.198  10.040  16.374  0.00  0.00    +0.000 A 
ATOM     25  C   UNL     1      -2.525  11.235  16.161  0.00  0.00    +0.000 A 
ATOM     26  C   UNL     1      -1.747  11.795  17.187  0.00  0.00    +0.000 A 
BRANCH  24  27
ATOM     27  O   UNL     1      -3.879   9.485  15.336  0.00  0.00    +0.000 OA
ATOM     28  H   UNL     1      -3.565   8.572  15.205  0.00  0.00    +0.000 HD
ENDBRANCH  24  27
BRANCH  26  29
ATOM     29  O   UNL     1      -1.074  12.952  16.907  0.00  0.00    +0.000 OA
ATOM     30  H   UNL     1      -1.718  13.661  16.741  0.00  0.00    +0.000 HD
ENDBRANCH  26  29
ENDBRANCH   2  21
BRANCH   1  31
ATOM     31  C   UNL     1       1.127  11.796  21.098  0.00  0.00    +0.000 C 
BRANCH  31  32
ATOM     32  C   UNL     1       1.848  13.034  20.630  0.00  0.00    +0.000 A 
ATOM     33  C   UNL     1       2.466  13.093  19.377  0.00  0.00    +0.000 A 
ATOM     34  C   UNL     1       3.037  14.287  18.943  0.00  0.00    +0.000 A 
ATOM     35  C   UNL     1       2.991  15.382  19.791  0.00  0.00    +0.000 A 
ATOM     36  N   UNL     1       2.442  15.353  21.024  0.00  0.00    +0.000 NA
ATOM     37  C   UNL     1       1.882  14.184  21.413  0.00  0.00    +0.000 A 
ENDBRANCH  31  32
ENDBRANCH   1  31
TORSDOF 7
ENDMDL
MODEL 7
REMARK VINA RESULT:      -8.3      3.760      7.901
REMARK  Name = 
REMARK  8 active torsions:
REMARK  status: ('A' for Active; 'I' for Inactive)
REMARK    1  A    between atoms: C_1  and  C_2
REMARK    2  A    between atoms: C_4  and  C_5
REMARK    3  A    between atoms: C_8  and  N_9
REMARK    4  A    between atoms: N_9  and  C_10
REMARK    5  A    between atoms: C_10  and  C_11
REMARK    6  A    between atoms: C_17  and  C_19
REMARK    7  A    between atoms: C_22  and  O_23
REMARK    8  A    between atoms: C_25  and  O_26
REMARK                            x       y       z     vdW  Elec       q    Type
REMARK                         _______ _______ _______ _____ _____    ______ ____
ROOT
ATOM      1  N   UNL     1       4.543   5.343  17.513  0.00  0.00    +0.000 N 
ATOM      2  C   UNL     1       5.942   5.366  17.249  0.00  0.00    +0.000 C 
ATOM      3  O   UNL     1       6.454   4.434  16.622  0.00  0.00    +0.000 OA
ENDROOT
BRANCH   1   7
ATOM      4  C   UNL     1       1.929   8.337  18.938  0.00  0.00    +0.000 A 
ATOM      5  C   UNL     1       2.349   7.278  19.779  0.00  0.00    +0.000 A 
ATOM      6  C   UNL     1       3.284   6.322  19.364  0.00  0.00    +0.000 A 
ATOM      7  C   UNL     1       3.836   6.420  18.092  0.00  0.00    +0.000 A 
ATOM      8  C   UNL     1       3.554   7.538  17.297  0.00  0.00    +0.000 A 
ATOM      9  C   UNL     1       2.604   8.478  17.714  0.00  0.00    +0.000 A 
BRANCH   4  13
ATOM     10  C   UNL     1      -1.416  11.394  17.446  0.00  0.00    +0.000 C 
ATOM     11  C   UNL     1      -0.788  10.675  18.594  0.00  0.00    +0.000 A 
ATOM     12  N   UNL     1       0.224   9.843  18.330  0.00  0.00    +0.000 NA
ATOM     13  C   UNL     1       0.847   9.256  19.378  0.00  0.00    +0.000 A 
ATOM     14  C   UNL     1       0.485   9.537  20.720  0.00  0.00    +0.000 A 
ATOM     15  C   UNL     1       1.145   9.088  21.902  0.00  0.00    +0.000 A 
ATOM     16  C   UNL     1       0.657   9.404  23.171  0.00  0.00    +0.000 A 
ATOM     17  C   UNL     1      -0.487  10.175  23.286  0.00  0.00    +0.000 A 
ATOM     18  C   UNL     1      -1.110  10.656  22.133  0.00  0.00    +0.000 A 
ATOM     19  C   UNL     1      -0.637  10.368  20.856  0.00  0.00    +0.000 A 
ATOM     20  N   UNL     1      -1.264  10.935  19.820  0.00  0.00    +0.000 NA
ENDBRANCH   4  13
ENDBRANCH   1   7
BRANCH   2  21
ATOM     21  C   UNL     1       6.848   6.477  17.751  0.00  0.00    +0.000 A 
ATOM     22  C   UNL     1       6.842   7.758  17.180  0.00  0.00    +0.000 A 
ATOM     23  C   UNL     1       7.745   8.757  17.559  0.00  0.00    +0.000 A 
ATOM     24  C   UNL     1       8.599   8.522  18.620  0.00  0.00    +0.000 A 
ATOM     25  C   UNL     1       8.542   7.319  19.309  0.00  0.00    +0.000 A 
ATOM     26  C   UNL     1       7.685   6.298  18.869  0.00  0.00    +0.000 A 
BRANCH  24  27
ATOM     27  O   UNL     1       9.496   9.461  19.025  0.00  0.00    +0.000 OA
ATOM     28  H   UNL     1       9.773   9.985  18.252  0.00  0.00    +0.000 HD
ENDBRANCH  24  27
BRANCH  26  29
ATOM     29  O   UNL     1       7.701   5.120  19.563  0.00  0.00    +0.000 OA
ATOM     30  H   UNL     1       8.480   5.104  20.144  0.00  0.00    +0.000 HD
ENDBRANCH  26  29
ENDBRANCH   2  21
BRANCH   1  31
ATOM     31  C   UNL     1       3.781   4.253  16.877  0.00  0.00    +0.000 C 
BRANCH  31  32
ATOM     32  C   UNL     1       2.851   3.454  17.755  0.00  0.00    +0.000 A 
ATOM     33  C   UNL     1       1.487   3.752  17.839  0.00  0.00    +0.000 A 
ATOM     34  C   UNL     1       0.645   2.931  18.585  0.00  0.00    +0.000 A 
ATOM     35  C   UNL     1       1.201   1.847  19.244  0.00  0.00    +0.000 A 
ATOM     36  N   UNL     1       2.518   1.552  19.223  0.00  0.00    +0.000 NA
ATOM     37  C   UNL     1       3.310   2.358  18.478  0.00  0.00    +0.000 A 
ENDBRANCH  31  32
ENDBRANCH   1  31
TORSDOF 7
ENDMDL
MODEL 8
REMARK VINA RESULT:      -8.2      4.186      8.945
REMARK  Name = 
REMARK  8 active torsions:
REMARK  status: ('A' for Active; 'I' for Inactive)
REMARK    1  A    between atoms: C_1  and  C_2
REMARK    2  A    between atoms: C_4  and  C_5
REMARK    3  A    between atoms: C_8  and  N_9
REMARK    4  A    between atoms: N_9  and  C_10
REMARK    5  A    between atoms: C_10  and  C_11
REMARK    6  A    between atoms: C_17  and  C_19
REMARK    7  A    between atoms: C_22  and  O_23
REMARK    8  A    between atoms: C_25  and  O_26
REMARK                            x       y       z     vdW  Elec       q    Type
REMARK                         _______ _______ _______ _____ _____    ______ ____
ROOT
ATOM      1  N   UNL     1       3.895   5.303  17.759  0.00  0.00    +0.000 N 
ATOM      2  C   UNL     1       4.033   4.018  18.356  0.00  0.00    +0.000 C 
ATOM      3  O   UNL     1       4.925   3.262  17.962  0.00  0.00    +0.000 OA
ENDROOT
BRANCH   1   7
ATOM      4  C   UNL     1       1.751   8.615  19.264  0.00  0.00    +0.000 A 
ATOM      5  C   UNL     1       1.768   8.330  17.878  0.00  0.00    +0.000 A 
ATOM      6  C   UNL     1       2.394   7.190  17.359  0.00  0.00    +0.000 A 
ATOM      7  C   UNL     1       3.005   6.296  18.229  0.00  0.00    +0.000 A 
ATOM      8  C   UNL     1       2.875   6.474  19.613  0.00  0.00    +0.000 A 
ATOM      9  C   UNL     1       2.263   7.627  20.120  0.00  0.00    +0.000 A 
BRANCH   4  13
ATOM     10  C   UNL     1       1.356  13.287  18.375  0.00  0.00    +0.000 C 
ATOM     11  C   UNL     1       0.975  12.132  19.242  0.00  0.00    +0.000 A 
ATOM     12  N   UNL     1       1.457  10.927  18.922  0.00  0.00    +0.000 NA
ATOM     13  C   UNL     1       1.180   9.896  19.755  0.00  0.00    +0.000 A 
ATOM     14  C   UNL     1       0.445  10.078  20.954  0.00  0.00    +0.000 A 
ATOM     15  C   UNL     1       0.203   9.106  21.971  0.00  0.00    +0.000 A 
ATOM     16  C   UNL     1      -0.578   9.404  23.088  0.00  0.00    +0.000 A 
ATOM     17  C   UNL     1      -1.123  10.670  23.219  0.00  0.00    +0.000 A 
ATOM     18  C   UNL     1      -0.850  11.638  22.251  0.00  0.00    +0.000 A 
ATOM     19  C   UNL     1      -0.063  11.373  21.134  0.00  0.00    +0.000 A 
ATOM     20  N   UNL     1       0.195  12.388  20.302  0.00  0.00    +0.000 NA
ENDBRANCH   4  13
ENDBRANCH   1   7
BRANCH   2  21
ATOM     21  C   UNL     1       3.091   3.517  19.437  0.00  0.00    +0.000 A 
ATOM     22  C   UNL     1       1.703   3.703  19.362  0.00  0.00    +0.000 A 
ATOM     23  C   UNL     1       0.836   3.344  20.399  0.00  0.00    +0.000 A 
ATOM     24  C   UNL     1       1.342   2.668  21.493  0.00  0.00    +0.000 A 
ATOM     25  C   UNL     1       2.688   2.334  21.546  0.00  0.00    +0.000 A 
ATOM     26  C   UNL     1       3.560   2.769  20.534  0.00  0.00    +0.000 A 
BRANCH  24  27
ATOM     27  O   UNL     1       0.541   2.299  22.528  0.00  0.00    +0.000 OA
ATOM     28  H   UNL     1      -0.081   1.617  22.216  0.00  0.00    +0.000 HD
ENDBRANCH  24  27
BRANCH  26  29
ATOM     29  O   UNL     1       4.882   2.444  20.660  0.00  0.00    +0.000 OA
ATOM     30  H   UNL     1       5.049   1.606  20.196  0.00  0.00    +0.000 HD
ENDBRANCH  26  29
ENDBRANCH   2  21
BRANCH   1  31
ATOM     31  C   UNL     1       4.942   5.687  16.795  0.00  0.00    +0.000 C 
BRANCH  31  32
ATOM     32  C   UNL     1       6.164   6.383  17.340  0.00  0.00    +0.000 A 
ATOM     33  C   UNL     1       6.478   7.698  16.985  0.00  0.00    +0.000 A 
ATOM     34  C   UNL     1       7.560   8.336  17.585  0.00  0.00    +0.000 A 
ATOM     35  C   UNL     1       8.311   7.627  18.509  0.00  0.00    +0.000 A 
ATOM     36  N   UNL     1       8.066   6.343  18.846  0.00  0.00    +0.000 NA
ATOM     37  C   UNL     1       6.999   5.753  18.258  0.00  0.00    +0.000 A 
ENDBRANCH  31  32
ENDBRANCH   1  31
TORSDOF 7
ENDMDL
MODEL 9
REMARK VINA RESULT:      -8.2      1.339      1.590
REMARK  Name = 
REMARK  8 active torsions:
REMARK  status: ('A' for Active; 'I' for Inactive)
REMARK    1  A    between atoms: C_1  and  C_2
REMARK    2  A    between atoms: C_4  and  C_5
REMARK    3  A    between atoms: C_8  and  N_9
REMARK    4  A    between atoms: N_9  and  C_10
REMARK    5  A    between atoms: C_10  and  C_11
REMARK    6  A    between atoms: C_17  and  C_19
REMARK    7  A    between atoms: C_22  and  O_23
REMARK    8  A    between atoms: C_25  and  O_26
REMARK                            x       y       z     vdW  Elec       q    Type
REMARK                         _______ _______ _______ _____ _____    ______ ____
ROOT
ATOM      1  N   UNL     1      -0.431  10.994  19.140  0.00  0.00    +0.000 N 
ATOM      2  C   UNL     1      -0.354  12.319  19.655  0.00  0.00    +0.000 C 
ATOM      3  O   UNL     1      -1.396  12.935  19.895  0.00  0.00    +0.000 OA
ENDROOT
BRANCH   1   7
ATOM      4  C   UNL     1       2.509   8.046  18.435  0.00  0.00    +0.000 A 
ATOM      5  C   UNL     1       2.334   9.126  17.538  0.00  0.00    +0.000 A 
ATOM      6  C   UNL     1       1.430  10.166  17.790  0.00  0.00    +0.000 A 
ATOM      7  C   UNL     1       0.691  10.153  18.966  0.00  0.00    +0.000 A 
ATOM      8  C   UNL     1       0.952   9.179  19.939  0.00  0.00    +0.000 A 
ATOM      9  C   UNL     1       1.844   8.134  19.669  0.00  0.00    +0.000 A 
BRANCH   4  13
ATOM     10  C   UNL     1       6.946   6.809  17.191  0.00  0.00    +0.000 C 
ATOM     11  C   UNL     1       5.562   6.364  17.530  0.00  0.00    +0.000 A 
ATOM     12  N   UNL     1       4.665   7.303  17.843  0.00  0.00    +0.000 NA
ATOM     13  C   UNL     1       3.390   6.906  18.069  0.00  0.00    +0.000 A 
ATOM     14  C   UNL     1       2.991   5.552  17.935  0.00  0.00    +0.000 A 
ATOM     15  C   UNL     1       1.664   5.034  18.016  0.00  0.00    +0.000 A 
ATOM     16  C   UNL     1       1.412   3.665  17.909  0.00  0.00    +0.000 A 
ATOM     17  C   UNL     1       2.468   2.793  17.712  0.00  0.00    +0.000 A 
ATOM     18  C   UNL     1       3.762   3.300  17.585  0.00  0.00    +0.000 A 
ATOM     19  C   UNL     1       4.041   4.660  17.674  0.00  0.00    +0.000 A 
ATOM     20  N   UNL     1       5.304   5.050  17.468  0.00  0.00    +0.000 NA
ENDBRANCH   4  13
ENDBRANCH   1   7
BRANCH   2  21
ATOM     21  C   UNL     1       0.969  13.029  19.881  0.00  0.00    +0.000 A 
ATOM     22  C   UNL     1       1.877  12.617  20.867  0.00  0.00    +0.000 A 
ATOM     23  C   UNL     1       3.047  13.326  21.160  0.00  0.00    +0.000 A 
ATOM     24  C   UNL     1       3.391  14.407  20.371  0.00  0.00    +0.000 A 
ATOM     25  C   UNL     1       2.595  14.766  19.293  0.00  0.00    +0.000 A 
ATOM     26  C   UNL     1       1.385  14.093  19.059  0.00  0.00    +0.000 A 
BRANCH  24  27
ATOM     27  O   UNL     1       4.517  15.130  20.615  0.00  0.00    +0.000 OA
ATOM     28  H   UNL     1       4.938  15.353  19.765  0.00  0.00    +0.000 HD
ENDBRANCH  24  27
BRANCH  26  29
ATOM     29  O   UNL     1       0.622  14.517  18.005  0.00  0.00    +0.000 OA
ATOM     30  H   UNL     1       1.159  14.496  17.195  0.00  0.00    +0.000 HD
ENDBRANCH  26  29
ENDBRANCH   2  21
BRANCH   1  31
ATOM     31  C   UNL     1      -1.780  10.403  19.068  0.00  0.00    +0.000 C 
BRANCH  31  32
ATOM     32  C   UNL     1      -2.521  10.525  17.761  0.00  0.00    +0.000 A 
ATOM     33  C   UNL     1      -2.113   9.830  16.618  0.00  0.00    +0.000 A 
ATOM     34  C   UNL     1      -2.880   9.894  15.458  0.00  0.00    +0.000 A 
ATOM     35  C   UNL     1      -4.025  10.674  15.472  0.00  0.00    +0.000 A 
ATOM     36  N   UNL     1      -4.429  11.394  16.540  0.00  0.00    +0.000 NA
ATOM     37  C   UNL     1      -3.672  11.301  17.658  0.00  0.00    +0.000 A 
ENDBRANCH  31  32
ENDBRANCH   1  31
TORSDOF 7
ENDMDL
