MODEL 1
REMARK VINA RESULT:      -7.6      0.000      0.000
REMARK  Name = 
REMARK  2 active torsions:
REMARK  status: ('A' for Active; 'I' for Inactive)
REMARK    1  A    between atoms: C_2  and  C_3
REMARK    2  A    between atoms: C_3  and  N_4
REMARK                            x       y       z     vdW  Elec       q    Type
REMARK                         _______ _______ _______ _____ _____    ______ ____
ROOT
ATOM      1  N   UNL     1       2.177   4.493  19.660  0.00  0.00    +0.000 NA
ATOM      2  C   UNL     1       2.597   5.764  20.263  0.00  0.00    +0.000 C 
ATOM      3  C   UNL     1       2.003   7.084  19.827  0.00  0.00    +0.000 A 
ATOM      4  C   UNL     1       1.411   7.867  20.847  0.00  0.00    +0.000 A 
ATOM      5  C   UNL     1       0.966   9.170  20.619  0.00  0.00    +0.000 A 
ATOM      6  C   UNL     1       1.085   9.726  19.354  0.00  0.00    +0.000 A 
ATOM      7  C   UNL     1       1.636   8.970  18.324  0.00  0.00    +0.000 A 
ATOM      8  C   UNL     1       2.111   7.666  18.551  0.00  0.00    +0.000 A 
ATOM      9  O   UNL     1       2.576   7.063  17.401  0.00  0.00    +0.000 OA
ATOM     10  C   UNL     1       3.775   6.414  17.462  0.00  0.00    +0.000 A 
ATOM     11  C   UNL     1       4.947   7.138  17.240  0.00  0.00    +0.000 A 
ATOM     12  C   UNL     1       6.182   6.490  17.309  0.00  0.00    +0.000 A 
ATOM     13  C   UNL     1       6.237   5.121  17.577  0.00  0.00    +0.000 A 
ATOM     14 CL   UNL     1       7.765   4.346  17.736  0.00  0.00    +0.000 Cl
ATOM     15  C   UNL     1       5.069   4.383  17.748  0.00  0.00    +0.000 A 
ATOM     16  C   UNL     1       3.837   5.038  17.673  0.00  0.00    +0.000 A 
ATOM     17  S   UNL     1       2.353   4.155  18.033  0.00  0.00    +0.000 S 
ATOM     18  O   UNL     1       1.237   4.716  17.306  0.00  0.00    +0.000 OA
ATOM     19  O   UNL     1       2.654   2.742  17.913  0.00  0.00    +0.000 OA
ENDROOT
BRANCH   1  20
ATOM     20  C   UNL     1       1.333   3.608  20.464  0.00  0.00    +0.000 C 
BRANCH  20  22
ATOM     21  C   UNL     1       3.336   2.266  21.301  0.00  0.00    +0.000 C 
ATOM     22  C   UNL     1       2.165   2.892  21.500  0.00  0.00    +0.000 C 
ENDBRANCH  20  22
ENDBRANCH   1  20
TORSDOF 2
ENDMDL
MODEL 2
REMARK VINA RESULT:      -6.6      0.967      1.256
REMARK  Name = 
REMARK  2 active torsions:
REMARK  status: ('A' for Active; 'I' for Inactive)
REMARK    1  A    between atoms: C_2  and  C_3
REMARK    2  A    between atoms: C_3  and  N_4
REMARK                            x       y       z     vdW  Elec       q    Type
REMARK                         _______ _______ _______ _____ _____    ______ ____
ROOT
ATOM      1  N   UNL     1       2.934   4.263  19.635  0.00  0.00    +0.000 NA
ATOM      2  C   UNL     1       3.168   5.619  20.150  0.00  0.00    +0.000 C 
ATOM      3  C   UNL     1       2.509   6.829  19.527  0.00  0.00    +0.000 A 
ATOM      4  C   UNL     1       1.739   7.636  20.399  0.00  0.00    +0.000 A 
ATOM      5  C   UNL     1       1.207   8.862  20.000  0.00  0.00    +0.000 A 
ATOM      6  C   UNL     1       1.415   9.313  18.704  0.00  0.00    +0.000 A 
ATOM      7  C   UNL     1       2.142   8.527  17.815  0.00  0.00    +0.000 A 
ATOM      8  C   UNL     1       2.705   7.303  18.217  0.00  0.00    +0.000 A 
ATOM      9  O   UNL     1       3.347   6.650  17.186  0.00  0.00    +0.000 OA
ATOM     10  C   UNL     1       4.586   6.133  17.432  0.00  0.00    +0.000 A 
ATOM     11  C   UNL     1       5.705   6.948  17.260  0.00  0.00    +0.000 A 
ATOM     12  C   UNL     1       6.978   6.436  17.518  0.00  0.00    +0.000 A 
ATOM     13  C   UNL     1       7.126   5.109  17.925  0.00  0.00    +0.000 A 
ATOM     14 CL   UNL     1       8.691   4.508  18.315  0.00  0.00    +0.000 Cl
ATOM     15  C   UNL     1       6.018   4.275  18.048  0.00  0.00    +0.000 A 
ATOM     16  C   UNL     1       4.747   4.795  17.784  0.00  0.00    +0.000 A 
ATOM     17  S   UNL     1       3.319   3.803  18.076  0.00  0.00    +0.000 S 
ATOM     18  O   UNL     1       2.245   4.182  17.187  0.00  0.00    +0.000 OA
ATOM     19  O   UNL     1       3.758   2.421  18.127  0.00  0.00    +0.000 OA
ENDROOT
BRANCH   1  20
ATOM     20  C   UNL     1       2.089   3.373  20.433  0.00  0.00    +0.000 C 
BRANCH  20  22
ATOM     21  C   UNL     1       0.375   2.133  19.005  0.00  0.00    +0.000 C 
ATOM     22  C   UNL     1       0.753   3.179  19.758  0.00  0.00    +0.000 C 
ENDBRANCH  20  22
ENDBRANCH   1  20
TORSDOF 2
ENDMDL
MODEL 3
REMARK VINA RESULT:      -6.6      3.303      5.065
REMARK  Name = 
REMARK  2 active torsions:
REMARK  status: ('A' for Active; 'I' for Inactive)
REMARK    1  A    between atoms: C_2  and  C_3
REMARK    2  A    between atoms: C_3  and  N_4
REMARK                            x       y       z     vdW  Elec       q    Type
REMARK                         _______ _______ _______ _____ _____    ______ ____
ROOT
ATOM      1  N   UNL     1       6.949   6.274  17.581  0.00  0.00    +0.000 NA
ATOM      2  C   UNL     1       5.775   6.958  17.025  0.00  0.00    +0.000 C 
ATOM      3  C   UNL     1       4.380   6.686  17.542  0.00  0.00    +0.000 A 
ATOM      4  C   UNL     1       3.657   7.812  18.005  0.00  0.00    +0.000 A 
ATOM      5  C   UNL     1       2.310   7.734  18.362  0.00  0.00    +0.000 A 
ATOM      6  C   UNL     1       1.646   6.519  18.282  0.00  0.00    +0.000 A 
ATOM      7  C   UNL     1       2.339   5.388  17.859  0.00  0.00    +0.000 A 
ATOM      8  C   UNL     1       3.689   5.462  17.473  0.00  0.00    +0.000 A 
ATOM      9  O   UNL     1       4.211   4.233  17.131  0.00  0.00    +0.000 OA
ATOM     10  C   UNL     1       4.946   4.149  15.984  0.00  0.00    +0.000 A 
ATOM     11  C   UNL     1       4.290   3.910  14.777  0.00  0.00    +0.000 A 
ATOM     12  C   UNL     1       5.028   3.832  13.593  0.00  0.00    +0.000 A 
ATOM     13  C   UNL     1       6.416   3.971  13.628  0.00  0.00    +0.000 A 
ATOM     14 CL   UNL     1       7.310   3.950  12.157  0.00  0.00    +0.000 Cl
ATOM     15  C   UNL     1       7.083   4.158  14.836  0.00  0.00    +0.000 A 
ATOM     16  C   UNL     1       6.337   4.231  16.016  0.00  0.00    +0.000 A 
ATOM     17  S   UNL     1       7.142   4.615  17.538  0.00  0.00    +0.000 S 
ATOM     18  O   UNL     1       6.437   4.023  18.651  0.00  0.00    +0.000 OA
ATOM     19  O   UNL     1       8.556   4.346  17.355  0.00  0.00    +0.000 OA
ENDROOT
BRANCH   1  20
ATOM     20  C   UNL     1       7.844   7.053  18.438  0.00  0.00    +0.000 C 
BRANCH  20  22
ATOM     21  C   UNL     1       8.611   9.487  18.449  0.00  0.00    +0.000 C 
ATOM     22  C   UNL     1       8.092   8.414  17.833  0.00  0.00    +0.000 C 
ENDBRANCH  20  22
ENDBRANCH   1  20
TORSDOF 2
ENDMDL
MODEL 4
REMARK VINA RESULT:      -6.5      5.648      8.352
REMARK  Name = 
REMARK  2 active torsions:
REMARK  status: ('A' for Active; 'I' for Inactive)
REMARK    1  A    between atoms: C_2  and  C_3
REMARK    2  A    between atoms: C_3  and  N_4
REMARK                            x       y       z     vdW  Elec       q    Type
REMARK                         _______ _______ _______ _____ _____    ______ ____
ROOT
ATOM      1  N   UNL     1      -0.877  11.527  21.017  0.00  0.00    +0.000 NA
ATOM      2  C   UNL     1      -0.783  10.077  20.806  0.00  0.00    +0.000 C 
ATOM      3  C   UNL     1       0.346   9.463  20.009  0.00  0.00    +0.000 A 
ATOM      4  C   UNL     1       1.114   8.477  20.674  0.00  0.00    +0.000 A 
ATOM      5  C   UNL     1       2.080   7.717  20.013  0.00  0.00    +0.000 A 
ATOM      6  C   UNL     1       2.321   7.934  18.665  0.00  0.00    +0.000 A 
ATOM      7  C   UNL     1       1.603   8.917  17.990  0.00  0.00    +0.000 A 
ATOM      8  C   UNL     1       0.609   9.668  18.642  0.00  0.00    +0.000 A 
ATOM      9  O   UNL     1       0.043  10.623  17.823  0.00  0.00    +0.000 OA
ATOM     10  C   UNL     1      -1.318  10.731  17.815  0.00  0.00    +0.000 A 
ATOM     11  C   UNL     1      -2.055   9.928  16.945  0.00  0.00    +0.000 A 
ATOM     12  C   UNL     1      -3.448  10.020  16.933  0.00  0.00    +0.000 A 
ATOM     13  C   UNL     1      -4.093  10.928  17.774  0.00  0.00    +0.000 A 
ATOM     14 CL   UNL     1      -5.813  10.981  17.810  0.00  0.00    +0.000 Cl
ATOM     15  C   UNL     1      -3.361  11.769  18.608  0.00  0.00    +0.000 A 
ATOM     16  C   UNL     1      -1.966  11.673  18.610  0.00  0.00    +0.000 A 
ATOM     17  S   UNL     1      -1.026  12.621  19.763  0.00  0.00    +0.000 S 
ATOM     18  O   UNL     1       0.283  12.918  19.230  0.00  0.00    +0.000 OA
ATOM     19  O   UNL     1      -1.877  13.700  20.227  0.00  0.00    +0.000 OA
ENDROOT
BRANCH   1  20
ATOM     20  C   UNL     1      -0.557  12.040  22.350  0.00  0.00    +0.000 C 
BRANCH  20  22
ATOM     21  C   UNL     1      -2.912  12.193  23.322  0.00  0.00    +0.000 C 
ATOM     22  C   UNL     1      -1.663  11.700  23.319  0.00  0.00    +0.000 C 
ENDBRANCH  20  22
ENDBRANCH   1  20
TORSDOF 2
ENDMDL
MODEL 5
REMARK VINA RESULT:      -6.3      2.488      4.458
REMARK  Name = 
REMARK  2 active torsions:
REMARK  status: ('A' for Active; 'I' for Inactive)
REMARK    1  A    between atoms: C_2  and  C_3
REMARK    2  A    between atoms: C_3  and  N_4
REMARK                            x       y       z     vdW  Elec       q    Type
REMARK                         _______ _______ _______ _____ _____    ______ ____
ROOT
ATOM      1  N   UNL     1       4.313   5.714  17.562  0.00  0.00    +0.000 NA
ATOM      2  C   UNL     1       2.991   6.329  17.392  0.00  0.00    +0.000 C 
ATOM      3  C   UNL     1       2.501   7.424  18.312  0.00  0.00    +0.000 A 
ATOM      4  C   UNL     1       2.115   8.635  17.688  0.00  0.00    +0.000 A 
ATOM      5  C   UNL     1       1.498   9.670  18.392  0.00  0.00    +0.000 A 
ATOM      6  C   UNL     1       1.264   9.532  19.752  0.00  0.00    +0.000 A 
ATOM      7  C   UNL     1       1.661   8.365  20.400  0.00  0.00    +0.000 A 
ATOM      8  C   UNL     1       2.258   7.306  19.692  0.00  0.00    +0.000 A 
ATOM      9  O   UNL     1       2.621   6.259  20.512  0.00  0.00    +0.000 OA
ATOM     10  C   UNL     1       2.299   4.994  20.112  0.00  0.00    +0.000 A 
ATOM     11  C   UNL     1       1.049   4.477  20.450  0.00  0.00    +0.000 A 
ATOM     12  C   UNL     1       0.701   3.188  20.039  0.00  0.00    +0.000 A 
ATOM     13  C   UNL     1       1.612   2.419  19.313  0.00  0.00    +0.000 A 
ATOM     14 CL   UNL     1       1.148   0.863  18.744  0.00  0.00    +0.000 Cl
ATOM     15  C   UNL     1       2.881   2.910  19.018  0.00  0.00    +0.000 A 
ATOM     16  C   UNL     1       3.223   4.199  19.437  0.00  0.00    +0.000 A 
ATOM     17  S   UNL     1       4.767   4.898  18.948  0.00  0.00    +0.000 S 
ATOM     18  O   UNL     1       5.230   5.849  19.932  0.00  0.00    +0.000 OA
ATOM     19  O   UNL     1       5.626   3.801  18.545  0.00  0.00    +0.000 OA
ENDROOT
BRANCH   1  20
ATOM     20  C   UNL     1       5.353   6.064  16.593  0.00  0.00    +0.000 C 
BRANCH  20  22
ATOM     21  C   UNL     1       7.494   7.141  17.469  0.00  0.00    +0.000 C 
ATOM     22  C   UNL     1       6.198   7.197  17.121  0.00  0.00    +0.000 C 
ENDBRANCH  20  22
ENDBRANCH   1  20
TORSDOF 2
ENDMDL
MODEL 6
REMARK VINA RESULT:      -6.3      2.531      4.405
REMARK  Name = 
REMARK  2 active torsions:
REMARK  status: ('A' for Active; 'I' for Inactive)
REMARK    1  A    between atoms: C_2  and  C_3
REMARK    2  A    between atoms: C_3  and  N_4
REMARK                            x       y       z     vdW  Elec       q    Type
REMARK                         _______ _______ _______ _____ _____    ______ ____
ROOT
ATOM      1  N   UNL     1       4.377   5.813  17.560  0.00  0.00    +0.000 NA
ATOM      2  C   UNL     1       3.041   6.398  17.381  0.00  0.00    +0.000 C 
ATOM      3  C   UNL     1       2.519   7.478  18.301  0.00  0.00    +0.000 A 
ATOM      4  C   UNL     1       2.110   8.682  17.678  0.00  0.00    +0.000 A 
ATOM      5  C   UNL     1       1.465   9.700  18.382  0.00  0.00    +0.000 A 
ATOM      6  C   UNL     1       1.223   9.551  19.739  0.00  0.00    +0.000 A 
ATOM      7  C   UNL     1       1.641   8.392  20.386  0.00  0.00    +0.000 A 
ATOM      8  C   UNL     1       2.268   7.350  19.679  0.00  0.00    +0.000 A 
ATOM      9  O   UNL     1       2.649   6.308  20.498  0.00  0.00    +0.000 OA
ATOM     10  C   UNL     1       2.359   5.038  20.091  0.00  0.00    +0.000 A 
ATOM     11  C   UNL     1       1.118   4.490  20.417  0.00  0.00    +0.000 A 
ATOM     12  C   UNL     1       0.804   3.196  19.998  0.00  0.00    +0.000 A 
ATOM     13  C   UNL     1       1.738   2.450  19.278  0.00  0.00    +0.000 A 
ATOM     14 CL   UNL     1       1.315   0.886  18.699  0.00  0.00    +0.000 Cl
ATOM     15  C   UNL     1       2.998   2.972  18.994  0.00  0.00    +0.000 A 
ATOM     16  C   UNL     1       3.306   4.267  19.421  0.00  0.00    +0.000 A 
ATOM     17  S   UNL     1       4.837   5.003  18.946  0.00  0.00    +0.000 S 
ATOM     18  O   UNL     1       5.270   5.960  19.938  0.00  0.00    +0.000 OA
ATOM     19  O   UNL     1       5.725   3.927  18.546  0.00  0.00    +0.000 OA
ENDROOT
BRANCH   1  20
ATOM     20  C   UNL     1       5.415   6.190  16.600  0.00  0.00    +0.000 C 
BRANCH  20  22
ATOM     21  C   UNL     1       5.794   4.207  15.039  0.00  0.00    +0.000 C 
ATOM     22  C   UNL     1       5.255   5.404  15.322  0.00  0.00    +0.000 C 
ENDBRANCH  20  22
ENDBRANCH   1  20
TORSDOF 2
ENDMDL
MODEL 7
REMARK VINA RESULT:      -6.2      2.916      5.167
REMARK  Name = 
REMARK  2 active torsions:
REMARK  status: ('A' for Active; 'I' for Inactive)
REMARK    1  A    between atoms: C_2  and  C_3
REMARK    2  A    between atoms: C_3  and  N_4
REMARK                            x       y       z     vdW  Elec       q    Type
REMARK                         _______ _______ _______ _____ _____    ______ ____
ROOT
ATOM      1  N   UNL     1       3.611   3.395  18.128  0.00  0.00    +0.000 NA
ATOM      2  C   UNL     1       3.618   3.848  16.731  0.00  0.00    +0.000 C 
ATOM      3  C   UNL     1       4.906   4.173  16.008  0.00  0.00    +0.000 A 
ATOM      4  C   UNL     1       5.140   3.465  14.805  0.00  0.00    +0.000 A 
ATOM      5  C   UNL     1       6.205   3.774  13.957  0.00  0.00    +0.000 A 
ATOM      6  C   UNL     1       7.081   4.794  14.297  0.00  0.00    +0.000 A 
ATOM      7  C   UNL     1       6.894   5.487  15.490  0.00  0.00    +0.000 A 
ATOM      8  C   UNL     1       5.809   5.201  16.336  0.00  0.00    +0.000 A 
ATOM      9  O   UNL     1       5.820   5.959  17.488  0.00  0.00    +0.000 OA
ATOM     10  C   UNL     1       4.651   6.546  17.876  0.00  0.00    +0.000 A 
ATOM     11  C   UNL     1       4.325   7.804  17.368  0.00  0.00    +0.000 A 
ATOM     12  C   UNL     1       3.127   8.413  17.747  0.00  0.00    +0.000 A 
ATOM     13  C   UNL     1       2.275   7.772  18.649  0.00  0.00    +0.000 A 
ATOM     14 CL   UNL     1       0.765   8.493  19.052  0.00  0.00    +0.000 Cl
ATOM     15  C   UNL     1       2.619   6.540  19.200  0.00  0.00    +0.000 A 
ATOM     16  C   UNL     1       3.822   5.940  18.818  0.00  0.00    +0.000 A 
ATOM     17  S   UNL     1       4.208   4.316  19.387  0.00  0.00    +0.000 S 
ATOM     18  O   UNL     1       5.639   4.134  19.474  0.00  0.00    +0.000 OA
ATOM     19  O   UNL     1       3.377   4.058  20.547  0.00  0.00    +0.000 OA
ENDROOT
BRANCH   1  20
ATOM     20  C   UNL     1       3.319   1.983  18.380  0.00  0.00    +0.000 C 
BRANCH  20  22
ATOM     21  C   UNL     1       0.853   2.569  18.682  0.00  0.00    +0.000 C 
ATOM     22  C   UNL     1       1.938   1.833  18.970  0.00  0.00    +0.000 C 
ENDBRANCH  20  22
ENDBRANCH   1  20
TORSDOF 2
ENDMDL
MODEL 8
REMARK VINA RESULT:      -5.9      7.262      8.767
REMARK  Name = 
REMARK  2 active torsions:
REMARK  status: ('A' for Active; 'I' for Inactive)
REMARK    1  A    between atoms: C_2  and  C_3
REMARK    2  A    between atoms: C_3  and  N_4
REMARK                            x       y       z     vdW  Elec       q    Type
REMARK                         _______ _______ _______ _____ _____    ______ ____
ROOT
ATOM      1  N   UNL     1      -2.182  12.496  21.309  0.00  0.00    +0.000 NA
ATOM      2  C   UNL     1      -2.373  12.752  19.875  0.00  0.00    +0.000 C 
ATOM      3  C   UNL     1      -2.336  11.634  18.858  0.00  0.00    +0.000 A 
ATOM      4  C   UNL     1      -3.482  11.502  18.037  0.00  0.00    +0.000 A 
ATOM      5  C   UNL     1      -3.523  10.620  16.956  0.00  0.00    +0.000 A 
ATOM      6  C   UNL     1      -2.420   9.828  16.672  0.00  0.00    +0.000 A 
ATOM      7  C   UNL     1      -1.290   9.914  17.480  0.00  0.00    +0.000 A 
ATOM      8  C   UNL     1      -1.230  10.819  18.555  0.00  0.00    +0.000 A 
ATOM      9  O   UNL     1      -0.051  10.724  19.263  0.00  0.00    +0.000 OA
ATOM     10  C   UNL     1       0.596  11.883  19.582  0.00  0.00    +0.000 A 
ATOM     11  C   UNL     1       1.498  12.427  18.667  0.00  0.00    +0.000 A 
ATOM     12  C   UNL     1       2.160  13.618  18.974  0.00  0.00    +0.000 A 
ATOM     13  C   UNL     1       1.934  14.244  20.201  0.00  0.00    +0.000 A 
ATOM     14 CL   UNL     1       2.694  15.750  20.541  0.00  0.00    +0.000 Cl
ATOM     15  C   UNL     1       1.074  13.678  21.140  0.00  0.00    +0.000 A 
ATOM     16  C   UNL     1       0.419  12.484  20.826  0.00  0.00    +0.000 A 
ATOM     17  S   UNL     1      -0.785  11.829  21.936  0.00  0.00    +0.000 S 
ATOM     18  O   UNL     1      -0.850  10.390  21.823  0.00  0.00    +0.000 OA
ATOM     19  O   UNL     1      -0.554  12.441  23.230  0.00  0.00    +0.000 OA
ENDROOT
BRANCH   1  20
ATOM     20  C   UNL     1      -3.359  12.579  22.174  0.00  0.00    +0.000 C 
BRANCH  20  22
ATOM     21  C   UNL     1      -5.779  12.541  21.365  0.00  0.00    +0.000 C 
ATOM     22  C   UNL     1      -4.549  13.078  21.390  0.00  0.00    +0.000 C 
ENDBRANCH  20  22
ENDBRANCH   1  20
TORSDOF 2
ENDMDL
MODEL 9
REMARK VINA RESULT:      -5.8      7.553      9.749
REMARK  Name = 
REMARK  2 active torsions:
REMARK  status: ('A' for Active; 'I' for Inactive)
REMARK    1  A    between atoms: C_2  and  C_3
REMARK    2  A    between atoms: C_3  and  N_4
REMARK                            x       y       z     vdW  Elec       q    Type
REMARK                         _______ _______ _______ _____ _____    ______ ____
ROOT
ATOM      1  N   UNL     1      -0.825  11.599  20.123  0.00  0.00    +0.000 NA
ATOM      2  C   UNL     1      -1.212  12.980  19.808  0.00  0.00    +0.000 C 
ATOM      3  C   UNL     1      -0.218  14.118  19.877  0.00  0.00    +0.000 A 
ATOM      4  C   UNL     1      -0.059  14.878  18.694  0.00  0.00    +0.000 A 
ATOM      5  C   UNL     1       0.702  16.048  18.660  0.00  0.00    +0.000 A 
ATOM      6  C   UNL     1       1.343  16.485  19.809  0.00  0.00    +0.000 A 
ATOM      7  C   UNL     1       1.230  15.741  20.981  0.00  0.00    +0.000 A 
ATOM      8  C   UNL     1       0.443  14.577  21.031  0.00  0.00    +0.000 A 
ATOM      9  O   UNL     1       0.493  13.956  22.261  0.00  0.00    +0.000 OA
ATOM     10  C   UNL     1      -0.684  13.547  22.818  0.00  0.00    +0.000 A 
ATOM     11  C   UNL     1      -1.411  14.447  23.597  0.00  0.00    +0.000 A 
ATOM     12  C   UNL     1      -2.623  14.047  24.164  0.00  0.00    +0.000 A 
ATOM     13  C   UNL     1      -3.088  12.746  23.967  0.00  0.00    +0.000 A 
ATOM     14 CL   UNL     1      -4.619  12.284  24.604  0.00  0.00    +0.000 Cl
ATOM     15  C   UNL     1      -2.342  11.827  23.234  0.00  0.00    +0.000 A 
ATOM     16  C   UNL     1      -1.128  12.235  22.673  0.00  0.00    +0.000 A 
ATOM     17  S   UNL     1      -0.239  11.136  21.618  0.00  0.00    +0.000 S 
ATOM     18  O   UNL     1       1.179  11.406  21.680  0.00  0.00    +0.000 OA
ATOM     19  O   UNL     1      -0.730   9.797  21.881  0.00  0.00    +0.000 OA
ENDROOT
BRANCH   1  20
ATOM     20  C   UNL     1      -0.696  10.660  19.007  0.00  0.00    +0.000 C 
BRANCH  20  22
ATOM     21  C   UNL     1      -2.711   9.914  17.631  0.00  0.00    +0.000 C 
ATOM     22  C   UNL     1      -1.834  10.847  18.034  0.00  0.00    +0.000 C 
ENDBRANCH  20  22
ENDBRANCH   1  20
TORSDOF 2
ENDMDL
