MODEL 1
REMARK VINA RESULT:      -6.8      0.000      0.000
REMARK  Name = 
REMARK  0 active torsions:
REMARK  status: ('A' for Active; 'I' for Inactive)
REMARK                            x       y       z     vdW  Elec       q    Type
REMARK                         _______ _______ _______ _____ _____    ______ ____
ROOT
ATOM      1  C   UNL     1       7.035   4.853  14.954  0.00  0.00    +0.000 A 
ATOM      2  C   UNL     1       5.985   3.981  15.125  0.00  0.00    +0.000 A 
ATOM      3  N   UNL     1       5.548   4.177  16.407  0.00  0.00    +0.000 N 
ATOM      4  N   UNL     1       4.506   3.525  16.992  0.00  0.00    +0.000 NA
ATOM      5  C   UNL     1       4.242   3.899  18.221  0.00  0.00    +0.000 A 
ATOM      6  N   UNL     1       3.172   3.316  18.883  0.00  0.00    +0.000 N 
ATOM      7  C   UNL     1       2.301   2.315  18.275  0.00  0.00    +0.000 C 
ATOM      8  C   UNL     1       0.935   2.617  18.877  0.00  0.00    +0.000 C 
ATOM      9  C   UNL     1       1.273   3.058  20.290  0.00  0.00    +0.000 C 
ATOM     10  C   UNL     1       2.600   3.796  20.137  0.00  0.00    +0.000 C 
ATOM     11  C   UNL     1       5.066   4.950  18.923  0.00  0.00    +0.000 A 
ATOM     12  C   UNL     1       6.076   5.541  18.275  0.00  0.00    +0.000 A 
ATOM     13  C   UNL     1       6.349   5.163  16.949  0.00  0.00    +0.000 A 
ATOM     14  N   UNL     1       7.257   5.584  16.095  0.00  0.00    +0.000 NA
ENDROOT
TORSDOF 0
ENDMDL
MODEL 2
REMARK VINA RESULT:      -6.7      1.174      1.179
REMARK  Name = 
REMARK  0 active torsions:
REMARK  status: ('A' for Active; 'I' for Inactive)
REMARK                            x       y       z     vdW  Elec       q    Type
REMARK                         _______ _______ _______ _____ _____    ______ ____
ROOT
ATOM      1  C   UNL     1       6.604   4.676  14.622  0.00  0.00    +0.000 A 
ATOM      2  C   UNL     1       5.983   3.701  15.367  0.00  0.00    +0.000 A 
ATOM      3  N   UNL     1       5.222   4.368  16.287  0.00  0.00    +0.000 N 
ATOM      4  N   UNL     1       4.424   3.784  17.223  0.00  0.00    +0.000 NA
ATOM      5  C   UNL     1       3.758   4.622  17.980  0.00  0.00    +0.000 A 
ATOM      6  N   UNL     1       2.890   4.116  18.936  0.00  0.00    +0.000 N 
ATOM      7  C   UNL     1       2.658   2.688  19.133  0.00  0.00    +0.000 C 
ATOM      8  C   UNL     1       1.187   2.615  19.521  0.00  0.00    +0.000 C 
ATOM      9  C   UNL     1       0.985   3.879  20.339  0.00  0.00    +0.000 C 
ATOM     10  C   UNL     1       1.902   4.900  19.670  0.00  0.00    +0.000 C 
ATOM     11  C   UNL     1       3.907   6.116  17.831  0.00  0.00    +0.000 A 
ATOM     12  C   UNL     1       4.715   6.609  16.885  0.00  0.00    +0.000 A 
ATOM     13  C   UNL     1       5.414   5.716  16.053  0.00  0.00    +0.000 A 
ATOM     14  N   UNL     1       6.247   5.929  15.057  0.00  0.00    +0.000 NA
ENDROOT
TORSDOF 0
ENDMDL
MODEL 3
REMARK VINA RESULT:      -6.5      2.037      5.603
REMARK  Name = 
REMARK  0 active torsions:
REMARK  status: ('A' for Active; 'I' for Inactive)
REMARK                            x       y       z     vdW  Elec       q    Type
REMARK                         _______ _______ _______ _____ _____    ______ ____
ROOT
ATOM      1  C   UNL     1       1.429   2.855  20.886  0.00  0.00    +0.000 A 
ATOM      2  C   UNL     1       2.802   2.931  20.867  0.00  0.00    +0.000 A 
ATOM      3  N   UNL     1       3.109   3.811  19.865  0.00  0.00    +0.000 N 
ATOM      4  N   UNL     1       4.367   4.194  19.510  0.00  0.00    +0.000 NA
ATOM      5  C   UNL     1       4.421   5.075  18.542  0.00  0.00    +0.000 A 
ATOM      6  N   UNL     1       5.660   5.552  18.140  0.00  0.00    +0.000 N 
ATOM      7  C   UNL     1       6.918   5.139  18.756  0.00  0.00    +0.000 C 
ATOM      8  C   UNL     1       7.774   6.397  18.698  0.00  0.00    +0.000 C 
ATOM      9  C   UNL     1       7.359   7.035  17.384  0.00  0.00    +0.000 C 
ATOM     10  C   UNL     1       5.873   6.704  17.268  0.00  0.00    +0.000 C 
ATOM     11  C   UNL     1       3.174   5.587  17.864  0.00  0.00    +0.000 A 
ATOM     12  C   UNL     1       1.975   5.157  18.273  0.00  0.00    +0.000 A 
ATOM     13  C   UNL     1       1.907   4.231  19.328  0.00  0.00    +0.000 A 
ATOM     14  N   UNL     1       0.879   3.665  19.923  0.00  0.00    +0.000 NA
ENDROOT
TORSDOF 0
ENDMDL
MODEL 4
REMARK VINA RESULT:      -6.5      1.461      2.384
REMARK  Name = 
REMARK  0 active torsions:
REMARK  status: ('A' for Active; 'I' for Inactive)
REMARK                            x       y       z     vdW  Elec       q    Type
REMARK                         _______ _______ _______ _____ _____    ______ ____
ROOT
ATOM      1  C   UNL     1       7.938   5.618  18.412  0.00  0.00    +0.000 A 
ATOM      2  C   UNL     1       6.922   5.595  19.339  0.00  0.00    +0.000 A 
ATOM      3  N   UNL     1       5.859   5.009  18.708  0.00  0.00    +0.000 N 
ATOM      4  N   UNL     1       4.642   4.771  19.269  0.00  0.00    +0.000 NA
ATOM      5  C   UNL     1       3.782   4.167  18.485  0.00  0.00    +0.000 A 
ATOM      6  N   UNL     1       2.528   3.849  18.986  0.00  0.00    +0.000 N 
ATOM      7  C   UNL     1       2.116   4.134  20.357  0.00  0.00    +0.000 C 
ATOM      8  C   UNL     1       1.210   2.961  20.709  0.00  0.00    +0.000 C 
ATOM      9  C   UNL     1       0.508   2.664  19.396  0.00  0.00    +0.000 C 
ATOM     10  C   UNL     1       1.566   2.964  18.337  0.00  0.00    +0.000 C 
ATOM     11  C   UNL     1       4.127   3.803  17.062  0.00  0.00    +0.000 A 
ATOM     12  C   UNL     1       5.347   4.074  16.587  0.00  0.00    +0.000 A 
ATOM     13  C   UNL     1       6.283   4.700  17.429  0.00  0.00    +0.000 A 
ATOM     14  N   UNL     1       7.531   5.061  17.224  0.00  0.00    +0.000 NA
ENDROOT
TORSDOF 0
ENDMDL
MODEL 5
REMARK VINA RESULT:      -6.3      1.305      5.613
REMARK  Name = 
REMARK  0 active torsions:
REMARK  status: ('A' for Active; 'I' for Inactive)
REMARK                            x       y       z     vdW  Elec       q    Type
REMARK                         _______ _______ _______ _____ _____    ______ ____
ROOT
ATOM      1  C   UNL     1       1.451   2.877  21.351  0.00  0.00    +0.000 A 
ATOM      2  C   UNL     1       2.777   3.230  21.254  0.00  0.00    +0.000 A 
ATOM      3  N   UNL     1       3.020   3.388  19.917  0.00  0.00    +0.000 N 
ATOM      4  N   UNL     1       4.212   3.754  19.370  0.00  0.00    +0.000 NA
ATOM      5  C   UNL     1       4.205   3.877  18.065  0.00  0.00    +0.000 A 
ATOM      6  N   UNL     1       5.366   4.284  17.425  0.00  0.00    +0.000 N 
ATOM      7  C   UNL     1       6.602   4.608  18.133  0.00  0.00    +0.000 C 
ATOM      8  C   UNL     1       7.201   5.739  17.307  0.00  0.00    +0.000 C 
ATOM      9  C   UNL     1       6.822   5.364  15.886  0.00  0.00    +0.000 C 
ATOM     10  C   UNL     1       5.451   4.709  16.031  0.00  0.00    +0.000 C 
ATOM     11  C   UNL     1       2.968   3.596  17.249  0.00  0.00    +0.000 A 
ATOM     12  C   UNL     1       1.836   3.239  17.865  0.00  0.00    +0.000 A 
ATOM     13  C   UNL     1       1.829   3.129  19.267  0.00  0.00    +0.000 A 
ATOM     14  N   UNL     1       0.868   2.814  20.109  0.00  0.00    +0.000 NA
ENDROOT
TORSDOF 0
ENDMDL
MODEL 6
REMARK VINA RESULT:      -6.2      1.928      2.464
REMARK  Name = 
REMARK  0 active torsions:
REMARK  status: ('A' for Active; 'I' for Inactive)
REMARK                            x       y       z     vdW  Elec       q    Type
REMARK                         _______ _______ _______ _____ _____    ______ ____
ROOT
ATOM      1  C   UNL     1       7.947   6.492  18.597  0.00  0.00    +0.000 A 
ATOM      2  C   UNL     1       7.231   5.619  19.383  0.00  0.00    +0.000 A 
ATOM      3  N   UNL     1       5.986   5.549  18.820  0.00  0.00    +0.000 N 
ATOM      4  N   UNL     1       4.957   4.782  19.273  0.00  0.00    +0.000 NA
ATOM      5  C   UNL     1       3.863   4.847  18.554  0.00  0.00    +0.000 A 
ATOM      6  N   UNL     1       2.775   4.069  18.919  0.00  0.00    +0.000 N 
ATOM      7  C   UNL     1       2.788   3.155  20.059  0.00  0.00    +0.000 C 
ATOM      8  C   UNL     1       1.914   1.996  19.597  0.00  0.00    +0.000 C 
ATOM      9  C   UNL     1       0.850   2.681  18.758  0.00  0.00    +0.000 C 
ATOM     10  C   UNL     1       1.594   3.837  18.093  0.00  0.00    +0.000 C 
ATOM     11  C   UNL     1       3.763   5.738  17.341  0.00  0.00    +0.000 A 
ATOM     12  C   UNL     1       4.823   6.463  16.964  0.00  0.00    +0.000 A 
ATOM     13  C   UNL     1       6.008   6.379  17.715  0.00  0.00    +0.000 A 
ATOM     14  N   UNL     1       7.177   6.963  17.561  0.00  0.00    +0.000 NA
ENDROOT
TORSDOF 0
ENDMDL
MODEL 7
REMARK VINA RESULT:      -6.2      2.031      2.743
REMARK  Name = 
REMARK  0 active torsions:
REMARK  status: ('A' for Active; 'I' for Inactive)
REMARK                            x       y       z     vdW  Elec       q    Type
REMARK                         _______ _______ _______ _____ _____    ______ ____
ROOT
ATOM      1  C   UNL     1       8.216   7.403  18.203  0.00  0.00    +0.000 A 
ATOM      2  C   UNL     1       7.779   6.281  18.868  0.00  0.00    +0.000 A 
ATOM      3  N   UNL     1       6.560   5.981  18.322  0.00  0.00    +0.000 N 
ATOM      4  N   UNL     1       5.774   4.928  18.678  0.00  0.00    +0.000 NA
ATOM      5  C   UNL     1       4.660   4.816  17.996  0.00  0.00    +0.000 A 
ATOM      6  N   UNL     1       3.816   3.749  18.264  0.00  0.00    +0.000 N 
ATOM      7  C   UNL     1       4.112   2.721  19.258  0.00  0.00    +0.000 C 
ATOM      8  C   UNL     1       3.524   1.455  18.649  0.00  0.00    +0.000 C 
ATOM      9  C   UNL     1       2.282   1.962  17.938  0.00  0.00    +0.000 C 
ATOM     10  C   UNL     1       2.685   3.345  17.435  0.00  0.00    +0.000 C 
ATOM     11  C   UNL     1       4.282   5.811  16.928  0.00  0.00    +0.000 A 
ATOM     12  C   UNL     1       5.111   6.820  16.640  0.00  0.00    +0.000 A 
ATOM     13  C   UNL     1       6.319   6.933  17.350  0.00  0.00    +0.000 A 
ATOM     14  N   UNL     1       7.301   7.805  17.261  0.00  0.00    +0.000 NA
ENDROOT
TORSDOF 0
ENDMDL
MODEL 8
REMARK VINA RESULT:      -6.2      1.453      5.567
REMARK  Name = 
REMARK  0 active torsions:
REMARK  status: ('A' for Active; 'I' for Inactive)
REMARK                            x       y       z     vdW  Elec       q    Type
REMARK                         _______ _______ _______ _____ _____    ______ ____
ROOT
ATOM      1  C   UNL     1       1.485   3.248  21.568  0.00  0.00    +0.000 A 
ATOM      2  C   UNL     1       2.195   4.317  21.072  0.00  0.00    +0.000 A 
ATOM      3  N   UNL     1       2.799   3.861  19.932  0.00  0.00    +0.000 N 
ATOM      4  N   UNL     1       3.593   4.601  19.110  0.00  0.00    +0.000 NA
ATOM      5  C   UNL     1       4.038   3.965  18.054  0.00  0.00    +0.000 A 
ATOM      6  N   UNL     1       4.822   4.652  17.140  0.00  0.00    +0.000 N 
ATOM      7  C   UNL     1       5.166   6.065  17.279  0.00  0.00    +0.000 C 
ATOM      8  C   UNL     1       5.198   6.568  15.841  0.00  0.00    +0.000 C 
ATOM      9  C   UNL     1       5.750   5.379  15.074  0.00  0.00    +0.000 C 
ATOM     10  C   UNL     1       5.177   4.170  15.809  0.00  0.00    +0.000 C 
ATOM     11  C   UNL     1       3.711   2.513  17.807  0.00  0.00    +0.000 A 
ATOM     12  C   UNL     1       2.924   1.857  18.666  0.00  0.00    +0.000 A 
ATOM     13  C   UNL     1       2.422   2.539  19.788  0.00  0.00    +0.000 A 
ATOM     14  N   UNL     1       1.634   2.144  20.765  0.00  0.00    +0.000 NA
ENDROOT
TORSDOF 0
ENDMDL
MODEL 9
REMARK VINA RESULT:      -6.2      1.381      2.258
REMARK  Name = 
REMARK  0 active torsions:
REMARK  status: ('A' for Active; 'I' for Inactive)
REMARK                            x       y       z     vdW  Elec       q    Type
REMARK                         _______ _______ _______ _____ _____    ______ ____
ROOT
ATOM      1  C   UNL     1       7.405   7.007  17.043  0.00  0.00    +0.000 A 
ATOM      2  C   UNL     1       6.283   7.072  17.836  0.00  0.00    +0.000 A 
ATOM      3  N   UNL     1       5.535   5.973  17.510  0.00  0.00    +0.000 N 
ATOM      4  N   UNL     1       4.342   5.636  18.072  0.00  0.00    +0.000 NA
ATOM      5  C   UNL     1       3.819   4.519  17.627  0.00  0.00    +0.000 A 
ATOM      6  N   UNL     1       2.622   4.077  18.171  0.00  0.00    +0.000 N 
ATOM      7  C   UNL     1       1.916   4.782  19.237  0.00  0.00    +0.000 C 
ATOM      8  C   UNL     1       1.297   3.659  20.058  0.00  0.00    +0.000 C 
ATOM      9  C   UNL     1       0.937   2.624  19.008  0.00  0.00    +0.000 C 
ATOM     10  C   UNL     1       2.050   2.750  17.971  0.00  0.00    +0.000 C 
ATOM     11  C   UNL     1       4.490   3.705  16.549  0.00  0.00    +0.000 A 
ATOM     12  C   UNL     1       5.663   4.108  16.048  0.00  0.00    +0.000 A 
ATOM     13  C   UNL     1       6.242   5.291  16.538  0.00  0.00    +0.000 A 
ATOM     14  N   UNL     1       7.371   5.897  16.235  0.00  0.00    +0.000 NA
ENDROOT
TORSDOF 0
ENDMDL
