MODEL 1
REMARK VINA RESULT:      -7.5      0.000      0.000
REMARK  Name = 
REMARK  8 active torsions:
REMARK  status: ('A' for Active; 'I' for Inactive)
REMARK    1  A    between atoms: C_1  and  C_2
REMARK    2  A    between atoms: C_2  and  C_15
REMARK    3  A    between atoms: N_3  and  N_4
REMARK    4  A    between atoms: N_4  and  C_5
REMARK    5  A    between atoms: C_5  and  N_7
REMARK    6  A    between atoms: N_7  and  C_8
REMARK    7  A    between atoms: C_13  and  C_14
REMARK    8  A    between atoms: C_18  and  O_19
REMARK                            x       y       z     vdW  Elec       q    Type
REMARK                         _______ _______ _______ _____ _____    ______ ____
ROOT
ATOM      1  N   UNL     1       4.277   4.370  19.847  0.00  0.00    +0.000 N 
ATOM      2  H   UNL     1       4.461   4.053  20.790  0.00  0.00    +0.000 HD
ENDROOT
BRANCH   1   5
ATOM      3  C   UNL     1       1.526   5.045  20.557  0.00  0.00    +0.000 C 
ATOM      4  C   UNL     1       2.542   5.925  19.866  0.00  0.00    +0.000 C 
ATOM      5  N   UNL     1       3.780   5.613  19.624  0.00  0.00    +0.000 NA
BRANCH   4   6
ATOM      6  C   UNL     1       2.114   7.313  19.486  0.00  0.00    +0.000 A 
ATOM      7  C   UNL     1       2.374   7.761  18.180  0.00  0.00    +0.000 A 
ATOM      8  C   UNL     1       1.970   9.036  17.768  0.00  0.00    +0.000 A 
ATOM      9  C   UNL     1       1.295   9.856  18.669  0.00  0.00    +0.000 A 
ATOM     10  C   UNL     1       1.024   9.426  19.961  0.00  0.00    +0.000 A 
ATOM     11  C   UNL     1       1.435   8.155  20.377  0.00  0.00    +0.000 A 
BRANCH   9  12
ATOM     12  O   UNL     1       0.877  11.102  18.309  0.00  0.00    +0.000 OA
ATOM     13  H   UNL     1       0.125  11.352  18.872  0.00  0.00    +0.000 HD
ENDBRANCH   9  12
ENDBRANCH   4   6
ENDBRANCH   1   5
BRANCH   1  14
ATOM     14  C   UNL     1       4.611   3.543  18.772  0.00  0.00    +0.000 C 
ATOM     15  S   UNL     1       3.624   2.305  18.199  0.00  0.00    +0.000 S 
BRANCH  14  16
ATOM     16  N   UNL     1       5.896   3.816  18.308  0.00  0.00    +0.000 N 
ATOM     17  H   UNL     1       6.260   3.082  17.713  0.00  0.00    +0.000 HD
BRANCH  16  18
ATOM     18  C   UNL     1       6.478   5.100  18.156  0.00  0.00    +0.000 A 
ATOM     19  C   UNL     1       7.500   5.499  19.030  0.00  0.00    +0.000 A 
ATOM     20  C   UNL     1       8.152   6.720  18.863  0.00  0.00    +0.000 A 
ATOM     21  C   UNL     1       7.803   7.552  17.806  0.00  0.00    +0.000 A 
ATOM     22  C   UNL     1       6.793   7.167  16.925  0.00  0.00    +0.000 A 
ATOM     23  C   UNL     1       6.116   5.943  17.086  0.00  0.00    +0.000 A 
ATOM     24  C   UNL     1       4.983   5.627  16.149  0.00  0.00    +0.000 C 
ENDBRANCH  16  18
ENDBRANCH  14  16
ENDBRANCH   1  14
TORSDOF 6
ENDMDL
MODEL 2
REMARK VINA RESULT:      -7.4      0.100      1.060
REMARK  Name = 
REMARK  8 active torsions:
REMARK  status: ('A' for Active; 'I' for Inactive)
REMARK    1  A    between atoms: C_1  and  C_2
REMARK    2  A    between atoms: C_2  and  C_15
REMARK    3  A    between atoms: N_3  and  N_4
REMARK    4  A    between atoms: N_4  and  C_5
REMARK    5  A    between atoms: C_5  and  N_7
REMARK    6  A    between atoms: N_7  and  C_8
REMARK    7  A    between atoms: C_13  and  C_14
REMARK    8  A    between atoms: C_18  and  O_19
REMARK                            x       y       z     vdW  Elec       q    Type
REMARK                         _______ _______ _______ _____ _____    ______ ____
ROOT
ATOM      1  N   UNL     1       4.387   4.406  19.882  0.00  0.00    +0.000 N 
ATOM      2  H   UNL     1       4.596   4.128  20.832  0.00  0.00    +0.000 HD
ENDROOT
BRANCH   1   5
ATOM      3  C   UNL     1       1.601   5.002  20.523  0.00  0.00    +0.000 C 
ATOM      4  C   UNL     1       2.602   5.903  19.836  0.00  0.00    +0.000 C 
ATOM      5  N   UNL     1       3.855   5.627  19.625  0.00  0.00    +0.000 NA
BRANCH   4   6
ATOM      6  C   UNL     1       2.137   7.268  19.420  0.00  0.00    +0.000 A 
ATOM      7  C   UNL     1       1.455   8.059  20.360  0.00  0.00    +0.000 A 
ATOM      8  C   UNL     1       1.024   9.349  20.032  0.00  0.00    +0.000 A 
ATOM      9  C   UNL     1       1.291   9.847  18.759  0.00  0.00    +0.000 A 
ATOM     10  C   UNL     1       1.970   9.082  17.820  0.00  0.00    +0.000 A 
ATOM     11  C   UNL     1       2.393   7.788  18.145  0.00  0.00    +0.000 A 
BRANCH   9  12
ATOM     12  O   UNL     1       0.897  11.101  18.397  0.00  0.00    +0.000 OA
ATOM     13  H   UNL     1      -0.041  11.211  18.631  0.00  0.00    +0.000 HD
ENDBRANCH   9  12
ENDBRANCH   4   6
ENDBRANCH   1   5
BRANCH   1  14
ATOM     14  C   UNL     1       4.723   3.550  18.831  0.00  0.00    +0.000 C 
ATOM     15  S   UNL     1       3.761   2.264  18.325  0.00  0.00    +0.000 S 
BRANCH  14  16
ATOM     16  N   UNL     1       5.989   3.843  18.328  0.00  0.00    +0.000 N 
ATOM     17  H   UNL     1       6.355   3.106  17.739  0.00  0.00    +0.000 HD
BRANCH  16  18
ATOM     18  C   UNL     1       6.537   5.137  18.135  0.00  0.00    +0.000 A 
ATOM     19  C   UNL     1       7.552   5.588  18.992  0.00  0.00    +0.000 A 
ATOM     20  C   UNL     1       8.171   6.821  18.785  0.00  0.00    +0.000 A 
ATOM     21  C   UNL     1       7.795   7.611  17.706  0.00  0.00    +0.000 A 
ATOM     22  C   UNL     1       6.791   7.174  16.842  0.00  0.00    +0.000 A 
ATOM     23  C   UNL     1       6.147   5.938  17.043  0.00  0.00    +0.000 A 
ATOM     24  C   UNL     1       5.018   5.565  16.122  0.00  0.00    +0.000 C 
ENDBRANCH  16  18
ENDBRANCH  14  16
ENDBRANCH   1  14
TORSDOF 6
ENDMDL
MODEL 3
REMARK VINA RESULT:      -7.4      2.748      5.972
REMARK  Name = 
REMARK  8 active torsions:
REMARK  status: ('A' for Active; 'I' for Inactive)
REMARK    1  A    between atoms: C_1  and  C_2
REMARK    2  A    between atoms: C_2  and  C_15
REMARK    3  A    between atoms: N_3  and  N_4
REMARK    4  A    between atoms: N_4  and  C_5
REMARK    5  A    between atoms: C_5  and  N_7
REMARK    6  A    between atoms: N_7  and  C_8
REMARK    7  A    between atoms: C_13  and  C_14
REMARK    8  A    between atoms: C_18  and  O_19
REMARK                            x       y       z     vdW  Elec       q    Type
REMARK                         _______ _______ _______ _____ _____    ______ ____
ROOT
ATOM      1  N   UNL     1       3.506   4.209  20.261  0.00  0.00    +0.000 N 
ATOM      2  H   UNL     1       3.837   3.513  20.917  0.00  0.00    +0.000 HD
ENDROOT
BRANCH   1   5
ATOM      3  C   UNL     1       3.497   2.518  17.880  0.00  0.00    +0.000 C 
ATOM      4  C   UNL     1       4.314   3.767  18.122  0.00  0.00    +0.000 C 
ATOM      5  N   UNL     1       4.244   4.531  19.170  0.00  0.00    +0.000 NA
BRANCH   4   6
ATOM      6  C   UNL     1       5.241   4.212  17.027  0.00  0.00    +0.000 A 
ATOM      7  C   UNL     1       6.535   4.635  17.375  0.00  0.00    +0.000 A 
ATOM      8  C   UNL     1       7.446   5.034  16.391  0.00  0.00    +0.000 A 
ATOM      9  C   UNL     1       7.057   4.995  15.054  0.00  0.00    +0.000 A 
ATOM     10  C   UNL     1       5.784   4.572  14.693  0.00  0.00    +0.000 A 
ATOM     11  C   UNL     1       4.870   4.182  15.677  0.00  0.00    +0.000 A 
BRANCH   9  12
ATOM     12  O   UNL     1       7.913   5.367  14.061  0.00  0.00    +0.000 OA
ATOM     13  H   UNL     1       8.793   5.002  14.257  0.00  0.00    +0.000 HD
ENDBRANCH   9  12
ENDBRANCH   4   6
ENDBRANCH   1   5
BRANCH   1  14
ATOM     14  C   UNL     1       2.245   4.779  20.451  0.00  0.00    +0.000 C 
ATOM     15  S   UNL     1       0.796   3.960  20.197  0.00  0.00    +0.000 S 
BRANCH  14  16
ATOM     16  N   UNL     1       2.349   6.129  20.783  0.00  0.00    +0.000 N 
ATOM     17  H   UNL     1       2.981   6.293  21.556  0.00  0.00    +0.000 HD
BRANCH  16  18
ATOM     18  C   UNL     1       2.111   7.227  19.917  0.00  0.00    +0.000 A 
ATOM     19  C   UNL     1       2.490   7.134  18.570  0.00  0.00    +0.000 A 
ATOM     20  C   UNL     1       2.200   8.160  17.670  0.00  0.00    +0.000 A 
ATOM     21  C   UNL     1       1.511   9.285  18.103  0.00  0.00    +0.000 A 
ATOM     22  C   UNL     1       1.123   9.390  19.438  0.00  0.00    +0.000 A 
ATOM     23  C   UNL     1       1.418   8.370  20.362  0.00  0.00    +0.000 A 
ATOM     24  C   UNL     1       1.042   8.584  21.803  0.00  0.00    +0.000 C 
ENDBRANCH  16  18
ENDBRANCH  14  16
ENDBRANCH   1  14
TORSDOF 6
ENDMDL
MODEL 4
REMARK VINA RESULT:      -7.3      2.658      5.976
REMARK  Name = 
REMARK  8 active torsions:
REMARK  status: ('A' for Active; 'I' for Inactive)
REMARK    1  A    between atoms: C_1  and  C_2
REMARK    2  A    between atoms: C_2  and  C_15
REMARK    3  A    between atoms: N_3  and  N_4
REMARK    4  A    between atoms: N_4  and  C_5
REMARK    5  A    between atoms: C_5  and  N_7
REMARK    6  A    between atoms: N_7  and  C_8
REMARK    7  A    between atoms: C_13  and  C_14
REMARK    8  A    between atoms: C_18  and  O_19
REMARK                            x       y       z     vdW  Elec       q    Type
REMARK                         _______ _______ _______ _____ _____    ______ ____
ROOT
ATOM      1  N   UNL     1       3.536   4.624  20.435  0.00  0.00    +0.000 N 
ATOM      2  H   UNL     1       3.906   4.052  21.184  0.00  0.00    +0.000 HD
ENDROOT
BRANCH   1   5
ATOM      3  C   UNL     1       3.768   2.622  18.322  0.00  0.00    +0.000 C 
ATOM      4  C   UNL     1       4.453   3.968  18.396  0.00  0.00    +0.000 C 
ATOM      5  N   UNL     1       4.275   4.862  19.323  0.00  0.00    +0.000 NA
BRANCH   4   6
ATOM      6  C   UNL     1       5.367   4.345  17.267  0.00  0.00    +0.000 A 
ATOM      7  C   UNL     1       5.049   3.904  15.971  0.00  0.00    +0.000 A 
ATOM      8  C   UNL     1       5.853   4.251  14.880  0.00  0.00    +0.000 A 
ATOM      9  C   UNL     1       6.972   5.051  15.093  0.00  0.00    +0.000 A 
ATOM     10  C   UNL     1       7.297   5.501  16.366  0.00  0.00    +0.000 A 
ATOM     11  C   UNL     1       6.498   5.148  17.459  0.00  0.00    +0.000 A 
BRANCH   9  12
ATOM     12  O   UNL     1       7.781   5.420  14.059  0.00  0.00    +0.000 OA
ATOM     13  H   UNL     1       8.669   5.602  14.409  0.00  0.00    +0.000 HD
ENDBRANCH   9  12
ENDBRANCH   4   6
ENDBRANCH   1   5
BRANCH   1  14
ATOM     14  C   UNL     1       2.228   5.105  20.527  0.00  0.00    +0.000 C 
ATOM     15  S   UNL     1       0.863   4.185  20.171  0.00  0.00    +0.000 S 
BRANCH  14  16
ATOM     16  N   UNL     1       2.212   6.459  20.856  0.00  0.00    +0.000 N 
ATOM     17  H   UNL     1       2.769   6.669  21.675  0.00  0.00    +0.000 HD
BRANCH  16  18
ATOM     18  C   UNL     1       1.967   7.536  19.966  0.00  0.00    +0.000 A 
ATOM     19  C   UNL     1       2.436   7.458  18.647  0.00  0.00    +0.000 A 
ATOM     20  C   UNL     1       2.146   8.460  17.721  0.00  0.00    +0.000 A 
ATOM     21  C   UNL     1       1.366   9.545  18.098  0.00  0.00    +0.000 A 
ATOM     22  C   UNL     1       0.887   9.635  19.405  0.00  0.00    +0.000 A 
ATOM     23  C   UNL     1       1.181   8.639  20.356  0.00  0.00    +0.000 A 
ATOM     24  C   UNL     1       0.701   8.838  21.767  0.00  0.00    +0.000 C 
ENDBRANCH  16  18
ENDBRANCH  14  16
ENDBRANCH   1  14
TORSDOF 6
ENDMDL
MODEL 5
REMARK VINA RESULT:      -7.3      0.691      1.699
REMARK  Name = 
REMARK  8 active torsions:
REMARK  status: ('A' for Active; 'I' for Inactive)
REMARK    1  A    between atoms: C_1  and  C_2
REMARK    2  A    between atoms: C_2  and  C_15
REMARK    3  A    between atoms: N_3  and  N_4
REMARK    4  A    between atoms: N_4  and  C_5
REMARK    5  A    between atoms: C_5  and  N_7
REMARK    6  A    between atoms: N_7  and  C_8
REMARK    7  A    between atoms: C_13  and  C_14
REMARK    8  A    between atoms: C_18  and  O_19
REMARK                            x       y       z     vdW  Elec       q    Type
REMARK                         _______ _______ _______ _____ _____    ______ ____
ROOT
ATOM      1  N   UNL     1       3.909   3.910  20.241  0.00  0.00    +0.000 N 
ATOM      2  H   UNL     1       3.872   3.580  21.197  0.00  0.00    +0.000 HD
ENDROOT
BRANCH   1   5
ATOM      3  C   UNL     1       1.137   4.803  20.461  0.00  0.00    +0.000 C 
ATOM      4  C   UNL     1       2.325   5.595  19.963  0.00  0.00    +0.000 C 
ATOM      5  N   UNL     1       3.558   5.185  19.940  0.00  0.00    +0.000 NA
BRANCH   4   6
ATOM      6  C   UNL     1       2.080   7.009  19.520  0.00  0.00    +0.000 A 
ATOM      7  C   UNL     1       2.450   7.377  18.216  0.00  0.00    +0.000 A 
ATOM      8  C   UNL     1       2.218   8.674  17.746  0.00  0.00    +0.000 A 
ATOM      9  C   UNL     1       1.602   9.598  18.586  0.00  0.00    +0.000 A 
ATOM     10  C   UNL     1       1.223   9.248  19.876  0.00  0.00    +0.000 A 
ATOM     11  C   UNL     1       1.463   7.954  20.350  0.00  0.00    +0.000 A 
BRANCH   9  12
ATOM     12  O   UNL     1       1.350  10.870  18.169  0.00  0.00    +0.000 OA
ATOM     13  H   UNL     1       0.971  11.371  18.911  0.00  0.00    +0.000 HD
ENDBRANCH   9  12
ENDBRANCH   4   6
ENDBRANCH   1   5
BRANCH   1  14
ATOM     14  C   UNL     1       4.396   3.061  19.245  0.00  0.00    +0.000 C 
ATOM     15  S   UNL     1       3.639   1.632  18.776  0.00  0.00    +0.000 S 
BRANCH  14  16
ATOM     16  N   UNL     1       5.628   3.503  18.766  0.00  0.00    +0.000 N 
ATOM     17  H   UNL     1       6.324   2.769  18.742  0.00  0.00    +0.000 HD
BRANCH  16  18
ATOM     18  C   UNL     1       5.845   4.607  17.903  0.00  0.00    +0.000 A 
ATOM     19  C   UNL     1       5.097   4.714  16.722  0.00  0.00    +0.000 A 
ATOM     20  C   UNL     1       5.224   5.825  15.888  0.00  0.00    +0.000 A 
ATOM     21  C   UNL     1       6.090   6.854  16.236  0.00  0.00    +0.000 A 
ATOM     22  C   UNL     1       6.837   6.766  17.410  0.00  0.00    +0.000 A 
ATOM     23  C   UNL     1       6.730   5.645  18.256  0.00  0.00    +0.000 A 
ATOM     24  C   UNL     1       7.624   5.577  19.463  0.00  0.00    +0.000 C 
ENDBRANCH  16  18
ENDBRANCH  14  16
ENDBRANCH   1  14
TORSDOF 6
ENDMDL
MODEL 6
REMARK VINA RESULT:      -7.1      2.119      4.023
REMARK  Name = 
REMARK  8 active torsions:
REMARK  status: ('A' for Active; 'I' for Inactive)
REMARK    1  A    between atoms: C_1  and  C_2
REMARK    2  A    between atoms: C_2  and  C_15
REMARK    3  A    between atoms: N_3  and  N_4
REMARK    4  A    between atoms: N_4  and  C_5
REMARK    5  A    between atoms: C_5  and  N_7
REMARK    6  A    between atoms: N_7  and  C_8
REMARK    7  A    between atoms: C_13  and  C_14
REMARK    8  A    between atoms: C_18  and  O_19
REMARK                            x       y       z     vdW  Elec       q    Type
REMARK                         _______ _______ _______ _____ _____    ______ ____
ROOT
ATOM      1  N   UNL     1       4.823   5.396  18.011  0.00  0.00    +0.000 N 
ATOM      2  H   UNL     1       4.708   5.013  17.081  0.00  0.00    +0.000 HD
ENDROOT
BRANCH   1   5
ATOM      3  C   UNL     1       1.910   5.375  17.804  0.00  0.00    +0.000 C 
ATOM      4  C   UNL     1       2.793   6.510  18.271  0.00  0.00    +0.000 C 
ATOM      5  N   UNL     1       4.084   6.461  18.412  0.00  0.00    +0.000 NA
BRANCH   4   6
ATOM      6  C   UNL     1       2.121   7.788  18.681  0.00  0.00    +0.000 A 
ATOM      7  C   UNL     1       1.675   7.917  20.007  0.00  0.00    +0.000 A 
ATOM      8  C   UNL     1       1.068   9.098  20.446  0.00  0.00    +0.000 A 
ATOM      9  C   UNL     1       0.919  10.155  19.551  0.00  0.00    +0.000 A 
ATOM     10  C   UNL     1       1.360  10.047  18.238  0.00  0.00    +0.000 A 
ATOM     11  C   UNL     1       1.959   8.863  17.796  0.00  0.00    +0.000 A 
BRANCH   9  12
ATOM     12  O   UNL     1       0.339  11.327  19.936  0.00  0.00    +0.000 OA
ATOM     13  H   UNL     1      -0.298  11.140  20.647  0.00  0.00    +0.000 HD
ENDBRANCH   9  12
ENDBRANCH   4   6
ENDBRANCH   1   5
BRANCH   1  14
ATOM     14  C   UNL     1       5.696   4.771  18.903  0.00  0.00    +0.000 C 
ATOM     15  S   UNL     1       7.185   5.409  19.361  0.00  0.00    +0.000 S 
BRANCH  14  16
ATOM     16  N   UNL     1       5.216   3.519  19.283  0.00  0.00    +0.000 N 
ATOM     17  H   UNL     1       5.954   2.889  19.571  0.00  0.00    +0.000 HD
BRANCH  16  18
ATOM     18  C   UNL     1       3.915   3.230  19.766  0.00  0.00    +0.000 A 
ATOM     19  C   UNL     1       3.412   3.951  20.859  0.00  0.00    +0.000 A 
ATOM     20  C   UNL     1       2.108   3.752  21.312  0.00  0.00    +0.000 A 
ATOM     21  C   UNL     1       1.282   2.842  20.665  0.00  0.00    +0.000 A 
ATOM     22  C   UNL     1       1.765   2.122  19.573  0.00  0.00    +0.000 A 
ATOM     23  C   UNL     1       3.083   2.301  19.110  0.00  0.00    +0.000 A 
ATOM     24  C   UNL     1       3.564   1.433  17.980  0.00  0.00    +0.000 C 
ENDBRANCH  16  18
ENDBRANCH  14  16
ENDBRANCH   1  14
TORSDOF 6
ENDMDL
MODEL 7
REMARK VINA RESULT:      -7.1      2.107      3.900
REMARK  Name = 
REMARK  8 active torsions:
REMARK  status: ('A' for Active; 'I' for Inactive)
REMARK    1  A    between atoms: C_1  and  C_2
REMARK    2  A    between atoms: C_2  and  C_15
REMARK    3  A    between atoms: N_3  and  N_4
REMARK    4  A    between atoms: N_4  and  C_5
REMARK    5  A    between atoms: C_5  and  N_7
REMARK    6  A    between atoms: N_7  and  C_8
REMARK    7  A    between atoms: C_13  and  C_14
REMARK    8  A    between atoms: C_18  and  O_19
REMARK                            x       y       z     vdW  Elec       q    Type
REMARK                         _______ _______ _______ _____ _____    ______ ____
ROOT
ATOM      1  N   UNL     1       4.707   5.280  17.984  0.00  0.00    +0.000 N 
ATOM      2  H   UNL     1       4.491   4.856  17.091  0.00  0.00    +0.000 HD
ENDROOT
BRANCH   1   5
ATOM      3  C   UNL     1       1.793   5.375  17.836  0.00  0.00    +0.000 C 
ATOM      4  C   UNL     1       2.728   6.469  18.300  0.00  0.00    +0.000 C 
ATOM      5  N   UNL     1       4.019   6.368  18.413  0.00  0.00    +0.000 NA
BRANCH   4   6
ATOM      6  C   UNL     1       2.116   7.767  18.738  0.00  0.00    +0.000 A 
ATOM      7  C   UNL     1       1.968   8.793  17.790  0.00  0.00    +0.000 A 
ATOM      8  C   UNL     1       1.378  10.012  18.140  0.00  0.00    +0.000 A 
ATOM      9  C   UNL     1       0.926  10.194  19.445  0.00  0.00    +0.000 A 
ATOM     10  C   UNL     1       1.058   9.187  20.393  0.00  0.00    +0.000 A 
ATOM     11  C   UNL     1       1.656   7.971  20.045  0.00  0.00    +0.000 A 
BRANCH   9  12
ATOM     12  O   UNL     1       0.339  11.362  19.830  0.00  0.00    +0.000 OA
ATOM     13  H   UNL     1       0.587  12.058  19.198  0.00  0.00    +0.000 HD
ENDBRANCH   9  12
ENDBRANCH   4   6
ENDBRANCH   1   5
BRANCH   1  14
ATOM     14  C   UNL     1       5.671   4.690  18.804  0.00  0.00    +0.000 C 
ATOM     15  S   UNL     1       7.218   5.315  19.035  0.00  0.00    +0.000 S 
BRANCH  14  16
ATOM     16  N   UNL     1       5.217   3.479  19.323  0.00  0.00    +0.000 N 
ATOM     17  H   UNL     1       5.961   2.923  19.725  0.00  0.00    +0.000 HD
BRANCH  16  18
ATOM     18  C   UNL     1       3.903   3.202  19.781  0.00  0.00    +0.000 A 
ATOM     19  C   UNL     1       3.388   3.925  20.867  0.00  0.00    +0.000 A 
ATOM     20  C   UNL     1       2.073   3.738  21.294  0.00  0.00    +0.000 A 
ATOM     21  C   UNL     1       1.251   2.838  20.629  0.00  0.00    +0.000 A 
ATOM     22  C   UNL     1       1.747   2.116  19.544  0.00  0.00    +0.000 A 
ATOM     23  C   UNL     1       3.075   2.283  19.107  0.00  0.00    +0.000 A 
ATOM     24  C   UNL     1       3.569   1.414  17.983  0.00  0.00    +0.000 C 
ENDBRANCH  16  18
ENDBRANCH  14  16
ENDBRANCH   1  14
TORSDOF 6
ENDMDL
MODEL 8
REMARK VINA RESULT:      -7.0      2.952      6.307
REMARK  Name = 
REMARK  8 active torsions:
REMARK  status: ('A' for Active; 'I' for Inactive)
REMARK    1  A    between atoms: C_1  and  C_2
REMARK    2  A    between atoms: C_2  and  C_15
REMARK    3  A    between atoms: N_3  and  N_4
REMARK    4  A    between atoms: N_4  and  C_5
REMARK    5  A    between atoms: C_5  and  N_7
REMARK    6  A    between atoms: N_7  and  C_8
REMARK    7  A    between atoms: C_13  and  C_14
REMARK    8  A    between atoms: C_18  and  O_19
REMARK                            x       y       z     vdW  Elec       q    Type
REMARK                         _______ _______ _______ _____ _____    ______ ____
ROOT
ATOM      1  N   UNL     1       2.120   5.253  18.518  0.00  0.00    +0.000 N 
ATOM      2  H   UNL     1       1.192   5.033  18.179  0.00  0.00    +0.000 HD
ENDROOT
BRANCH   1   5
ATOM      3  C   UNL     1       3.540   2.888  17.560  0.00  0.00    +0.000 C 
ATOM      4  C   UNL     1       3.854   4.336  17.261  0.00  0.00    +0.000 C 
ATOM      5  N   UNL     1       3.159   5.362  17.653  0.00  0.00    +0.000 NA
BRANCH   4   6
ATOM      6  C   UNL     1       5.030   4.622  16.372  0.00  0.00    +0.000 A 
ATOM      7  C   UNL     1       5.127   3.939  15.148  0.00  0.00    +0.000 A 
ATOM      8  C   UNL     1       6.188   4.190  14.272  0.00  0.00    +0.000 A 
ATOM      9  C   UNL     1       7.147   5.137  14.624  0.00  0.00    +0.000 A 
ATOM     10  C   UNL     1       7.062   5.826  15.826  0.00  0.00    +0.000 A 
ATOM     11  C   UNL     1       6.006   5.570  16.707  0.00  0.00    +0.000 A 
BRANCH   9  12
ATOM     12  O   UNL     1       8.194   5.419  13.798  0.00  0.00    +0.000 OA
ATOM     13  H   UNL     1       7.923   6.119  13.181  0.00  0.00    +0.000 HD
ENDBRANCH   9  12
ENDBRANCH   4   6
ENDBRANCH   1   5
BRANCH   1  14
ATOM     14  C   UNL     1       2.305   5.517  19.877  0.00  0.00    +0.000 C 
ATOM     15  S   UNL     1       2.087   4.373  21.093  0.00  0.00    +0.000 S 
BRANCH  14  16
ATOM     16  N   UNL     1       2.598   6.862  20.093  0.00  0.00    +0.000 N 
ATOM     17  H   UNL     1       3.536   7.109  19.802  0.00  0.00    +0.000 HD
BRANCH  16  18
ATOM     18  C   UNL     1       1.661   7.924  20.169  0.00  0.00    +0.000 A 
ATOM     19  C   UNL     1       0.916   8.099  21.344  0.00  0.00    +0.000 A 
ATOM     20  C   UNL     1       0.044   9.178  21.487  0.00  0.00    +0.000 A 
ATOM     21  C   UNL     1      -0.081  10.107  20.462  0.00  0.00    +0.000 A 
ATOM     22  C   UNL     1       0.657   9.950  19.289  0.00  0.00    +0.000 A 
ATOM     23  C   UNL     1       1.533   8.860  19.123  0.00  0.00    +0.000 A 
ATOM     24  C   UNL     1       2.236   8.706  17.803  0.00  0.00    +0.000 C 
ENDBRANCH  16  18
ENDBRANCH  14  16
ENDBRANCH   1  14
TORSDOF 6
ENDMDL
MODEL 9
REMARK VINA RESULT:      -7.0      2.793      6.019
REMARK  Name = 
REMARK  8 active torsions:
REMARK  status: ('A' for Active; 'I' for Inactive)
REMARK    1  A    between atoms: C_1  and  C_2
REMARK    2  A    between atoms: C_2  and  C_15
REMARK    3  A    between atoms: N_3  and  N_4
REMARK    4  A    between atoms: N_4  and  C_5
REMARK    5  A    between atoms: C_5  and  N_7
REMARK    6  A    between atoms: N_7  and  C_8
REMARK    7  A    between atoms: C_13  and  C_14
REMARK    8  A    between atoms: C_18  and  O_19
REMARK                            x       y       z     vdW  Elec       q    Type
REMARK                         _______ _______ _______ _____ _____    ______ ____
ROOT
ATOM      1  N   UNL     1       3.705   4.025  19.878  0.00  0.00    +0.000 N 
ATOM      2  H   UNL     1       4.073   3.409  20.592  0.00  0.00    +0.000 HD
ENDROOT
BRANCH   1   5
ATOM      3  C   UNL     1       6.295   5.245  19.305  0.00  0.00    +0.000 C 
ATOM      4  C   UNL     1       5.340   4.604  18.323  0.00  0.00    +0.000 C 
ATOM      5  N   UNL     1       4.223   4.012  18.625  0.00  0.00    +0.000 NA
BRANCH   4   6
ATOM      6  C   UNL     1       5.744   4.580  16.877  0.00  0.00    +0.000 A 
ATOM      7  C   UNL     1       7.034   5.017  16.534  0.00  0.00    +0.000 A 
ATOM      8  C   UNL     1       7.468   4.988  15.204  0.00  0.00    +0.000 A 
ATOM      9  C   UNL     1       6.606   4.508  14.221  0.00  0.00    +0.000 A 
ATOM     10  C   UNL     1       5.330   4.066  14.545  0.00  0.00    +0.000 A 
ATOM     11  C   UNL     1       4.892   4.103  15.873  0.00  0.00    +0.000 A 
BRANCH   9  12
ATOM     12  O   UNL     1       6.988   4.456  12.914  0.00  0.00    +0.000 OA
ATOM     13  H   UNL     1       7.924   4.715  12.854  0.00  0.00    +0.000 HD
ENDBRANCH   9  12
ENDBRANCH   4   6
ENDBRANCH   1   5
BRANCH   1  14
ATOM     14  C   UNL     1       2.608   4.836  20.177  0.00  0.00    +0.000 C 
ATOM     15  S   UNL     1       1.023   4.274  20.267  0.00  0.00    +0.000 S 
BRANCH  14  16
ATOM     16  N   UNL     1       2.987   6.172  20.294  0.00  0.00    +0.000 N 
ATOM     17  H   UNL     1       3.991   6.294  20.290  0.00  0.00    +0.000 HD
BRANCH  16  18
ATOM     18  C   UNL     1       2.211   7.300  19.924  0.00  0.00    +0.000 A 
ATOM     19  C   UNL     1       1.351   7.882  20.867  0.00  0.00    +0.000 A 
ATOM     20  C   UNL     1       0.634   9.040  20.566  0.00  0.00    +0.000 A 
ATOM     21  C   UNL     1       0.781   9.641  19.322  0.00  0.00    +0.000 A 
ATOM     22  C   UNL     1       1.636   9.077  18.376  0.00  0.00    +0.000 A 
ATOM     23  C   UNL     1       2.359   7.902  18.659  0.00  0.00    +0.000 A 
ATOM     24  C   UNL     1       3.200   7.303  17.565  0.00  0.00    +0.000 C 
ENDBRANCH  16  18
ENDBRANCH  14  16
ENDBRANCH   1  14
TORSDOF 6
ENDMDL
