MODEL 1
REMARK VINA RESULT:      -5.9      0.000      0.000
REMARK  Name = 
REMARK  9 active torsions:
REMARK  status: ('A' for Active; 'I' for Inactive)
REMARK    1  A    between atoms: C_1  and  C_2
REMARK    2  A    between atoms: C_2  and  O_3
REMARK    3  A    between atoms: O_3  and  C_4
REMARK    4  A    between atoms: C_4  and  C_6
REMARK    5  A    between atoms: C_8  and  C_9
REMARK    6  A    between atoms: C_9  and  C_10
REMARK    7  A    between atoms: N_11  and  C_12
REMARK    8  A    between atoms: C_12  and  C_13
REMARK    9  A    between atoms: C_13  and  C_14
REMARK                            x       y       z     vdW  Elec       q    Type
REMARK                         _______ _______ _______ _____ _____    ______ ____
ROOT
ATOM      1  C   UNL     1       5.562   5.058  18.740  0.00  0.00    +0.000 A 
ATOM      2  C   UNL     1       5.120   4.120  17.773  0.00  0.00    +0.000 A 
ATOM      3  C   UNL     1       3.752   4.016  17.932  0.00  0.00    +0.000 A 
ATOM      4  N   UNL     1       3.451   4.871  18.959  0.00  0.00    +0.000 N 
ATOM      5  N   UNL     1       4.524   5.501  19.470  0.00  0.00    +0.000 NA
ENDROOT
BRANCH   1   6
ATOM      6  C   UNL     1       6.954   5.453  18.993  0.00  0.00    +0.000 C 
ATOM      7  O   UNL     1       7.463   5.431  20.109  0.00  0.00    +0.000 OA
BRANCH   6   8
ATOM      8  O   UNL     1       7.574   5.934  17.873  0.00  0.00    +0.000 OA
BRANCH   8  10
ATOM      9  C   UNL     1       7.957   8.289  17.790  0.00  0.00    +0.000 C 
ATOM     10  C   UNL     1       7.044   7.156  17.354  0.00  0.00    +0.000 C 
ENDBRANCH   8  10
ENDBRANCH   6   8
ENDBRANCH   1   6
BRANCH   3  11
ATOM     11  C   UNL     1       2.753   3.168  17.211  0.00  0.00    +0.000 C 
ATOM     12  C   UNL     1       2.295   1.966  18.023  0.00  0.00    +0.000 C 
ENDBRANCH   3  11
BRANCH   4  13
ATOM     13  C   UNL     1       2.158   5.182  19.545  0.00  0.00    +0.000 C 
BRANCH  13  14
ATOM     14  C   UNL     1       2.174   5.104  21.066  0.00  0.00    +0.000 C 
BRANCH  14  15
ATOM     15  C   UNL     1       2.304   3.719  21.530  0.00  0.00    +0.000 C 
ATOM     16  N   UNL     1       2.417   2.631  21.919  0.00  0.00    +0.000 NA
ENDBRANCH  14  15
ENDBRANCH  13  14
ENDBRANCH   4  13
TORSDOF 7
ENDMDL
MODEL 2
REMARK VINA RESULT:      -5.9      2.804      5.433
REMARK  Name = 
REMARK  9 active torsions:
REMARK  status: ('A' for Active; 'I' for Inactive)
REMARK    1  A    between atoms: C_1  and  C_2
REMARK    2  A    between atoms: C_2  and  O_3
REMARK    3  A    between atoms: O_3  and  C_4
REMARK    4  A    between atoms: C_4  and  C_6
REMARK    5  A    between atoms: C_8  and  C_9
REMARK    6  A    between atoms: C_9  and  C_10
REMARK    7  A    between atoms: N_11  and  C_12
REMARK    8  A    between atoms: C_12  and  C_13
REMARK    9  A    between atoms: C_13  and  C_14
REMARK                            x       y       z     vdW  Elec       q    Type
REMARK                         _______ _______ _______ _____ _____    ______ ____
ROOT
ATOM      1  C   UNL     1       4.259   3.485  18.287  0.00  0.00    +0.000 A 
ATOM      2  C   UNL     1       4.156   3.897  16.935  0.00  0.00    +0.000 A 
ATOM      3  C   UNL     1       5.382   4.438  16.600  0.00  0.00    +0.000 A 
ATOM      4  N   UNL     1       6.138   4.327  17.738  0.00  0.00    +0.000 N 
ATOM      5  N   UNL     1       5.482   3.767  18.770  0.00  0.00    +0.000 NA
ENDROOT
BRANCH   1   6
ATOM      6  C   UNL     1       3.185   2.903  19.102  0.00  0.00    +0.000 C 
ATOM      7  O   UNL     1       2.213   2.332  18.618  0.00  0.00    +0.000 OA
BRANCH   6   8
ATOM      8  O   UNL     1       3.344   3.154  20.437  0.00  0.00    +0.000 OA
BRANCH   8  10
ATOM      9  C   UNL     1       1.975   5.074  20.808  0.00  0.00    +0.000 C 
ATOM     10  C   UNL     1       2.171   3.601  21.122  0.00  0.00    +0.000 C 
ENDBRANCH   8  10
ENDBRANCH   6   8
ENDBRANCH   1   6
BRANCH   3  11
ATOM     11  C   UNL     1       5.856   5.052  15.322  0.00  0.00    +0.000 C 
ATOM     12  C   UNL     1       5.940   4.054  14.176  0.00  0.00    +0.000 C 
ENDBRANCH   3  11
BRANCH   4  13
ATOM     13  C   UNL     1       7.520   4.717  17.964  0.00  0.00    +0.000 C 
BRANCH  13  14
ATOM     14  C   UNL     1       7.638   5.998  18.778  0.00  0.00    +0.000 C 
BRANCH  14  15
ATOM     15  C   UNL     1       7.666   7.182  17.912  0.00  0.00    +0.000 C 
ATOM     16  N   UNL     1       7.663   8.114  17.219  0.00  0.00    +0.000 NA
ENDBRANCH  14  15
ENDBRANCH  13  14
ENDBRANCH   4  13
TORSDOF 7
ENDMDL
MODEL 3
REMARK VINA RESULT:      -5.8      2.369      3.268
REMARK  Name = 
REMARK  9 active torsions:
REMARK  status: ('A' for Active; 'I' for Inactive)
REMARK    1  A    between atoms: C_1  and  C_2
REMARK    2  A    between atoms: C_2  and  O_3
REMARK    3  A    between atoms: O_3  and  C_4
REMARK    4  A    between atoms: C_4  and  C_6
REMARK    5  A    between atoms: C_8  and  C_9
REMARK    6  A    between atoms: C_9  and  C_10
REMARK    7  A    between atoms: N_11  and  C_12
REMARK    8  A    between atoms: C_12  and  C_13
REMARK    9  A    between atoms: C_13  and  C_14
REMARK                            x       y       z     vdW  Elec       q    Type
REMARK                         _______ _______ _______ _____ _____    ______ ____
ROOT
ATOM      1  C   UNL     1       5.819   4.903  17.405  0.00  0.00    +0.000 A 
ATOM      2  C   UNL     1       4.820   5.888  17.204  0.00  0.00    +0.000 A 
ATOM      3  C   UNL     1       3.766   5.544  18.028  0.00  0.00    +0.000 A 
ATOM      4  N   UNL     1       4.174   4.400  18.663  0.00  0.00    +0.000 N 
ATOM      5  N   UNL     1       5.402   3.988  18.297  0.00  0.00    +0.000 NA
ENDROOT
BRANCH   1   6
ATOM      6  C   UNL     1       7.105   4.815  16.701  0.00  0.00    +0.000 C 
ATOM      7  O   UNL     1       8.079   4.225  17.159  0.00  0.00    +0.000 OA
BRANCH   6   8
ATOM      8  O   UNL     1       7.119   5.538  15.541  0.00  0.00    +0.000 OA
BRANCH   8  10
ATOM      9  C   UNL     1       5.903   4.155  14.021  0.00  0.00    +0.000 C 
ATOM     10  C   UNL     1       7.254   4.772  14.341  0.00  0.00    +0.000 C 
ENDBRANCH   8  10
ENDBRANCH   6   8
ENDBRANCH   1   6
BRANCH   3  11
ATOM     11  C   UNL     1       2.434   6.196  18.225  0.00  0.00    +0.000 C 
ATOM     12  C   UNL     1       2.495   7.714  18.133  0.00  0.00    +0.000 C 
ENDBRANCH   3  11
BRANCH   4  13
ATOM     13  C   UNL     1       3.476   3.603  19.658  0.00  0.00    +0.000 C 
BRANCH  13  14
ATOM     14  C   UNL     1       2.998   2.268  19.104  0.00  0.00    +0.000 C 
BRANCH  14  15
ATOM     15  C   UNL     1       1.562   2.294  18.810  0.00  0.00    +0.000 C 
ATOM     16  N   UNL     1       0.427   2.338  18.566  0.00  0.00    +0.000 NA
ENDBRANCH  14  15
ENDBRANCH  13  14
ENDBRANCH   4  13
TORSDOF 7
ENDMDL
MODEL 4
REMARK VINA RESULT:      -5.7      2.022      2.588
REMARK  Name = 
REMARK  9 active torsions:
REMARK  status: ('A' for Active; 'I' for Inactive)
REMARK    1  A    between atoms: C_1  and  C_2
REMARK    2  A    between atoms: C_2  and  O_3
REMARK    3  A    between atoms: O_3  and  C_4
REMARK    4  A    between atoms: C_4  and  C_6
REMARK    5  A    between atoms: C_8  and  C_9
REMARK    6  A    between atoms: C_9  and  C_10
REMARK    7  A    between atoms: N_11  and  C_12
REMARK    8  A    between atoms: C_12  and  C_13
REMARK    9  A    between atoms: C_13  and  C_14
REMARK                            x       y       z     vdW  Elec       q    Type
REMARK                         _______ _______ _______ _____ _____    ______ ____
ROOT
ATOM      1  C   UNL     1       4.561   5.317  16.856  0.00  0.00    +0.000 A 
ATOM      2  C   UNL     1       4.346   3.922  16.720  0.00  0.00    +0.000 A 
ATOM      3  C   UNL     1       3.306   3.606  17.572  0.00  0.00    +0.000 A 
ATOM      4  N   UNL     1       2.960   4.794  18.161  0.00  0.00    +0.000 N 
ATOM      5  N   UNL     1       3.708   5.836  17.755  0.00  0.00    +0.000 NA
ENDROOT
BRANCH   1   6
ATOM      6  C   UNL     1       5.606   6.103  16.188  0.00  0.00    +0.000 C 
ATOM      7  O   UNL     1       6.247   6.982  16.757  0.00  0.00    +0.000 OA
BRANCH   6   8
ATOM      8  O   UNL     1       5.711   5.813  14.856  0.00  0.00    +0.000 OA
BRANCH   8  10
ATOM      9  C   UNL     1       6.264   3.901  13.538  0.00  0.00    +0.000 C 
ATOM     10  C   UNL     1       6.795   4.950  14.499  0.00  0.00    +0.000 C 
ENDBRANCH   8  10
ENDBRANCH   6   8
ENDBRANCH   1   6
BRANCH   3  11
ATOM     11  C   UNL     1       2.659   2.290  17.868  0.00  0.00    +0.000 C 
ATOM     12  C   UNL     1       3.568   1.338  18.632  0.00  0.00    +0.000 C 
ENDBRANCH   3  11
BRANCH   4  13
ATOM     13  C   UNL     1       1.915   5.066  19.133  0.00  0.00    +0.000 C 
BRANCH  13  14
ATOM     14  C   UNL     1       2.446   5.131  20.559  0.00  0.00    +0.000 C 
BRANCH  14  15
ATOM     15  C   UNL     1       2.143   3.902  21.299  0.00  0.00    +0.000 C 
ATOM     16  N   UNL     1       1.911   2.915  21.865  0.00  0.00    +0.000 NA
ENDBRANCH  14  15
ENDBRANCH  13  14
ENDBRANCH   4  13
TORSDOF 7
ENDMDL
MODEL 5
REMARK VINA RESULT:      -5.6      2.802      5.284
REMARK  Name = 
REMARK  9 active torsions:
REMARK  status: ('A' for Active; 'I' for Inactive)
REMARK    1  A    between atoms: C_1  and  C_2
REMARK    2  A    between atoms: C_2  and  O_3
REMARK    3  A    between atoms: O_3  and  C_4
REMARK    4  A    between atoms: C_4  and  C_6
REMARK    5  A    between atoms: C_8  and  C_9
REMARK    6  A    between atoms: C_9  and  C_10
REMARK    7  A    between atoms: N_11  and  C_12
REMARK    8  A    between atoms: C_12  and  C_13
REMARK    9  A    between atoms: C_13  and  C_14
REMARK                            x       y       z     vdW  Elec       q    Type
REMARK                         _______ _______ _______ _____ _____    ______ ____
ROOT
ATOM      1  C   UNL     1       3.688   4.642  17.533  0.00  0.00    +0.000 A 
ATOM      2  C   UNL     1       4.307   4.163  16.351  0.00  0.00    +0.000 A 
ATOM      3  C   UNL     1       5.362   5.017  16.093  0.00  0.00    +0.000 A 
ATOM      4  N   UNL     1       5.322   5.940  17.104  0.00  0.00    +0.000 N 
ATOM      5  N   UNL     1       4.318   5.743  17.977  0.00  0.00    +0.000 NA
ENDROOT
BRANCH   1   6
ATOM      6  C   UNL     1       2.484   4.091  18.167  0.00  0.00    +0.000 C 
ATOM      7  O   UNL     1       1.553   3.608  17.529  0.00  0.00    +0.000 OA
BRANCH   6   8
ATOM      8  O   UNL     1       2.479   4.264  19.524  0.00  0.00    +0.000 OA
BRANCH   8  10
ATOM      9  C   UNL     1       1.666   3.006  21.383  0.00  0.00    +0.000 C 
ATOM     10  C   UNL     1       2.723   3.084  20.294  0.00  0.00    +0.000 C 
ENDBRANCH   8  10
ENDBRANCH   6   8
ENDBRANCH   1   6
BRANCH   3  11
ATOM     11  C   UNL     1       6.353   5.024  14.973  0.00  0.00    +0.000 C 
ATOM     12  C   UNL     1       6.177   3.856  14.014  0.00  0.00    +0.000 C 
ENDBRANCH   3  11
BRANCH   4  13
ATOM     13  C   UNL     1       6.205   7.068  17.353  0.00  0.00    +0.000 C 
BRANCH  13  14
ATOM     14  C   UNL     1       7.595   6.633  17.799  0.00  0.00    +0.000 C 
BRANCH  14  15
ATOM     15  C   UNL     1       7.544   5.901  19.069  0.00  0.00    +0.000 C 
ATOM     16  N   UNL     1       7.523   5.336  20.083  0.00  0.00    +0.000 NA
ENDBRANCH  14  15
ENDBRANCH  13  14
ENDBRANCH   4  13
TORSDOF 7
ENDMDL
MODEL 6
REMARK VINA RESULT:      -5.6      2.754      3.740
REMARK  Name = 
REMARK  9 active torsions:
REMARK  status: ('A' for Active; 'I' for Inactive)
REMARK    1  A    between atoms: C_1  and  C_2
REMARK    2  A    between atoms: C_2  and  O_3
REMARK    3  A    between atoms: O_3  and  C_4
REMARK    4  A    between atoms: C_4  and  C_6
REMARK    5  A    between atoms: C_8  and  C_9
REMARK    6  A    between atoms: C_9  and  C_10
REMARK    7  A    between atoms: N_11  and  C_12
REMARK    8  A    between atoms: C_12  and  C_13
REMARK    9  A    between atoms: C_13  and  C_14
REMARK                            x       y       z     vdW  Elec       q    Type
REMARK                         _______ _______ _______ _____ _____    ______ ____
ROOT
ATOM      1  C   UNL     1       5.317   4.787  16.477  0.00  0.00    +0.000 A 
ATOM      2  C   UNL     1       4.673   5.964  16.936  0.00  0.00    +0.000 A 
ATOM      3  C   UNL     1       3.657   5.548  17.774  0.00  0.00    +0.000 A 
ATOM      4  N   UNL     1       3.740   4.180  17.775  0.00  0.00    +0.000 N 
ATOM      5  N   UNL     1       4.724   3.698  16.994  0.00  0.00    +0.000 NA
ENDROOT
BRANCH   1   6
ATOM      6  C   UNL     1       6.425   4.722  15.515  0.00  0.00    +0.000 C 
ATOM      7  O   UNL     1       7.345   5.534  15.499  0.00  0.00    +0.000 OA
BRANCH   6   8
ATOM      8  O   UNL     1       6.261   3.726  14.593  0.00  0.00    +0.000 OA
BRANCH   8  10
ATOM      9  C   UNL     1       5.694   3.252  12.323  0.00  0.00    +0.000 C 
ATOM     10  C   UNL     1       6.574   4.081  13.243  0.00  0.00    +0.000 C 
ENDBRANCH   8  10
ENDBRANCH   6   8
ENDBRANCH   1   6
BRANCH   3  11
ATOM     11  C   UNL     1       2.636   6.338  18.528  0.00  0.00    +0.000 C 
ATOM     12  C   UNL     1       2.463   7.752  17.993  0.00  0.00    +0.000 C 
ENDBRANCH   3  11
BRANCH   4  13
ATOM     13  C   UNL     1       2.932   3.212  18.497  0.00  0.00    +0.000 C 
BRANCH  13  14
ATOM     14  C   UNL     1       3.620   2.700  19.755  0.00  0.00    +0.000 C 
BRANCH  14  15
ATOM     15  C   UNL     1       2.772   2.875  20.938  0.00  0.00    +0.000 C 
ATOM     16  N   UNL     1       2.121   3.023  21.889  0.00  0.00    +0.000 NA
ENDBRANCH  14  15
ENDBRANCH  13  14
ENDBRANCH   4  13
TORSDOF 7
ENDMDL
MODEL 7
REMARK VINA RESULT:      -5.6      2.680      5.595
REMARK  Name = 
REMARK  9 active torsions:
REMARK  status: ('A' for Active; 'I' for Inactive)
REMARK    1  A    between atoms: C_1  and  C_2
REMARK    2  A    between atoms: C_2  and  O_3
REMARK    3  A    between atoms: O_3  and  C_4
REMARK    4  A    between atoms: C_4  and  C_6
REMARK    5  A    between atoms: C_8  and  C_9
REMARK    6  A    between atoms: C_9  and  C_10
REMARK    7  A    between atoms: N_11  and  C_12
REMARK    8  A    between atoms: C_12  and  C_13
REMARK    9  A    between atoms: C_13  and  C_14
REMARK                            x       y       z     vdW  Elec       q    Type
REMARK                         _______ _______ _______ _____ _____    ______ ____
ROOT
ATOM      1  C   UNL     1       4.614   3.509  18.851  0.00  0.00    +0.000 A 
ATOM      2  C   UNL     1       4.214   3.822  17.527  0.00  0.00    +0.000 A 
ATOM      3  C   UNL     1       5.293   4.447  16.934  0.00  0.00    +0.000 A 
ATOM      4  N   UNL     1       6.259   4.478  17.906  0.00  0.00    +0.000 N 
ATOM      5  N   UNL     1       5.871   3.930  19.071  0.00  0.00    +0.000 NA
ENDROOT
BRANCH   1   6
ATOM      6  C   UNL     1       3.778   2.887  19.886  0.00  0.00    +0.000 C 
ATOM      7  O   UNL     1       4.211   2.071  20.694  0.00  0.00    +0.000 OA
BRANCH   6   8
ATOM      8  O   UNL     1       2.462   3.246  19.784  0.00  0.00    +0.000 OA
BRANCH   8  10
ATOM      9  C   UNL     1       1.235   2.725  21.764  0.00  0.00    +0.000 C 
ATOM     10  C   UNL     1       1.892   3.832  20.957  0.00  0.00    +0.000 C 
ENDBRANCH   8  10
ENDBRANCH   6   8
ENDBRANCH   1   6
BRANCH   3  11
ATOM     11  C   UNL     1       5.451   5.017  15.560  0.00  0.00    +0.000 C 
ATOM     12  C   UNL     1       5.176   6.512  15.500  0.00  0.00    +0.000 C 
ENDBRANCH   3  11
BRANCH   4  13
ATOM     13  C   UNL     1       7.612   5.004  17.838  0.00  0.00    +0.000 C 
BRANCH  13  14
ATOM     14  C   UNL     1       7.810   6.221  18.733  0.00  0.00    +0.000 C 
BRANCH  14  15
ATOM     15  C   UNL     1       7.792   7.464  17.956  0.00  0.00    +0.000 C 
ATOM     16  N   UNL     1       7.778   8.463  17.363  0.00  0.00    +0.000 NA
ENDBRANCH  14  15
ENDBRANCH  13  14
ENDBRANCH   4  13
TORSDOF 7
ENDMDL
MODEL 8
REMARK VINA RESULT:      -5.6      2.683      5.521
REMARK  Name = 
REMARK  9 active torsions:
REMARK  status: ('A' for Active; 'I' for Inactive)
REMARK    1  A    between atoms: C_1  and  C_2
REMARK    2  A    between atoms: C_2  and  O_3
REMARK    3  A    between atoms: O_3  and  C_4
REMARK    4  A    between atoms: C_4  and  C_6
REMARK    5  A    between atoms: C_8  and  C_9
REMARK    6  A    between atoms: C_9  and  C_10
REMARK    7  A    between atoms: N_11  and  C_12
REMARK    8  A    between atoms: C_12  and  C_13
REMARK    9  A    between atoms: C_13  and  C_14
REMARK                            x       y       z     vdW  Elec       q    Type
REMARK                         _______ _______ _______ _____ _____    ______ ____
ROOT
ATOM      1  C   UNL     1       4.039   4.479  18.499  0.00  0.00    +0.000 A 
ATOM      2  C   UNL     1       4.066   4.090  17.136  0.00  0.00    +0.000 A 
ATOM      3  C   UNL     1       5.392   4.110  16.753  0.00  0.00    +0.000 A 
ATOM      4  N   UNL     1       6.076   4.501  17.874  0.00  0.00    +0.000 N 
ATOM      5  N   UNL     1       5.284   4.740  18.935  0.00  0.00    +0.000 NA
ENDROOT
BRANCH   1   6
ATOM      6  C   UNL     1       2.840   4.659  19.328  0.00  0.00    +0.000 C 
ATOM      7  O   UNL     1       2.154   5.676  19.298  0.00  0.00    +0.000 OA
BRANCH   6   8
ATOM      8  O   UNL     1       2.638   3.618  20.192  0.00  0.00    +0.000 OA
BRANCH   8  10
ATOM      9  C   UNL     1       0.878   2.535  18.997  0.00  0.00    +0.000 C 
ATOM     10  C   UNL     1       2.271   2.377  19.583  0.00  0.00    +0.000 C 
ENDBRANCH   8  10
ENDBRANCH   6   8
ENDBRANCH   1   6
BRANCH   3  11
ATOM     11  C   UNL     1       6.026   3.816  15.431  0.00  0.00    +0.000 C 
ATOM     12  C   UNL     1       6.289   5.066  14.604  0.00  0.00    +0.000 C 
ENDBRANCH   3  11
BRANCH   4  13
ATOM     13  C   UNL     1       7.506   4.678  18.062  0.00  0.00    +0.000 C 
BRANCH  13  14
ATOM     14  C   UNL     1       7.844   5.981  18.775  0.00  0.00    +0.000 C 
BRANCH  14  15
ATOM     15  C   UNL     1       7.687   7.135  17.885  0.00  0.00    +0.000 C 
ATOM     16  N   UNL     1       7.550   8.062  17.198  0.00  0.00    +0.000 NA
ENDBRANCH  14  15
ENDBRANCH  13  14
ENDBRANCH   4  13
TORSDOF 7
ENDMDL
MODEL 9
REMARK VINA RESULT:      -5.6      3.526      6.269
REMARK  Name = 
REMARK  9 active torsions:
REMARK  status: ('A' for Active; 'I' for Inactive)
REMARK    1  A    between atoms: C_1  and  C_2
REMARK    2  A    between atoms: C_2  and  O_3
REMARK    3  A    between atoms: O_3  and  C_4
REMARK    4  A    between atoms: C_4  and  C_6
REMARK    5  A    between atoms: C_8  and  C_9
REMARK    6  A    between atoms: C_9  and  C_10
REMARK    7  A    between atoms: N_11  and  C_12
REMARK    8  A    between atoms: C_12  and  C_13
REMARK    9  A    between atoms: C_13  and  C_14
REMARK                            x       y       z     vdW  Elec       q    Type
REMARK                         _______ _______ _______ _____ _____    ______ ____
ROOT
ATOM      1  C   UNL     1       3.497   4.744  17.625  0.00  0.00    +0.000 A 
ATOM      2  C   UNL     1       4.317   5.826  18.034  0.00  0.00    +0.000 A 
ATOM      3  C   UNL     1       5.510   5.687  17.352  0.00  0.00    +0.000 A 
ATOM      4  N   UNL     1       5.351   4.559  16.592  0.00  0.00    +0.000 N 
ATOM      5  N   UNL     1       4.153   3.967  16.746  0.00  0.00    +0.000 NA
ENDROOT
BRANCH   1   6
ATOM      6  C   UNL     1       2.151   4.437  18.126  0.00  0.00    +0.000 C 
ATOM      7  O   UNL     1       1.219   4.128  17.391  0.00  0.00    +0.000 OA
BRANCH   6   8
ATOM      8  O   UNL     1       2.037   4.627  19.476  0.00  0.00    +0.000 OA
BRANCH   8  10
ATOM      9  C   UNL     1       1.298   3.046  21.104  0.00  0.00    +0.000 C 
ATOM     10  C   UNL     1       2.482   3.538  20.289  0.00  0.00    +0.000 C 
ENDBRANCH   8  10
ENDBRANCH   6   8
ENDBRANCH   1   6
BRANCH   3  11
ATOM     11  C   UNL     1       6.754   6.516  17.396  0.00  0.00    +0.000 C 
ATOM     12  C   UNL     1       7.638   6.202  18.594  0.00  0.00    +0.000 C 
ENDBRANCH   3  11
BRANCH   4  13
ATOM     13  C   UNL     1       6.280   3.943  15.659  0.00  0.00    +0.000 C 
BRANCH  13  14
ATOM     14  C   UNL     1       6.363   4.693  14.337  0.00  0.00    +0.000 C 
BRANCH  14  15
ATOM     15  C   UNL     1       6.157   3.793  13.197  0.00  0.00    +0.000 C 
ATOM     16  N   UNL     1       6.019   3.082  12.290  0.00  0.00    +0.000 NA
ENDBRANCH  14  15
ENDBRANCH  13  14
ENDBRANCH   4  13
TORSDOF 7
ENDMDL
