MODEL 1
REMARK VINA RESULT:      -8.2      0.000      0.000
REMARK  Name = 
REMARK  2 active torsions:
REMARK  status: ('A' for Active; 'I' for Inactive)
REMARK    1  A    between atoms: N_1  and  C_2
REMARK    2  A    between atoms: C_5  and  C_6
REMARK                            x       y       z     vdW  Elec       q    Type
REMARK                         _______ _______ _______ _____ _____    ______ ____
ROOT
ATOM      1  C   UNL     1       3.197   6.571  19.113  0.00  0.00    +0.000 C 
ATOM      2  C   UNL     1       4.142   6.714  17.885  0.00  0.00    +0.000 C 
ATOM      3  N   UNL     1       4.701   5.396  17.615  0.00  0.00    +0.000 NA
ATOM      4  C   UNL     1       5.864   5.273  16.731  0.00  0.00    +0.000 C 
ATOM      5  C   UNL     1       5.581   4.048  15.851  0.00  0.00    +0.000 C 
ATOM      6  C   UNL     1       4.516   3.304  16.642  0.00  0.00    +0.000 C 
ATOM      7  C   UNL     1       3.676   4.489  17.091  0.00  0.00    +0.000 C 
ATOM      8  C   UNL     1       2.649   4.241  18.160  0.00  0.00    +0.000 A 
ATOM      9  C   UNL     1       1.907   3.049  18.207  0.00  0.00    +0.000 A 
ATOM     10  C   UNL     1       1.006   2.824  19.250  0.00  0.00    +0.000 A 
ATOM     11  C   UNL     1       0.834   3.783  20.247  0.00  0.00    +0.000 A 
ATOM     12  C   UNL     1       1.542   4.985  20.194  0.00  0.00    +0.000 A 
ATOM     13  C   UNL     1       2.440   5.240  19.143  0.00  0.00    +0.000 A 
ENDROOT
BRANCH   1  17
ATOM     14  C   UNL     1       0.439   9.913  19.270  0.00  0.00    +0.000 A 
ATOM     15  C   UNL     1       0.774   9.218  20.441  0.00  0.00    +0.000 A 
ATOM     16  C   UNL     1       1.662   8.143  20.388  0.00  0.00    +0.000 A 
ATOM     17  C   UNL     1       2.219   7.732  19.162  0.00  0.00    +0.000 A 
ATOM     18  C   UNL     1       1.880   8.431  17.991  0.00  0.00    +0.000 A 
ATOM     19  C   UNL     1       1.001   9.519  18.047  0.00  0.00    +0.000 A 
BRANCH  14  20
ATOM     20  N   UNL     1      -0.457  11.007  19.326  0.00  0.00    +0.000 N 
ATOM     21  H   UNL     1      -1.410  10.887  19.701  0.00  0.00    +0.000 HD
ATOM     22  H   UNL     1      -0.171  11.940  18.995  0.00  0.00    +0.000 HD
ENDBRANCH  14  20
ENDBRANCH   1  17
TORSDOF 2
ENDMDL
MODEL 2
REMARK VINA RESULT:      -8.1      0.033      1.084
REMARK  Name = 
REMARK  2 active torsions:
REMARK  status: ('A' for Active; 'I' for Inactive)
REMARK    1  A    between atoms: N_1  and  C_2
REMARK    2  A    between atoms: C_5  and  C_6
REMARK                            x       y       z     vdW  Elec       q    Type
REMARK                         _______ _______ _______ _____ _____    ______ ____
ROOT
ATOM      1  C   UNL     1       3.208   6.591  19.115  0.00  0.00    +0.000 C 
ATOM      2  C   UNL     1       4.146   6.727  17.881  0.00  0.00    +0.000 C 
ATOM      3  N   UNL     1       4.695   5.405  17.608  0.00  0.00    +0.000 NA
ATOM      4  C   UNL     1       5.852   5.275  16.717  0.00  0.00    +0.000 C 
ATOM      5  C   UNL     1       5.556   4.052  15.839  0.00  0.00    +0.000 C 
ATOM      6  C   UNL     1       4.491   3.314  16.639  0.00  0.00    +0.000 C 
ATOM      7  C   UNL     1       3.661   4.504  17.091  0.00  0.00    +0.000 C 
ATOM      8  C   UNL     1       2.640   4.263  18.168  0.00  0.00    +0.000 A 
ATOM      9  C   UNL     1       1.891   3.076  18.221  0.00  0.00    +0.000 A 
ATOM     10  C   UNL     1       0.995   2.857  19.269  0.00  0.00    +0.000 A 
ATOM     11  C   UNL     1       0.836   3.818  20.267  0.00  0.00    +0.000 A 
ATOM     12  C   UNL     1       1.551   5.016  20.208  0.00  0.00    +0.000 A 
ATOM     13  C   UNL     1       2.443   5.265  19.151  0.00  0.00    +0.000 A 
ENDROOT
BRANCH   1  17
ATOM     14  C   UNL     1       0.404   9.895  19.253  0.00  0.00    +0.000 A 
ATOM     15  C   UNL     1       0.971   9.500  18.033  0.00  0.00    +0.000 A 
ATOM     16  C   UNL     1       1.873   8.436  17.991  0.00  0.00    +0.000 A 
ATOM     17  C   UNL     1       2.237   7.758  19.169  0.00  0.00    +0.000 A 
ATOM     18  C   UNL     1       1.667   8.158  20.390  0.00  0.00    +0.000 A 
ATOM     19  C   UNL     1       0.751   9.215  20.429  0.00  0.00    +0.000 A 
BRANCH  14  20
ATOM     20  N   UNL     1      -0.516  10.971  19.293  0.00  0.00    +0.000 N 
ATOM     21  H   UNL     1      -0.574  11.583  20.121  0.00  0.00    +0.000 HD
ATOM     22  H   UNL     1      -1.141  11.159  18.496  0.00  0.00    +0.000 HD
ENDBRANCH  14  20
ENDBRANCH   1  17
TORSDOF 2
ENDMDL
MODEL 3
REMARK VINA RESULT:      -7.6      2.442      6.107
REMARK  Name = 
REMARK  2 active torsions:
REMARK  status: ('A' for Active; 'I' for Inactive)
REMARK    1  A    between atoms: N_1  and  C_2
REMARK    2  A    between atoms: C_5  and  C_6
REMARK                            x       y       z     vdW  Elec       q    Type
REMARK                         _______ _______ _______ _____ _____    ______ ____
ROOT
ATOM      1  C   UNL     1       5.004   4.847  17.991  0.00  0.00    +0.000 C 
ATOM      2  C   UNL     1       4.466   3.485  18.519  0.00  0.00    +0.000 C 
ATOM      3  N   UNL     1       3.527   3.779  19.593  0.00  0.00    +0.000 NA
ATOM      4  C   UNL     1       3.105   2.704  20.496  0.00  0.00    +0.000 C 
ATOM      5  C   UNL     1       1.598   2.908  20.699  0.00  0.00    +0.000 C 
ATOM      6  C   UNL     1       1.397   4.358  20.286  0.00  0.00    +0.000 C 
ATOM      7  C   UNL     1       2.304   4.391  19.067  0.00  0.00    +0.000 C 
ATOM      8  C   UNL     1       2.640   5.740  18.493  0.00  0.00    +0.000 A 
ATOM      9  C   UNL     1       1.694   6.777  18.447  0.00  0.00    +0.000 A 
ATOM     10  C   UNL     1       2.057   8.037  17.965  0.00  0.00    +0.000 A 
ATOM     11  C   UNL     1       3.359   8.270  17.523  0.00  0.00    +0.000 A 
ATOM     12  C   UNL     1       4.298   7.238  17.534  0.00  0.00    +0.000 A 
ATOM     13  C   UNL     1       3.949   5.957  17.997  0.00  0.00    +0.000 A 
ENDROOT
BRANCH   1  17
ATOM     14  C   UNL     1       6.630   4.407  13.996  0.00  0.00    +0.000 A 
ATOM     15  C   UNL     1       5.319   3.994  14.275  0.00  0.00    +0.000 A 
ATOM     16  C   UNL     1       4.797   4.137  15.561  0.00  0.00    +0.000 A 
ATOM     17  C   UNL     1       5.582   4.680  16.596  0.00  0.00    +0.000 A 
ATOM     18  C   UNL     1       6.895   5.091  16.312  0.00  0.00    +0.000 A 
ATOM     19  C   UNL     1       7.412   4.961  15.019  0.00  0.00    +0.000 A 
BRANCH  14  20
ATOM     20  N   UNL     1       7.155   4.267  12.689  0.00  0.00    +0.000 N 
ATOM     21  H   UNL     1       8.117   3.924  12.542  0.00  0.00    +0.000 HD
ATOM     22  H   UNL     1       6.585   4.504  11.864  0.00  0.00    +0.000 HD
ENDBRANCH  14  20
ENDBRANCH   1  17
TORSDOF 2
ENDMDL
MODEL 4
REMARK VINA RESULT:      -7.5      2.449      6.096
REMARK  Name = 
REMARK  2 active torsions:
REMARK  status: ('A' for Active; 'I' for Inactive)
REMARK    1  A    between atoms: N_1  and  C_2
REMARK    2  A    between atoms: C_5  and  C_6
REMARK                            x       y       z     vdW  Elec       q    Type
REMARK                         _______ _______ _______ _____ _____    ______ ____
ROOT
ATOM      1  C   UNL     1       5.033   4.865  17.936  0.00  0.00    +0.000 C 
ATOM      2  C   UNL     1       4.525   3.494  18.470  0.00  0.00    +0.000 C 
ATOM      3  N   UNL     1       3.610   3.772  19.570  0.00  0.00    +0.000 NA
ATOM      4  C   UNL     1       3.224   2.688  20.478  0.00  0.00    +0.000 C 
ATOM      5  C   UNL     1       1.720   2.874  20.720  0.00  0.00    +0.000 C 
ATOM      6  C   UNL     1       1.492   4.325  20.321  0.00  0.00    +0.000 C 
ATOM      7  C   UNL     1       2.367   4.374  19.079  0.00  0.00    +0.000 C 
ATOM      8  C   UNL     1       2.674   5.729  18.504  0.00  0.00    +0.000 A 
ATOM      9  C   UNL     1       1.716   6.756  18.487  0.00  0.00    +0.000 A 
ATOM     10  C   UNL     1       2.052   8.022  18.003  0.00  0.00    +0.000 A 
ATOM     11  C   UNL     1       3.340   8.272  17.529  0.00  0.00    +0.000 A 
ATOM     12  C   UNL     1       4.291   7.250  17.510  0.00  0.00    +0.000 A 
ATOM     13  C   UNL     1       3.967   5.963  17.975  0.00  0.00    +0.000 A 
ENDROOT
BRANCH   1  17
ATOM     14  C   UNL     1       6.610   4.388  13.926  0.00  0.00    +0.000 A 
ATOM     15  C   UNL     1       7.409   4.939  14.938  0.00  0.00    +0.000 A 
ATOM     16  C   UNL     1       6.900   5.091  16.228  0.00  0.00    +0.000 A 
ATOM     17  C   UNL     1       5.577   4.711  16.526  0.00  0.00    +0.000 A 
ATOM     18  C   UNL     1       4.781   4.160  15.508  0.00  0.00    +0.000 A 
ATOM     19  C   UNL     1       5.297   3.994  14.219  0.00  0.00    +0.000 A 
BRANCH  14  20
ATOM     20  N   UNL     1       7.131   4.228  12.619  0.00  0.00    +0.000 N 
ATOM     21  H   UNL     1       8.000   4.708  12.337  0.00  0.00    +0.000 HD
ATOM     22  H   UNL     1       6.652   3.630  11.930  0.00  0.00    +0.000 HD
ENDBRANCH  14  20
ENDBRANCH   1  17
TORSDOF 2
ENDMDL
MODEL 5
REMARK VINA RESULT:      -7.3      1.555      3.535
REMARK  Name = 
REMARK  2 active torsions:
REMARK  status: ('A' for Active; 'I' for Inactive)
REMARK    1  A    between atoms: N_1  and  C_2
REMARK    2  A    between atoms: C_5  and  C_6
REMARK                            x       y       z     vdW  Elec       q    Type
REMARK                         _______ _______ _______ _____ _____    ______ ____
ROOT
ATOM      1  C   UNL     1       2.662   6.148  17.720  0.00  0.00    +0.000 C 
ATOM      2  C   UNL     1       1.917   4.898  18.271  0.00  0.00    +0.000 C 
ATOM      3  N   UNL     1       2.716   3.731  17.921  0.00  0.00    +0.000 NA
ATOM      4  C   UNL     1       2.121   2.394  18.017  0.00  0.00    +0.000 C 
ATOM      5  C   UNL     1       3.211   1.505  18.631  0.00  0.00    +0.000 C 
ATOM      6  C   UNL     1       4.480   2.303  18.375  0.00  0.00    +0.000 C 
ATOM      7  C   UNL     1       3.960   3.695  18.696  0.00  0.00    +0.000 C 
ATOM      8  C   UNL     1       4.819   4.862  18.296  0.00  0.00    +0.000 A 
ATOM      9  C   UNL     1       6.220   4.813  18.391  0.00  0.00    +0.000 A 
ATOM     10  C   UNL     1       6.992   5.891  17.953  0.00  0.00    +0.000 A 
ATOM     11  C   UNL     1       6.375   7.024  17.423  0.00  0.00    +0.000 A 
ATOM     12  C   UNL     1       4.983   7.098  17.353  0.00  0.00    +0.000 A 
ATOM     13  C   UNL     1       4.187   6.032  17.807  0.00  0.00    +0.000 A 
ENDROOT
BRANCH   1  17
ATOM     14  C   UNL     1       1.270   9.714  19.755  0.00  0.00    +0.000 A 
ATOM     15  C   UNL     1       1.424   9.711  18.361  0.00  0.00    +0.000 A 
ATOM     16  C   UNL     1       1.872   8.562  17.708  0.00  0.00    +0.000 A 
ATOM     17  C   UNL     1       2.190   7.401  18.438  0.00  0.00    +0.000 A 
ATOM     18  C   UNL     1       2.033   7.409  19.834  0.00  0.00    +0.000 A 
ATOM     19  C   UNL     1       1.570   8.557  20.487  0.00  0.00    +0.000 A 
BRANCH  14  20
ATOM     20  N   UNL     1       0.808  10.879  20.415  0.00  0.00    +0.000 N 
ATOM     21  H   UNL     1      -0.201  11.049  20.538  0.00  0.00    +0.000 HD
ATOM     22  H   UNL     1       1.474  11.575  20.783  0.00  0.00    +0.000 HD
ENDBRANCH  14  20
ENDBRANCH   1  17
TORSDOF 2
ENDMDL
MODEL 6
REMARK VINA RESULT:      -7.2      1.530      5.495
REMARK  Name = 
REMARK  2 active torsions:
REMARK  status: ('A' for Active; 'I' for Inactive)
REMARK    1  A    between atoms: N_1  and  C_2
REMARK    2  A    between atoms: C_5  and  C_6
REMARK                            x       y       z     vdW  Elec       q    Type
REMARK                         _______ _______ _______ _____ _____    ______ ____
ROOT
ATOM      1  C   UNL     1       2.692   6.249  17.757  0.00  0.00    +0.000 C 
ATOM      2  C   UNL     1       2.800   7.688  18.341  0.00  0.00    +0.000 C 
ATOM      3  N   UNL     1       1.687   7.862  19.266  0.00  0.00    +0.000 NA
ATOM      4  C   UNL     1       1.334   9.209  19.722  0.00  0.00    +0.000 C 
ATOM      5  C   UNL     1       1.035   9.067  21.221  0.00  0.00    +0.000 C 
ATOM      6  C   UNL     1       0.771   7.576  21.371  0.00  0.00    +0.000 C 
ATOM      7  C   UNL     1       1.871   7.044  20.468  0.00  0.00    +0.000 C 
ATOM      8  C   UNL     1       1.808   5.591  20.085  0.00  0.00    +0.000 A 
ATOM      9  C   UNL     1       1.380   4.608  20.993  0.00  0.00    +0.000 A 
ATOM     10  C   UNL     1       1.273   3.276  20.588  0.00  0.00    +0.000 A 
ATOM     11  C   UNL     1       1.594   2.915  19.280  0.00  0.00    +0.000 A 
ATOM     12  C   UNL     1       2.050   3.877  18.377  0.00  0.00    +0.000 A 
ATOM     13  C   UNL     1       2.184   5.220  18.771  0.00  0.00    +0.000 A 
ENDROOT
BRANCH   1  17
ATOM     14  C   UNL     1       6.498   5.002  16.095  0.00  0.00    +0.000 A 
ATOM     15  C   UNL     1       5.414   4.113  16.123  0.00  0.00    +0.000 A 
ATOM     16  C   UNL     1       4.190   4.516  16.658  0.00  0.00    +0.000 A 
ATOM     17  C   UNL     1       4.032   5.810  17.190  0.00  0.00    +0.000 A 
ATOM     18  C   UNL     1       5.121   6.697  17.160  0.00  0.00    +0.000 A 
ATOM     19  C   UNL     1       6.344   6.297  16.610  0.00  0.00    +0.000 A 
BRANCH  14  20
ATOM     20  N   UNL     1       7.737   4.592  15.546  0.00  0.00    +0.000 N 
ATOM     21  H   UNL     1       7.897   3.607  15.286  0.00  0.00    +0.000 HD
ATOM     22  H   UNL     1       8.498   5.271  15.398  0.00  0.00    +0.000 HD
ENDBRANCH  14  20
ENDBRANCH   1  17
TORSDOF 2
ENDMDL
MODEL 7
REMARK VINA RESULT:      -7.2      1.564      3.377
REMARK  Name = 
REMARK  2 active torsions:
REMARK  status: ('A' for Active; 'I' for Inactive)
REMARK    1  A    between atoms: N_1  and  C_2
REMARK    2  A    between atoms: C_5  and  C_6
REMARK                            x       y       z     vdW  Elec       q    Type
REMARK                         _______ _______ _______ _____ _____    ______ ____
ROOT
ATOM      1  C   UNL     1       2.634   6.142  17.734  0.00  0.00    +0.000 C 
ATOM      2  C   UNL     1       1.898   4.886  18.284  0.00  0.00    +0.000 C 
ATOM      3  N   UNL     1       2.707   3.726  17.937  0.00  0.00    +0.000 NA
ATOM      4  C   UNL     1       2.123   2.384  18.032  0.00  0.00    +0.000 C 
ATOM      5  C   UNL     1       3.218   1.504  18.650  0.00  0.00    +0.000 C 
ATOM      6  C   UNL     1       4.482   2.313  18.396  0.00  0.00    +0.000 C 
ATOM      7  C   UNL     1       3.949   3.700  18.715  0.00  0.00    +0.000 C 
ATOM      8  C   UNL     1       4.800   4.875  18.316  0.00  0.00    +0.000 A 
ATOM      9  C   UNL     1       6.200   4.837  18.414  0.00  0.00    +0.000 A 
ATOM     10  C   UNL     1       6.965   5.921  17.977  0.00  0.00    +0.000 A 
ATOM     11  C   UNL     1       6.341   7.048  17.445  0.00  0.00    +0.000 A 
ATOM     12  C   UNL     1       4.948   7.111  17.372  0.00  0.00    +0.000 A 
ATOM     13  C   UNL     1       4.159   6.039  17.825  0.00  0.00    +0.000 A 
ENDROOT
BRANCH   1  17
ATOM     14  C   UNL     1       1.294   9.716  19.791  0.00  0.00    +0.000 A 
ATOM     15  C   UNL     1       1.579   8.549  20.515  0.00  0.00    +0.000 A 
ATOM     16  C   UNL     1       2.010   7.400  19.851  0.00  0.00    +0.000 A 
ATOM     17  C   UNL     1       2.150   7.392  18.450  0.00  0.00    +0.000 A 
ATOM     18  C   UNL     1       1.863   8.563  17.729  0.00  0.00    +0.000 A 
ATOM     19  C   UNL     1       1.445   9.720  18.397  0.00  0.00    +0.000 A 
BRANCH  14  20
ATOM     20  N   UNL     1       0.863  10.883  20.467  0.00  0.00    +0.000 N 
ATOM     21  H   UNL     1       1.545  11.508  20.924  0.00  0.00    +0.000 HD
ATOM     22  H   UNL     1      -0.137  11.125  20.515  0.00  0.00    +0.000 HD
ENDBRANCH  14  20
ENDBRANCH   1  17
TORSDOF 2
ENDMDL
MODEL 8
REMARK VINA RESULT:      -7.1      2.609      4.837
REMARK  Name = 
REMARK  2 active torsions:
REMARK  status: ('A' for Active; 'I' for Inactive)
REMARK    1  A    between atoms: N_1  and  C_2
REMARK    2  A    between atoms: C_5  and  C_6
REMARK                            x       y       z     vdW  Elec       q    Type
REMARK                         _______ _______ _______ _____ _____    ______ ____
ROOT
ATOM      1  C   UNL     1       2.921   4.063  17.549  0.00  0.00    +0.000 C 
ATOM      2  C   UNL     1       4.239   3.324  17.174  0.00  0.00    +0.000 C 
ATOM      3  N   UNL     1       4.933   4.151  16.195  0.00  0.00    +0.000 NA
ATOM      4  C   UNL     1       6.034   3.575  15.416  0.00  0.00    +0.000 C 
ATOM      5  C   UNL     1       7.115   4.663  15.371  0.00  0.00    +0.000 C 
ATOM      6  C   UNL     1       6.336   5.926  15.709  0.00  0.00    +0.000 C 
ATOM      7  C   UNL     1       5.450   5.375  16.814  0.00  0.00    +0.000 C 
ATOM      8  C   UNL     1       4.292   6.225  17.258  0.00  0.00    +0.000 A 
ATOM      9  C   UNL     1       4.394   7.623  17.343  0.00  0.00    +0.000 A 
ATOM     10  C   UNL     1       3.281   8.388  17.699  0.00  0.00    +0.000 A 
ATOM     11  C   UNL     1       2.064   7.767  17.976  0.00  0.00    +0.000 A 
ATOM     12  C   UNL     1       1.958   6.376  17.926  0.00  0.00    +0.000 A 
ATOM     13  C   UNL     1       3.071   5.586  17.589  0.00  0.00    +0.000 A 
ENDROOT
BRANCH   1  17
ATOM     14  C   UNL     1       1.414   2.647  21.359  0.00  0.00    +0.000 A 
ATOM     15  C   UNL     1       2.787   2.876  21.184  0.00  0.00    +0.000 A 
ATOM     16  C   UNL     1       3.270   3.332  19.956  0.00  0.00    +0.000 A 
ATOM     17  C   UNL     1       2.392   3.552  18.878  0.00  0.00    +0.000 A 
ATOM     18  C   UNL     1       1.018   3.320  19.059  0.00  0.00    +0.000 A 
ATOM     19  C   UNL     1       0.533   2.877  20.294  0.00  0.00    +0.000 A 
BRANCH  14  20
ATOM     20  N   UNL     1       0.926   2.190  22.607  0.00  0.00    +0.000 N 
ATOM     21  H   UNL     1      -0.087   2.172  22.801  0.00  0.00    +0.000 HD
ATOM     22  H   UNL     1       1.574   1.868  23.341  0.00  0.00    +0.000 HD
ENDBRANCH  14  20
ENDBRANCH   1  17
TORSDOF 2
ENDMDL
MODEL 9
REMARK VINA RESULT:      -7.1      2.594      4.890
REMARK  Name = 
REMARK  2 active torsions:
REMARK  status: ('A' for Active; 'I' for Inactive)
REMARK    1  A    between atoms: N_1  and  C_2
REMARK    2  A    between atoms: C_5  and  C_6
REMARK                            x       y       z     vdW  Elec       q    Type
REMARK                         _______ _______ _______ _____ _____    ______ ____
ROOT
ATOM      1  C   UNL     1       2.929   4.072  17.593  0.00  0.00    +0.000 C 
ATOM      2  C   UNL     1       4.247   3.345  17.198  0.00  0.00    +0.000 C 
ATOM      3  N   UNL     1       4.909   4.168  16.194  0.00  0.00    +0.000 NA
ATOM      4  C   UNL     1       5.999   3.596  15.398  0.00  0.00    +0.000 C 
ATOM      5  C   UNL     1       7.065   4.697  15.315  0.00  0.00    +0.000 C 
ATOM      6  C   UNL     1       6.278   5.954  15.655  0.00  0.00    +0.000 C 
ATOM      7  C   UNL     1       5.423   5.406  16.786  0.00  0.00    +0.000 C 
ATOM      8  C   UNL     1       4.265   6.247  17.245  0.00  0.00    +0.000 A 
ATOM      9  C   UNL     1       4.351   7.647  17.311  0.00  0.00    +0.000 A 
ATOM     10  C   UNL     1       3.237   8.403  17.682  0.00  0.00    +0.000 A 
ATOM     11  C   UNL     1       2.034   7.770  17.994  0.00  0.00    +0.000 A 
ATOM     12  C   UNL     1       1.945   6.378  17.964  0.00  0.00    +0.000 A 
ATOM     13  C   UNL     1       3.060   5.597  17.612  0.00  0.00    +0.000 A 
ENDROOT
BRANCH   1  17
ATOM     14  C   UNL     1       1.515   2.600  21.418  0.00  0.00    +0.000 A 
ATOM     15  C   UNL     1       0.605   2.878  20.388  0.00  0.00    +0.000 A 
ATOM     16  C   UNL     1       1.062   3.352  19.158  0.00  0.00    +0.000 A 
ATOM     17  C   UNL     1       2.435   3.571  18.940  0.00  0.00    +0.000 A 
ATOM     18  C   UNL     1       3.343   3.290  19.975  0.00  0.00    +0.000 A 
ATOM     19  C   UNL     1       2.885   2.801  21.203  0.00  0.00    +0.000 A 
BRANCH  14  20
ATOM     20  N   UNL     1       1.049   2.113  22.664  0.00  0.00    +0.000 N 
ATOM     21  H   UNL     1       0.101   2.345  22.997  0.00  0.00    +0.000 HD
ATOM     22  H   UNL     1       1.649   1.521  23.256  0.00  0.00    +0.000 HD
ENDBRANCH  14  20
ENDBRANCH   1  17
TORSDOF 2
ENDMDL
