MODEL 1
REMARK VINA RESULT:      -6.8      0.000      0.000
REMARK  Name = 
REMARK  4 active torsions:
REMARK  status: ('A' for Active; 'I' for Inactive)
REMARK    1  A    between atoms: C_1  and  C_2
REMARK    2  A    between atoms: C_5  and  N_6
REMARK    3  A    between atoms: C_10  and  N_11
REMARK    4  A    between atoms: C_12  and  C_14
REMARK                            x       y       z     vdW  Elec       q    Type
REMARK                         _______ _______ _______ _____ _____    ______ ____
ROOT
ATOM      1  N   UNL     1      -4.001  12.070  19.246  0.00  0.00    +0.000 N 
ATOM      2  N   UNL     1      -5.261  12.036  19.770  0.00  0.00    +0.000 NA
ATOM      3  C   UNL     1      -5.113  12.551  20.986  0.00  0.00    +0.000 A 
ATOM      4  C   UNL     1      -3.830  13.074  21.211  0.00  0.00    +0.000 A 
ATOM      5  C   UNL     1      -3.118  12.812  20.061  0.00  0.00    +0.000 A 
ATOM      6  C   UNL     1      -3.649  13.736  22.525  0.00  0.00    +0.000 C 
ATOM      7  S   UNL     1      -5.143  13.269  23.452  0.00  0.00    +0.000 S 
ATOM      8  O   UNL     1      -4.800  12.148  24.308  0.00  0.00    +0.000 OA
ATOM      9  O   UNL     1      -5.760  14.467  23.983  0.00  0.00    +0.000 OA
ATOM     10  C   UNL     1      -6.129  12.650  22.057  0.00  0.00    +0.000 C 
ENDROOT
BRANCH   1  15
ATOM     11  C   UNL     1      -2.813   9.689  14.170  0.00  0.00    +0.000 C 
ATOM     12  C   UNL     1      -3.143  10.292  15.504  0.00  0.00    +0.000 A 
ATOM     13  C   UNL     1      -4.216  11.180  15.647  0.00  0.00    +0.000 A 
ATOM     14  C   UNL     1      -4.519  11.737  16.892  0.00  0.00    +0.000 A 
ATOM     15  C   UNL     1      -3.722  11.439  18.005  0.00  0.00    +0.000 A 
ATOM     16  C   UNL     1      -2.678  10.512  17.880  0.00  0.00    +0.000 A 
ATOM     17  C   UNL     1      -2.393   9.946  16.634  0.00  0.00    +0.000 A 
ENDBRANCH   1  15
BRANCH   5  18
ATOM     18  N   UNL     1      -1.830  13.214  19.700  0.00  0.00    +0.000 N 
ATOM     19  C   UNL     1      -0.603  12.531  19.995  0.00  0.00    +0.000 C 
ATOM     20  O   UNL     1      -0.602  11.529  20.690  0.00  0.00    +0.000 OA
ATOM     21  H   UNL     1      -1.730  14.103  19.224  0.00  0.00    +0.000 HD
BRANCH  19  22
ATOM     22  C   UNL     1       0.579  13.129  19.412  0.00  0.00    +0.000 A 
ATOM     23  C   UNL     1       1.659  12.462  18.861  0.00  0.00    +0.000 A 
ATOM     24  C   UNL     1       2.643  13.352  18.347  0.00  0.00    +0.000 A 
ATOM     25  C   UNL     1       2.289  14.670  18.525  0.00  0.00    +0.000 A 
ATOM     26  S   UNL     1       0.781  14.828  19.313  0.00  0.00    +0.000 S 
ENDBRANCH  19  22
ENDBRANCH   5  18
TORSDOF 3
ENDMDL
MODEL 2
REMARK VINA RESULT:      -6.7      0.999      1.150
REMARK  Name = 
REMARK  4 active torsions:
REMARK  status: ('A' for Active; 'I' for Inactive)
REMARK    1  A    between atoms: C_1  and  C_2
REMARK    2  A    between atoms: C_5  and  N_6
REMARK    3  A    between atoms: C_10  and  N_11
REMARK    4  A    between atoms: C_12  and  C_14
REMARK                            x       y       z     vdW  Elec       q    Type
REMARK                         _______ _______ _______ _____ _____    ______ ____
ROOT
ATOM      1  N   UNL     1      -4.641  12.043  19.398  0.00  0.00    +0.000 N 
ATOM      2  N   UNL     1      -5.926  11.875  19.827  0.00  0.00    +0.000 NA
ATOM      3  C   UNL     1      -5.920  12.388  21.053  0.00  0.00    +0.000 A 
ATOM      4  C   UNL     1      -4.717  13.037  21.373  0.00  0.00    +0.000 A 
ATOM      5  C   UNL     1      -3.900  12.861  20.278  0.00  0.00    +0.000 A 
ATOM      6  C   UNL     1      -4.700  13.698  22.700  0.00  0.00    +0.000 C 
ATOM      7  S   UNL     1      -6.202  13.071  23.513  0.00  0.00    +0.000 S 
ATOM      8  O   UNL     1      -5.809  11.981  24.387  0.00  0.00    +0.000 OA
ATOM      9  O   UNL     1      -6.975  14.194  24.002  0.00  0.00    +0.000 OA
ATOM     10  C   UNL     1      -7.016  12.372  22.047  0.00  0.00    +0.000 C 
ENDROOT
BRANCH   1  15
ATOM     11  C   UNL     1      -2.821   9.847  14.426  0.00  0.00    +0.000 C 
ATOM     12  C   UNL     1      -3.319  10.403  15.729  0.00  0.00    +0.000 A 
ATOM     13  C   UNL     1      -4.356  11.342  15.761  0.00  0.00    +0.000 A 
ATOM     14  C   UNL     1      -4.815  11.853  16.978  0.00  0.00    +0.000 A 
ATOM     15  C   UNL     1      -4.210  11.458  18.178  0.00  0.00    +0.000 A 
ATOM     16  C   UNL     1      -3.205  10.481  18.156  0.00  0.00    +0.000 A 
ATOM     17  C   UNL     1      -2.764   9.960  16.936  0.00  0.00    +0.000 A 
ENDBRANCH   1  15
BRANCH   5  18
ATOM     18  N   UNL     1      -2.637  13.396  20.014  0.00  0.00    +0.000 N 
ATOM     19  C   UNL     1      -1.370  12.811  20.348  0.00  0.00    +0.000 C 
ATOM     20  O   UNL     1      -1.314  11.778  20.993  0.00  0.00    +0.000 OA
ATOM     21  H   UNL     1      -2.594  14.315  19.588  0.00  0.00    +0.000 HD
BRANCH  19  22
ATOM     22  C   UNL     1      -0.218  13.543  19.867  0.00  0.00    +0.000 A 
ATOM     23  C   UNL     1      -0.230  14.689  19.091  0.00  0.00    +0.000 A 
ATOM     24  C   UNL     1       1.080  15.173  18.817  0.00  0.00    +0.000 A 
ATOM     25  C   UNL     1       2.051  14.381  19.384  0.00  0.00    +0.000 A 
ATOM     26  S   UNL     1       1.384  13.060  20.238  0.00  0.00    +0.000 S 
ENDBRANCH  19  22
ENDBRANCH   5  18
TORSDOF 3
ENDMDL
MODEL 3
REMARK VINA RESULT:      -6.5      3.003      3.579
REMARK  Name = 
REMARK  4 active torsions:
REMARK  status: ('A' for Active; 'I' for Inactive)
REMARK    1  A    between atoms: C_1  and  C_2
REMARK    2  A    between atoms: C_5  and  N_6
REMARK    3  A    between atoms: C_10  and  N_11
REMARK    4  A    between atoms: C_12  and  C_14
REMARK                            x       y       z     vdW  Elec       q    Type
REMARK                         _______ _______ _______ _____ _____    ______ ____
ROOT
ATOM      1  N   UNL     1      -2.254  11.632  19.035  0.00  0.00    +0.000 N 
ATOM      2  N   UNL     1      -2.784  12.786  19.536  0.00  0.00    +0.000 NA
ATOM      3  C   UNL     1      -2.312  12.839  20.776  0.00  0.00    +0.000 A 
ATOM      4  C   UNL     1      -1.358  11.846  21.047  0.00  0.00    +0.000 A 
ATOM      5  C   UNL     1      -1.277  11.090  19.899  0.00  0.00    +0.000 A 
ATOM      6  C   UNL     1      -0.743  11.924  22.394  0.00  0.00    +0.000 C 
ATOM      7  S   UNL     1      -1.782  13.132  23.273  0.00  0.00    +0.000 S 
ATOM      8  O   UNL     1      -2.734  12.391  24.081  0.00  0.00    +0.000 OA
ATOM      9  O   UNL     1      -0.931  14.152  23.849  0.00  0.00    +0.000 OA
ATOM     10  C   UNL     1      -2.654  13.817  21.834  0.00  0.00    +0.000 C 
ENDROOT
BRANCH   1  15
ATOM     11  C   UNL     1      -3.902   9.812  13.856  0.00  0.00    +0.000 C 
ATOM     12  C   UNL     1      -3.486  10.269  15.225  0.00  0.00    +0.000 A 
ATOM     13  C   UNL     1      -4.265  11.183  15.945  0.00  0.00    +0.000 A 
ATOM     14  C   UNL     1      -3.873  11.602  17.219  0.00  0.00    +0.000 A 
ATOM     15  C   UNL     1      -2.672  11.139  17.771  0.00  0.00    +0.000 A 
ATOM     16  C   UNL     1      -1.914  10.185  17.076  0.00  0.00    +0.000 A 
ATOM     17  C   UNL     1      -2.322   9.757  15.810  0.00  0.00    +0.000 A 
ENDBRANCH   1  15
BRANCH   5  18
ATOM     18  N   UNL     1      -0.404  10.048  19.579  0.00  0.00    +0.000 N 
ATOM     19  C   UNL     1       0.959  10.172  19.147  0.00  0.00    +0.000 C 
ATOM     20  O   UNL     1       1.449  11.269  18.945  0.00  0.00    +0.000 OA
ATOM     21  H   UNL     1      -0.770   9.103  19.601  0.00  0.00    +0.000 HD
BRANCH  19  22
ATOM     22  C   UNL     1       1.658   8.915  18.977  0.00  0.00    +0.000 A 
ATOM     23  C   UNL     1       2.341   8.493  17.851  0.00  0.00    +0.000 A 
ATOM     24  C   UNL     1       2.943   7.216  18.027  0.00  0.00    +0.000 A 
ATOM     25  C   UNL     1       2.698   6.699  19.279  0.00  0.00    +0.000 A 
ATOM     26  S   UNL     1       1.743   7.749  20.230  0.00  0.00    +0.000 S 
ENDBRANCH  19  22
ENDBRANCH   5  18
TORSDOF 3
ENDMDL
MODEL 4
REMARK VINA RESULT:      -6.5      1.067      1.518
REMARK  Name = 
REMARK  4 active torsions:
REMARK  status: ('A' for Active; 'I' for Inactive)
REMARK    1  A    between atoms: C_1  and  C_2
REMARK    2  A    between atoms: C_5  and  N_6
REMARK    3  A    between atoms: C_10  and  N_11
REMARK    4  A    between atoms: C_12  and  C_14
REMARK                            x       y       z     vdW  Elec       q    Type
REMARK                         _______ _______ _______ _____ _____    ______ ____
ROOT
ATOM      1  N   UNL     1      -4.661  12.166  19.492  0.00  0.00    +0.000 N 
ATOM      2  N   UNL     1      -5.912  11.849  19.939  0.00  0.00    +0.000 NA
ATOM      3  C   UNL     1      -5.954  12.374  21.158  0.00  0.00    +0.000 A 
ATOM      4  C   UNL     1      -4.835  13.167  21.457  0.00  0.00    +0.000 A 
ATOM      5  C   UNL     1      -4.015  13.079  20.353  0.00  0.00    +0.000 A 
ATOM      6  C   UNL     1      -4.884  13.843  22.776  0.00  0.00    +0.000 C 
ATOM      7  S   UNL     1      -6.290  13.048  23.614  0.00  0.00    +0.000 S 
ATOM      8  O   UNL     1      -5.758  12.024  24.496  0.00  0.00    +0.000 OA
ATOM      9  O   UNL     1      -7.188  14.075  24.101  0.00  0.00    +0.000 OA
ATOM     10  C   UNL     1      -7.029  12.238  22.166  0.00  0.00    +0.000 C 
ENDROOT
BRANCH   1  15
ATOM     11  C   UNL     1      -2.748   9.800  14.634  0.00  0.00    +0.000 C 
ATOM     12  C   UNL     1      -3.231  10.441  15.903  0.00  0.00    +0.000 A 
ATOM     13  C   UNL     1      -2.535  10.273  17.105  0.00  0.00    +0.000 A 
ATOM     14  C   UNL     1      -2.990  10.875  18.281  0.00  0.00    +0.000 A 
ATOM     15  C   UNL     1      -4.175  11.622  18.273  0.00  0.00    +0.000 A 
ATOM     16  C   UNL     1      -4.849  11.836  17.062  0.00  0.00    +0.000 A 
ATOM     17  C   UNL     1      -4.377  11.245  15.887  0.00  0.00    +0.000 A 
ENDBRANCH   1  15
BRANCH   5  18
ATOM     18  N   UNL     1      -2.830  13.759  20.068  0.00  0.00    +0.000 N 
ATOM     19  C   UNL     1      -1.502  13.369  20.450  0.00  0.00    +0.000 C 
ATOM     20  O   UNL     1      -1.322  12.394  21.160  0.00  0.00    +0.000 OA
ATOM     21  H   UNL     1      -2.900  14.648  19.586  0.00  0.00    +0.000 HD
BRANCH  19  22
ATOM     22  C   UNL     1      -0.448  14.217  19.934  0.00  0.00    +0.000 A 
ATOM     23  C   UNL     1       0.663  13.812  19.217  0.00  0.00    +0.000 A 
ATOM     24  C   UNL     1       1.489  14.905  18.832  0.00  0.00    +0.000 A 
ATOM     25  C   UNL     1       0.988  16.109  19.272  0.00  0.00    +0.000 A 
ATOM     26  S   UNL     1      -0.467  15.917  20.146  0.00  0.00    +0.000 S 
ENDBRANCH  19  22
ENDBRANCH   5  18
TORSDOF 3
ENDMDL
MODEL 5
REMARK VINA RESULT:      -6.4      3.820      6.243
REMARK  Name = 
REMARK  4 active torsions:
REMARK  status: ('A' for Active; 'I' for Inactive)
REMARK    1  A    between atoms: C_1  and  C_2
REMARK    2  A    between atoms: C_5  and  N_6
REMARK    3  A    between atoms: C_10  and  N_11
REMARK    4  A    between atoms: C_12  and  C_14
REMARK                            x       y       z     vdW  Elec       q    Type
REMARK                         _______ _______ _______ _____ _____    ______ ____
ROOT
ATOM      1  N   UNL     1      -0.261  12.155  19.047  0.00  0.00    +0.000 N 
ATOM      2  N   UNL     1      -1.445  12.762  19.355  0.00  0.00    +0.000 NA
ATOM      3  C   UNL     1      -2.359  11.965  18.814  0.00  0.00    +0.000 A 
ATOM      4  C   UNL     1      -1.821  10.771  18.308  0.00  0.00    +0.000 A 
ATOM      5  C   UNL     1      -0.461  10.867  18.506  0.00  0.00    +0.000 A 
ATOM      6  C   UNL     1      -2.820   9.815  17.773  0.00  0.00    +0.000 C 
ATOM      7  S   UNL     1      -4.354  10.791  17.699  0.00  0.00    +0.000 S 
ATOM      8  O   UNL     1      -4.515  11.258  16.333  0.00  0.00    +0.000 OA
ATOM      9  O   UNL     1      -5.405  10.065  18.381  0.00  0.00    +0.000 OA
ATOM     10  C   UNL     1      -3.819  12.189  18.729  0.00  0.00    +0.000 C 
ENDROOT
BRANCH   1  15
ATOM     11  C   UNL     1       4.637  14.952  20.067  0.00  0.00    +0.000 C 
ATOM     12  C   UNL     1       3.368  14.196  19.797  0.00  0.00    +0.000 A 
ATOM     13  C   UNL     1       2.947  13.942  18.487  0.00  0.00    +0.000 A 
ATOM     14  C   UNL     1       1.767  13.236  18.243  0.00  0.00    +0.000 A 
ATOM     15  C   UNL     1       0.972  12.808  19.315  0.00  0.00    +0.000 A 
ATOM     16  C   UNL     1       1.413  13.016  20.629  0.00  0.00    +0.000 A 
ATOM     17  C   UNL     1       2.605  13.708  20.864  0.00  0.00    +0.000 A 
ENDBRANCH   1  15
BRANCH   5  18
ATOM     18  N   UNL     1       0.538   9.915  18.295  0.00  0.00    +0.000 N 
ATOM     19  C   UNL     1       1.222   9.149  19.298  0.00  0.00    +0.000 C 
ATOM     20  O   UNL     1       1.012   9.350  20.482  0.00  0.00    +0.000 OA
ATOM     21  H   UNL     1       0.861   9.773  17.344  0.00  0.00    +0.000 HD
BRANCH  19  22
ATOM     22  C   UNL     1       2.147   8.162  18.783  0.00  0.00    +0.000 A 
ATOM     23  C   UNL     1       2.913   8.265  17.635  0.00  0.00    +0.000 A 
ATOM     24  C   UNL     1       3.742   7.126  17.432  0.00  0.00    +0.000 A 
ATOM     25  C   UNL     1       3.581   6.187  18.425  0.00  0.00    +0.000 A 
ATOM     26  S   UNL     1       2.432   6.678  19.591  0.00  0.00    +0.000 S 
ENDBRANCH  19  22
ENDBRANCH   5  18
TORSDOF 3
ENDMDL
MODEL 6
REMARK VINA RESULT:      -6.4      1.036      1.036
REMARK  Name = 
REMARK  4 active torsions:
REMARK  status: ('A' for Active; 'I' for Inactive)
REMARK    1  A    between atoms: C_1  and  C_2
REMARK    2  A    between atoms: C_5  and  N_6
REMARK    3  A    between atoms: C_10  and  N_11
REMARK    4  A    between atoms: C_12  and  C_14
REMARK                            x       y       z     vdW  Elec       q    Type
REMARK                         _______ _______ _______ _____ _____    ______ ____
ROOT
ATOM      1  N   UNL     1      -3.594  12.097  19.293  0.00  0.00    +0.000 N 
ATOM      2  N   UNL     1      -4.825  12.210  19.875  0.00  0.00    +0.000 NA
ATOM      3  C   UNL     1      -4.557  12.665  21.094  0.00  0.00    +0.000 A 
ATOM      4  C   UNL     1      -3.209  13.012  21.270  0.00  0.00    +0.000 A 
ATOM      5  C   UNL     1      -2.588  12.695  20.082  0.00  0.00    +0.000 A 
ATOM      6  C   UNL     1      -2.886  13.606  22.590  0.00  0.00    +0.000 C 
ATOM      7  S   UNL     1      -4.386  13.307  23.575  0.00  0.00    +0.000 S 
ATOM      8  O   UNL     1      -4.153  12.126  24.387  0.00  0.00    +0.000 OA
ATOM      9  O   UNL     1      -4.818  14.558  24.164  0.00  0.00    +0.000 OA
ATOM     10  C   UNL     1      -5.504  12.862  22.214  0.00  0.00    +0.000 C 
ENDROOT
BRANCH   1  15
ATOM     11  C   UNL     1      -2.983   9.745  14.102  0.00  0.00    +0.000 C 
ATOM     12  C   UNL     1      -3.161  10.341  15.469  0.00  0.00    +0.000 A 
ATOM     13  C   UNL     1      -4.240  11.187  15.750  0.00  0.00    +0.000 A 
ATOM     14  C   UNL     1      -4.400  11.736  17.025  0.00  0.00    +0.000 A 
ATOM     15  C   UNL     1      -3.454  11.473  18.025  0.00  0.00    +0.000 A 
ATOM     16  C   UNL     1      -2.400  10.587  17.764  0.00  0.00    +0.000 A 
ATOM     17  C   UNL     1      -2.257  10.028  16.491  0.00  0.00    +0.000 A 
ENDBRANCH   1  15
BRANCH   5  18
ATOM     18  N   UNL     1      -1.276  12.939  19.670  0.00  0.00    +0.000 N 
ATOM     19  C   UNL     1      -0.622  14.214  19.598  0.00  0.00    +0.000 C 
ATOM     20  O   UNL     1      -1.234  15.241  19.835  0.00  0.00    +0.000 OA
ATOM     21  H   UNL     1      -0.732  12.151  19.338  0.00  0.00    +0.000 HD
BRANCH  19  22
ATOM     22  C   UNL     1       0.777  14.158  19.227  0.00  0.00    +0.000 A 
ATOM     23  C   UNL     1       1.471  13.048  18.781  0.00  0.00    +0.000 A 
ATOM     24  C   UNL     1       2.828  13.344  18.472  0.00  0.00    +0.000 A 
ATOM     25  C   UNL     1       3.131  14.668  18.697  0.00  0.00    +0.000 A 
ATOM     26  S   UNL     1       1.785  15.543  19.281  0.00  0.00    +0.000 S 
ENDBRANCH  19  22
ENDBRANCH   5  18
TORSDOF 3
ENDMDL
MODEL 7
REMARK VINA RESULT:      -6.4     10.716     12.374
REMARK  Name = 
REMARK  4 active torsions:
REMARK  status: ('A' for Active; 'I' for Inactive)
REMARK    1  A    between atoms: C_1  and  C_2
REMARK    2  A    between atoms: C_5  and  N_6
REMARK    3  A    between atoms: C_10  and  N_11
REMARK    4  A    between atoms: C_12  and  C_14
REMARK                            x       y       z     vdW  Elec       q    Type
REMARK                         _______ _______ _______ _____ _____    ______ ____
ROOT
ATOM      1  N   UNL     1       5.529   5.516  18.261  0.00  0.00    +0.000 N 
ATOM      2  N   UNL     1       5.052   5.092  19.468  0.00  0.00    +0.000 NA
ATOM      3  C   UNL     1       4.093   4.231  19.145  0.00  0.00    +0.000 A 
ATOM      4  C   UNL     1       4.042   3.952  17.770  0.00  0.00    +0.000 A 
ATOM      5  C   UNL     1       5.011   4.746  17.197  0.00  0.00    +0.000 A 
ATOM      6  C   UNL     1       3.043   2.930  17.379  0.00  0.00    +0.000 C 
ATOM      7  S   UNL     1       2.040   2.710  18.881  0.00  0.00    +0.000 S 
ATOM      8  O   UNL     1       0.837   3.510  18.730  0.00  0.00    +0.000 OA
ATOM      9  O   UNL     1       1.977   1.300  19.202  0.00  0.00    +0.000 OA
ATOM     10  C   UNL     1       3.147   3.548  20.054  0.00  0.00    +0.000 C 
ENDROOT
BRANCH   1  15
ATOM     11  C   UNL     1       9.178   9.933  18.087  0.00  0.00    +0.000 C 
ATOM     12  C   UNL     1       8.234   8.766  18.109  0.00  0.00    +0.000 A 
ATOM     13  C   UNL     1       7.038   8.794  17.381  0.00  0.00    +0.000 A 
ATOM     14  C   UNL     1       6.165   7.704  17.405  0.00  0.00    +0.000 A 
ATOM     15  C   UNL     1       6.463   6.584  18.192  0.00  0.00    +0.000 A 
ATOM     16  C   UNL     1       7.682   6.529  18.883  0.00  0.00    +0.000 A 
ATOM     17  C   UNL     1       8.558   7.617  18.839  0.00  0.00    +0.000 A 
ENDBRANCH   1  15
BRANCH   5  18
ATOM     18  N   UNL     1       5.465   4.783  15.877  0.00  0.00    +0.000 N 
ATOM     19  C   UNL     1       6.794   4.498  15.417  0.00  0.00    +0.000 C 
ATOM     20  O   UNL     1       7.689   4.264  16.211  0.00  0.00    +0.000 OA
ATOM     21  H   UNL     1       4.814   5.089  15.163  0.00  0.00    +0.000 HD
BRANCH  19  22
ATOM     22  C   UNL     1       6.957   4.521  13.979  0.00  0.00    +0.000 A 
ATOM     23  C   UNL     1       7.801   5.343  13.254  0.00  0.00    +0.000 A 
ATOM     24  C   UNL     1       7.741   5.087  11.855  0.00  0.00    +0.000 A 
ATOM     25  C   UNL     1       6.850   4.082  11.554  0.00  0.00    +0.000 A 
ATOM     26  S   UNL     1       6.090   3.458  12.951  0.00  0.00    +0.000 S 
ENDBRANCH  19  22
ENDBRANCH   5  18
TORSDOF 3
ENDMDL
MODEL 8
REMARK VINA RESULT:      -6.4      8.879     11.531
REMARK  Name = 
REMARK  4 active torsions:
REMARK  status: ('A' for Active; 'I' for Inactive)
REMARK    1  A    between atoms: C_1  and  C_2
REMARK    2  A    between atoms: C_5  and  N_6
REMARK    3  A    between atoms: C_10  and  N_11
REMARK    4  A    between atoms: C_12  and  C_14
REMARK                            x       y       z     vdW  Elec       q    Type
REMARK                         _______ _______ _______ _____ _____    ______ ____
ROOT
ATOM      1  N   UNL     1       4.020   4.049  18.066  0.00  0.00    +0.000 N 
ATOM      2  N   UNL     1       5.106   3.333  17.650  0.00  0.00    +0.000 NA
ATOM      3  C   UNL     1       5.512   3.978  16.562  0.00  0.00    +0.000 A 
ATOM      4  C   UNL     1       4.830   5.186  16.349  0.00  0.00    +0.000 A 
ATOM      5  C   UNL     1       3.894   5.263  17.357  0.00  0.00    +0.000 A 
ATOM      6  C   UNL     1       5.313   5.979  15.193  0.00  0.00    +0.000 C 
ATOM      7  S   UNL     1       6.414   4.829  14.312  0.00  0.00    +0.000 S 
ATOM      8  O   UNL     1       5.660   4.249  13.215  0.00  0.00    +0.000 OA
ATOM      9  O   UNL     1       7.692   5.475  14.096  0.00  0.00    +0.000 OA
ATOM     10  C   UNL     1       6.583   3.580  15.621  0.00  0.00    +0.000 C 
ENDROOT
BRANCH   1  15
ATOM     11  C   UNL     1       0.771   2.240  22.427  0.00  0.00    +0.000 C 
ATOM     12  C   UNL     1       1.623   2.688  21.276  0.00  0.00    +0.000 A 
ATOM     13  C   UNL     1       3.019   2.608  21.340  0.00  0.00    +0.000 A 
ATOM     14  C   UNL     1       3.806   3.024  20.263  0.00  0.00    +0.000 A 
ATOM     15  C   UNL     1       3.201   3.564  19.121  0.00  0.00    +0.000 A 
ATOM     16  C   UNL     1       1.803   3.600  19.030  0.00  0.00    +0.000 A 
ATOM     17  C   UNL     1       1.023   3.165  20.105  0.00  0.00    +0.000 A 
ENDBRANCH   1  15
BRANCH   5  18
ATOM     18  N   UNL     1       3.028   6.307  17.689  0.00  0.00    +0.000 N 
ATOM     19  C   UNL     1       2.929   6.971  18.958  0.00  0.00    +0.000 C 
ATOM     20  O   UNL     1       3.587   6.589  19.911  0.00  0.00    +0.000 OA
ATOM     21  H   UNL     1       2.359   6.606  16.988  0.00  0.00    +0.000 HD
BRANCH  19  22
ATOM     22  C   UNL     1       2.008   8.087  18.989  0.00  0.00    +0.000 A 
ATOM     23  C   UNL     1       1.611   8.863  17.915  0.00  0.00    +0.000 A 
ATOM     24  C   UNL     1       0.668   9.862  18.285  0.00  0.00    +0.000 A 
ATOM     25  C   UNL     1       0.378   9.824  19.630  0.00  0.00    +0.000 A 
ATOM     26  S   UNL     1       1.243   8.591  20.437  0.00  0.00    +0.000 S 
ENDBRANCH  19  22
ENDBRANCH   5  18
TORSDOF 3
ENDMDL
MODEL 9
REMARK VINA RESULT:      -6.3      1.838      4.974
REMARK  Name = 
REMARK  4 active torsions:
REMARK  status: ('A' for Active; 'I' for Inactive)
REMARK    1  A    between atoms: C_1  and  C_2
REMARK    2  A    between atoms: C_5  and  N_6
REMARK    3  A    between atoms: C_10  and  N_11
REMARK    4  A    between atoms: C_12  and  C_14
REMARK                            x       y       z     vdW  Elec       q    Type
REMARK                         _______ _______ _______ _____ _____    ______ ____
ROOT
ATOM      1  N   UNL     1      -1.369  13.854  20.983  0.00  0.00    +0.000 N 
ATOM      2  N   UNL     1      -1.344  14.073  22.330  0.00  0.00    +0.000 NA
ATOM      3  C   UNL     1      -2.549  13.689  22.735  0.00  0.00    +0.000 A 
ATOM      4  C   UNL     1      -3.300  13.069  21.724  0.00  0.00    +0.000 A 
ATOM      5  C   UNL     1      -2.514  13.126  20.594  0.00  0.00    +0.000 A 
ATOM      6  C   UNL     1      -4.618  12.547  22.159  0.00  0.00    +0.000 C 
ATOM      7  S   UNL     1      -4.841  13.265  23.816  0.00  0.00    +0.000 S 
ATOM      8  O   UNL     1      -5.687  14.437  23.680  0.00  0.00    +0.000 OA
ATOM      9  O   UNL     1      -5.160  12.203  24.748  0.00  0.00    +0.000 OA
ATOM     10  C   UNL     1      -3.131  13.814  24.090  0.00  0.00    +0.000 C 
ENDROOT
BRANCH   1  15
ATOM     11  C   UNL     1       2.975  15.815  17.799  0.00  0.00    +0.000 C 
ATOM     12  C   UNL     1       1.825  15.291  18.609  0.00  0.00    +0.000 A 
ATOM     13  C   UNL     1       0.653  16.041  18.764  0.00  0.00    +0.000 A 
ATOM     14  C   UNL     1      -0.414  15.547  19.519  0.00  0.00    +0.000 A 
ATOM     15  C   UNL     1      -0.302  14.307  20.161  0.00  0.00    +0.000 A 
ATOM     16  C   UNL     1       0.848  13.529  19.969  0.00  0.00    +0.000 A 
ATOM     17  C   UNL     1       1.904  14.023  19.198  0.00  0.00    +0.000 A 
ENDBRANCH   1  15
BRANCH   5  18
ATOM     18  N   UNL     1      -2.724  12.558  19.336  0.00  0.00    +0.000 N 
ATOM     19  C   UNL     1      -2.155  11.338  18.838  0.00  0.00    +0.000 C 
ATOM     20  O   UNL     1      -1.340  10.718  19.499  0.00  0.00    +0.000 OA
ATOM     21  H   UNL     1      -3.294  13.074  18.675  0.00  0.00    +0.000 HD
BRANCH  19  22
ATOM     22  C   UNL     1      -2.624  10.940  17.528  0.00  0.00    +0.000 A 
ATOM     23  C   UNL     1      -1.989  10.085  16.645  0.00  0.00    +0.000 A 
ATOM     24  C   UNL     1      -2.738   9.881  15.453  0.00  0.00    +0.000 A 
ATOM     25  C   UNL     1      -3.917  10.589  15.456  0.00  0.00    +0.000 A 
ATOM     26  S   UNL     1      -4.114  11.498  16.890  0.00  0.00    +0.000 S 
ENDBRANCH  19  22
ENDBRANCH   5  18
TORSDOF 3
ENDMDL
