MODEL 1
REMARK VINA RESULT:      -8.0      0.000      0.000
REMARK  Name = 
REMARK  8 active torsions:
REMARK  status: ('A' for Active; 'I' for Inactive)
REMARK    1  A    between atoms: C_1  and  O_2
REMARK    2  A    between atoms: O_2  and  C_3
REMARK    3  A    between atoms: C_6  and  C_7
REMARK    4  A    between atoms: N_10  and  C_11
REMARK    5  A    between atoms: C_21  and  C_22
REMARK    6  A    between atoms: C_22  and  C_23
REMARK    7  A    between atoms: C_23  and  C_24
REMARK    8  A    between atoms: N_26  and  N_27
REMARK                            x       y       z     vdW  Elec       q    Type
REMARK                         _______ _______ _______ _____ _____    ______ ____
ROOT
ATOM      1  C   UNL     1       1.351   9.231  19.257  0.00  0.00    +0.000 A 
ATOM      2  S   UNL     1       2.128   8.772  17.784  0.00  0.00    +0.000 S 
ATOM      3  C   UNL     1       2.634   7.293  18.485  0.00  0.00    +0.000 A 
ATOM      4  N   UNL     1       3.375   6.410  17.776  0.00  0.00    +0.000 N 
ATOM      5  N   UNL     1       2.255   7.125  19.729  0.00  0.00    +0.000 NA
ATOM      6  C   UNL     1       1.564   8.227  20.199  0.00  0.00    +0.000 A 
ATOM      7  H   UNL     1       3.850   6.716  16.935  0.00  0.00    +0.000 HD
ENDROOT
BRANCH   4   8
ATOM      8  C   UNL     1       3.375   5.017  17.985  0.00  0.00    +0.000 A 
ATOM      9  C   UNL     1       2.474   4.171  17.319  0.00  0.00    +0.000 A 
ATOM     10  C   UNL     1       2.466   2.796  17.551  0.00  0.00    +0.000 A 
ATOM     11  C   UNL     1       3.347   2.258  18.482  0.00  0.00    +0.000 A 
ATOM     12  F   UNL     1       3.332   0.936  18.707  0.00  0.00    +0.000 F 
ATOM     13  C   UNL     1       4.227   3.076  19.175  0.00  0.00    +0.000 A 
ATOM     14  F   UNL     1       5.058   2.549  20.086  0.00  0.00    +0.000 F 
ATOM     15  C   UNL     1       4.244   4.444  18.924  0.00  0.00    +0.000 A 
ATOM     16  F   UNL     1       5.093   5.232  19.605  0.00  0.00    +0.000 F 
ENDBRANCH   4   8
BRANCH   1  20
ATOM     17  C   UNL     1      -0.776  12.937  19.749  0.00  0.00    +0.000 A 
ATOM     18  C   UNL     1      -1.371  11.867  19.087  0.00  0.00    +0.000 A 
ATOM     19  C   UNL     1      -0.665  10.676  18.887  0.00  0.00    +0.000 A 
ATOM     20  C   UNL     1       0.644  10.521  19.368  0.00  0.00    +0.000 A 
ATOM     21  C   UNL     1       1.243  11.626  19.991  0.00  0.00    +0.000 A 
ATOM     22  C   UNL     1       0.544  12.825  20.174  0.00  0.00    +0.000 A 
BRANCH  17  24
ATOM     23  C   UNL     1      -2.723  13.873  20.700  0.00  0.00    +0.000 C 
ATOM     24  O   UNL     1      -1.558  14.048  19.899  0.00  0.00    +0.000 OA
ENDBRANCH  17  24
ENDBRANCH   1  20
BRANCH   6  25
ATOM     25  C   UNL     1       1.129   8.211  21.634  0.00  0.00    +0.000 C 
BRANCH  25  26
ATOM     26  C   UNL     1      -0.305   8.678  21.856  0.00  0.00    +0.000 C 
BRANCH  26  27
ATOM     27  C   UNL     1      -0.336   9.775  22.898  0.00  0.00    +0.000 C 
ATOM     28  O   UNL     1       0.329   9.763  23.930  0.00  0.00    +0.000 OA
ATOM     29  N   UNL     1      -1.216  10.802  22.583  0.00  0.00    +0.000 N 
ATOM     30  H   UNL     1      -1.606  10.874  21.645  0.00  0.00    +0.000 HD
BRANCH  29  31
ATOM     31  N   UNL     1      -1.297  11.918  23.444  0.00  0.00    +0.000 NA
ATOM     32  H   UNL     1      -0.356  12.339  23.474  0.00  0.00    +0.000 HD
ATOM     33  H   UNL     1      -1.433  11.569  24.397  0.00  0.00    +0.000 HD
ENDBRANCH  29  31
ENDBRANCH  26  27
ENDBRANCH  25  26
ENDBRANCH   6  25
TORSDOF 7
ENDMDL
MODEL 2
REMARK VINA RESULT:      -7.9      0.989      1.466
REMARK  Name = 
REMARK  8 active torsions:
REMARK  status: ('A' for Active; 'I' for Inactive)
REMARK    1  A    between atoms: C_1  and  O_2
REMARK    2  A    between atoms: O_2  and  C_3
REMARK    3  A    between atoms: C_6  and  C_7
REMARK    4  A    between atoms: N_10  and  C_11
REMARK    5  A    between atoms: C_21  and  C_22
REMARK    6  A    between atoms: C_22  and  C_23
REMARK    7  A    between atoms: C_23  and  C_24
REMARK    8  A    between atoms: N_26  and  N_27
REMARK                            x       y       z     vdW  Elec       q    Type
REMARK                         _______ _______ _______ _____ _____    ______ ____
ROOT
ATOM      1  C   UNL     1       1.290   9.235  19.270  0.00  0.00    +0.000 A 
ATOM      2  S   UNL     1       2.011   8.744  17.779  0.00  0.00    +0.000 S 
ATOM      3  C   UNL     1       2.626   7.326  18.517  0.00  0.00    +0.000 A 
ATOM      4  N   UNL     1       3.372   6.446  17.809  0.00  0.00    +0.000 N 
ATOM      5  N   UNL     1       2.320   7.200  19.786  0.00  0.00    +0.000 NA
ATOM      6  C   UNL     1       1.601   8.289  20.243  0.00  0.00    +0.000 A 
ATOM      7  H   UNL     1       3.786   6.735  16.931  0.00  0.00    +0.000 HD
ENDROOT
BRANCH   4   8
ATOM      8  C   UNL     1       3.452   5.066  18.080  0.00  0.00    +0.000 A 
ATOM      9  C   UNL     1       4.641   4.472  18.533  0.00  0.00    +0.000 A 
ATOM     10  C   UNL     1       4.717   3.101  18.776  0.00  0.00    +0.000 A 
ATOM     11  C   UNL     1       3.603   2.304  18.535  0.00  0.00    +0.000 A 
ATOM     12  F   UNL     1       3.682   0.985  18.765  0.00  0.00    +0.000 F 
ATOM     13  C   UNL     1       2.426   2.863  18.060  0.00  0.00    +0.000 A 
ATOM     14  F   UNL     1       1.364   2.082  17.812  0.00  0.00    +0.000 F 
ATOM     15  C   UNL     1       2.350   4.234  17.839  0.00  0.00    +0.000 A 
ATOM     16  F   UNL     1       1.210   4.767  17.370  0.00  0.00    +0.000 F 
ENDBRANCH   4   8
BRANCH   1  20
ATOM     17  C   UNL     1      -0.988  12.857  19.710  0.00  0.00    +0.000 A 
ATOM     18  C   UNL     1      -1.569  11.726  19.143  0.00  0.00    +0.000 A 
ATOM     19  C   UNL     1      -0.816  10.561  18.958  0.00  0.00    +0.000 A 
ATOM     20  C   UNL     1       0.526  10.495  19.361  0.00  0.00    +0.000 A 
ATOM     21  C   UNL     1       1.105  11.658  19.888  0.00  0.00    +0.000 A 
ATOM     22  C   UNL     1       0.359  12.831  20.054  0.00  0.00    +0.000 A 
BRANCH  17  24
ATOM     23  C   UNL     1      -2.943  13.734  20.700  0.00  0.00    +0.000 C 
ATOM     24  O   UNL     1      -1.816  13.936  19.854  0.00  0.00    +0.000 OA
ENDBRANCH  17  24
ENDBRANCH   1  20
BRANCH   6  25
ATOM     25  C   UNL     1       1.242   8.320  21.698  0.00  0.00    +0.000 C 
BRANCH  25  26
ATOM     26  C   UNL     1      -0.221   8.648  21.972  0.00  0.00    +0.000 C 
BRANCH  26  27
ATOM     27  C   UNL     1      -0.319   9.761  22.993  0.00  0.00    +0.000 C 
ATOM     28  O   UNL     1       0.271   9.761  24.070  0.00  0.00    +0.000 OA
ATOM     29  N   UNL     1      -1.168  10.788  22.601  0.00  0.00    +0.000 N 
ATOM     30  H   UNL     1      -1.490  10.847  21.638  0.00  0.00    +0.000 HD
BRANCH  29  31
ATOM     31  N   UNL     1      -1.303  11.918  23.437  0.00  0.00    +0.000 NA
ATOM     32  H   UNL     1      -1.640  11.573  24.349  0.00  0.00    +0.000 HD
ATOM     33  H   UNL     1      -2.088  12.474  23.087  0.00  0.00    +0.000 HD
ENDBRANCH  29  31
ENDBRANCH  26  27
ENDBRANCH  25  26
ENDBRANCH   6  25
TORSDOF 7
ENDMDL
MODEL 3
REMARK VINA RESULT:      -7.5      4.850      8.728
REMARK  Name = 
REMARK  8 active torsions:
REMARK  status: ('A' for Active; 'I' for Inactive)
REMARK    1  A    between atoms: C_1  and  O_2
REMARK    2  A    between atoms: O_2  and  C_3
REMARK    3  A    between atoms: C_6  and  C_7
REMARK    4  A    between atoms: N_10  and  C_11
REMARK    5  A    between atoms: C_21  and  C_22
REMARK    6  A    between atoms: C_22  and  C_23
REMARK    7  A    between atoms: C_23  and  C_24
REMARK    8  A    between atoms: N_26  and  N_27
REMARK                            x       y       z     vdW  Elec       q    Type
REMARK                         _______ _______ _______ _____ _____    ______ ____
ROOT
ATOM      1  C   UNL     1       3.307   7.083  18.283  0.00  0.00    +0.000 A 
ATOM      2  S   UNL     1       2.699   8.594  17.707  0.00  0.00    +0.000 S 
ATOM      3  C   UNL     1       1.557   8.647  18.982  0.00  0.00    +0.000 A 
ATOM      4  N   UNL     1       0.683   9.676  19.086  0.00  0.00    +0.000 N 
ATOM      5  N   UNL     1       1.611   7.624  19.801  0.00  0.00    +0.000 NA
ATOM      6  C   UNL     1       2.565   6.707  19.400  0.00  0.00    +0.000 A 
ATOM      7  H   UNL     1       0.520  10.276  18.286  0.00  0.00    +0.000 HD
ENDROOT
BRANCH   4   8
ATOM      8  C   UNL     1       0.124  10.131  20.295  0.00  0.00    +0.000 A 
ATOM      9  C   UNL     1       0.339   9.455  21.508  0.00  0.00    +0.000 A 
ATOM     10  C   UNL     1      -0.239   9.901  22.696  0.00  0.00    +0.000 A 
ATOM     11  C   UNL     1      -1.068  11.016  22.674  0.00  0.00    +0.000 A 
ATOM     12  F   UNL     1      -1.627  11.438  23.818  0.00  0.00    +0.000 F 
ATOM     13  C   UNL     1      -1.319  11.684  21.484  0.00  0.00    +0.000 A 
ATOM     14  F   UNL     1      -2.136  12.747  21.471  0.00  0.00    +0.000 F 
ATOM     15  C   UNL     1      -0.724  11.248  20.306  0.00  0.00    +0.000 A 
ATOM     16  F   UNL     1      -0.979  11.893  19.156  0.00  0.00    +0.000 F 
ENDBRANCH   4   8
BRANCH   1  20
ATOM     17  C   UNL     1       6.486   5.184  16.095  0.00  0.00    +0.000 A 
ATOM     18  C   UNL     1       5.224   4.598  16.154  0.00  0.00    +0.000 A 
ATOM     19  C   UNL     1       4.202   5.191  16.901  0.00  0.00    +0.000 A 
ATOM     20  C   UNL     1       4.412   6.398  17.585  0.00  0.00    +0.000 A 
ATOM     21  C   UNL     1       5.701   6.948  17.552  0.00  0.00    +0.000 A 
ATOM     22  C   UNL     1       6.731   6.344  16.821  0.00  0.00    +0.000 A 
BRANCH  17  24
ATOM     23  C   UNL     1       7.087   4.419  13.944  0.00  0.00    +0.000 C 
ATOM     24  O   UNL     1       7.407   4.526  15.328  0.00  0.00    +0.000 OA
ENDBRANCH  17  24
ENDBRANCH   1  20
BRANCH   6  25
ATOM     25  C   UNL     1       2.692   5.446  20.201  0.00  0.00    +0.000 C 
BRANCH  25  26
ATOM     26  C   UNL     1       1.487   4.517  20.097  0.00  0.00    +0.000 C 
BRANCH  26  27
ATOM     27  C   UNL     1       1.645   3.597  18.905  0.00  0.00    +0.000 C 
ATOM     28  O   UNL     1       1.095   3.775  17.822  0.00  0.00    +0.000 OA
ATOM     29  N   UNL     1       2.464   2.506  19.164  0.00  0.00    +0.000 N 
ATOM     30  H   UNL     1       3.045   2.488  19.999  0.00  0.00    +0.000 HD
BRANCH  29  31
ATOM     31  N   UNL     1       2.742   1.600  18.117  0.00  0.00    +0.000 NA
ATOM     32  H   UNL     1       2.298   0.705  18.373  0.00  0.00    +0.000 HD
ATOM     33  H   UNL     1       3.743   1.386  18.146  0.00  0.00    +0.000 HD
ENDBRANCH  29  31
ENDBRANCH  26  27
ENDBRANCH  25  26
ENDBRANCH   6  25
TORSDOF 7
ENDMDL
MODEL 4
REMARK VINA RESULT:      -7.4      4.849      8.831
REMARK  Name = 
REMARK  8 active torsions:
REMARK  status: ('A' for Active; 'I' for Inactive)
REMARK    1  A    between atoms: C_1  and  O_2
REMARK    2  A    between atoms: O_2  and  C_3
REMARK    3  A    between atoms: C_6  and  C_7
REMARK    4  A    between atoms: N_10  and  C_11
REMARK    5  A    between atoms: C_21  and  C_22
REMARK    6  A    between atoms: C_22  and  C_23
REMARK    7  A    between atoms: C_23  and  C_24
REMARK    8  A    between atoms: N_26  and  N_27
REMARK                            x       y       z     vdW  Elec       q    Type
REMARK                         _______ _______ _______ _____ _____    ______ ____
ROOT
ATOM      1  C   UNL     1       3.563   6.955  18.173  0.00  0.00    +0.000 A 
ATOM      2  S   UNL     1       2.855   8.433  17.628  0.00  0.00    +0.000 S 
ATOM      3  C   UNL     1       1.763   8.423  18.947  0.00  0.00    +0.000 A 
ATOM      4  N   UNL     1       0.842   9.405  19.090  0.00  0.00    +0.000 N 
ATOM      5  N   UNL     1       1.903   7.402  19.759  0.00  0.00    +0.000 NA
ATOM      6  C   UNL     1       2.887   6.537  19.316  0.00  0.00    +0.000 A 
ATOM      7  H   UNL     1       0.616   9.997  18.300  0.00  0.00    +0.000 HD
ENDROOT
BRANCH   4   8
ATOM      8  C   UNL     1       0.307   9.827  20.322  0.00  0.00    +0.000 A 
ATOM      9  C   UNL     1      -0.026   8.911  21.334  0.00  0.00    +0.000 A 
ATOM     10  C   UNL     1      -0.576   9.338  22.543  0.00  0.00    +0.000 A 
ATOM     11  C   UNL     1      -0.829  10.691  22.736  0.00  0.00    +0.000 A 
ATOM     12  F   UNL     1      -1.365  11.096  23.897  0.00  0.00    +0.000 F 
ATOM     13  C   UNL     1      -0.536  11.612  21.740  0.00  0.00    +0.000 A 
ATOM     14  F   UNL     1      -0.803  12.912  21.930  0.00  0.00    +0.000 F 
ATOM     15  C   UNL     1       0.031  11.183  20.546  0.00  0.00    +0.000 A 
ATOM     16  F   UNL     1       0.304  12.079  19.582  0.00  0.00    +0.000 F 
ENDBRANCH   4   8
BRANCH   1  20
ATOM     17  C   UNL     1       6.787   5.271  15.877  0.00  0.00    +0.000 A 
ATOM     18  C   UNL     1       5.478   4.843  15.671  0.00  0.00    +0.000 A 
ATOM     19  C   UNL     1       4.435   5.357  16.447  0.00  0.00    +0.000 A 
ATOM     20  C   UNL     1       4.674   6.330  17.429  0.00  0.00    +0.000 A 
ATOM     21  C   UNL     1       6.004   6.714  17.653  0.00  0.00    +0.000 A 
ATOM     22  C   UNL     1       7.052   6.185  16.891  0.00  0.00    +0.000 A 
BRANCH  17  24
ATOM     23  C   UNL     1       7.391   4.680  13.673  0.00  0.00    +0.000 C 
ATOM     24  O   UNL     1       7.727   4.711  15.057  0.00  0.00    +0.000 OA
ENDBRANCH  17  24
ENDBRANCH   1  20
BRANCH   6  25
ATOM     25  C   UNL     1       3.110   5.282  20.105  0.00  0.00    +0.000 C 
BRANCH  25  26
ATOM     26  C   UNL     1       2.593   4.019  19.427  0.00  0.00    +0.000 C 
BRANCH  26  27
ATOM     27  C   UNL     1       3.729   3.042  19.216  0.00  0.00    +0.000 C 
ATOM     28  O   UNL     1       4.909   3.300  19.442  0.00  0.00    +0.000 OA
ATOM     29  N   UNL     1       3.310   1.817  18.716  0.00  0.00    +0.000 N 
ATOM     30  H   UNL     1       2.321   1.574  18.717  0.00  0.00    +0.000 HD
BRANCH  29  31
ATOM     31  N   UNL     1       4.265   0.793  18.529  0.00  0.00    +0.000 NA
ATOM     32  H   UNL     1       4.088   0.389  17.597  0.00  0.00    +0.000 HD
ATOM     33  H   UNL     1       4.032   0.029  19.169  0.00  0.00    +0.000 HD
ENDBRANCH  29  31
ENDBRANCH  26  27
ENDBRANCH  25  26
ENDBRANCH   6  25
TORSDOF 7
ENDMDL
MODEL 5
REMARK VINA RESULT:      -7.4      3.000      4.006
REMARK  Name = 
REMARK  8 active torsions:
REMARK  status: ('A' for Active; 'I' for Inactive)
REMARK    1  A    between atoms: C_1  and  O_2
REMARK    2  A    between atoms: O_2  and  C_3
REMARK    3  A    between atoms: C_6  and  C_7
REMARK    4  A    between atoms: N_10  and  C_11
REMARK    5  A    between atoms: C_21  and  C_22
REMARK    6  A    between atoms: C_22  and  C_23
REMARK    7  A    between atoms: C_23  and  C_24
REMARK    8  A    between atoms: N_26  and  N_27
REMARK                            x       y       z     vdW  Elec       q    Type
REMARK                         _______ _______ _______ _____ _____    ______ ____
ROOT
ATOM      1  C   UNL     1       0.597  10.213  20.928  0.00  0.00    +0.000 A 
ATOM      2  S   UNL     1       1.360   8.961  21.842  0.00  0.00    +0.000 S 
ATOM      3  C   UNL     1       1.476   7.980  20.443  0.00  0.00    +0.000 A 
ATOM      4  N   UNL     1       2.016   6.740  20.511  0.00  0.00    +0.000 N 
ATOM      5  N   UNL     1       0.994   8.529  19.354  0.00  0.00    +0.000 NA
ATOM      6  C   UNL     1       0.454   9.775  19.614  0.00  0.00    +0.000 A 
ATOM      7  H   UNL     1       2.115   6.287  21.411  0.00  0.00    +0.000 HD
ENDROOT
BRANCH   4   8
ATOM      8  C   UNL     1       2.666   6.092  19.442  0.00  0.00    +0.000 A 
ATOM      9  C   UNL     1       3.804   6.641  18.829  0.00  0.00    +0.000 A 
ATOM     10  C   UNL     1       4.427   6.003  17.757  0.00  0.00    +0.000 A 
ATOM     11  C   UNL     1       3.891   4.818  17.266  0.00  0.00    +0.000 A 
ATOM     12  F   UNL     1       4.489   4.211  16.230  0.00  0.00    +0.000 F 
ATOM     13  C   UNL     1       2.751   4.270  17.836  0.00  0.00    +0.000 A 
ATOM     14  F   UNL     1       2.231   3.138  17.341  0.00  0.00    +0.000 F 
ATOM     15  C   UNL     1       2.146   4.901  18.918  0.00  0.00    +0.000 A 
ATOM     16  F   UNL     1       1.037   4.370  19.459  0.00  0.00    +0.000 F 
ENDBRANCH   4   8
BRANCH   1  20
ATOM     17  C   UNL     1      -0.734  13.913  22.674  0.00  0.00    +0.000 A 
ATOM     18  C   UNL     1       0.304  13.906  21.745  0.00  0.00    +0.000 A 
ATOM     19  C   UNL     1       0.768  12.700  21.210  0.00  0.00    +0.000 A 
ATOM     20  C   UNL     1       0.186  11.476  21.573  0.00  0.00    +0.000 A 
ATOM     21  C   UNL     1      -0.827  11.499  22.543  0.00  0.00    +0.000 A 
ATOM     22  C   UNL     1      -1.278  12.704  23.095  0.00  0.00    +0.000 A 
BRANCH  17  24
ATOM     23  C   UNL     1      -1.920  15.146  24.299  0.00  0.00    +0.000 C 
ATOM     24  O   UNL     1      -1.116  15.146  23.124  0.00  0.00    +0.000 OA
ENDBRANCH  17  24
ENDBRANCH   1  20
BRANCH   6  25
ATOM     25  C   UNL     1      -0.201  10.497  18.475  0.00  0.00    +0.000 C 
BRANCH  25  26
ATOM     26  C   UNL     1      -1.668  10.839  18.715  0.00  0.00    +0.000 C 
BRANCH  26  27
ATOM     27  C   UNL     1      -2.480  10.530  17.476  0.00  0.00    +0.000 C 
ATOM     28  O   UNL     1      -3.195   9.538  17.352  0.00  0.00    +0.000 OA
ATOM     29  N   UNL     1      -2.323  11.475  16.471  0.00  0.00    +0.000 N 
ATOM     30  H   UNL     1      -1.879  12.368  16.672  0.00  0.00    +0.000 HD
BRANCH  29  31
ATOM     31  N   UNL     1      -3.074  11.336  15.282  0.00  0.00    +0.000 NA
ATOM     32  H   UNL     1      -2.926  12.199  14.736  0.00  0.00    +0.000 HD
ATOM     33  H   UNL     1      -4.066  11.379  15.532  0.00  0.00    +0.000 HD
ENDBRANCH  29  31
ENDBRANCH  26  27
ENDBRANCH  25  26
ENDBRANCH   6  25
TORSDOF 7
ENDMDL
MODEL 6
REMARK VINA RESULT:      -7.3      4.797      8.718
REMARK  Name = 
REMARK  8 active torsions:
REMARK  status: ('A' for Active; 'I' for Inactive)
REMARK    1  A    between atoms: C_1  and  O_2
REMARK    2  A    between atoms: O_2  and  C_3
REMARK    3  A    between atoms: C_6  and  C_7
REMARK    4  A    between atoms: N_10  and  C_11
REMARK    5  A    between atoms: C_21  and  C_22
REMARK    6  A    between atoms: C_22  and  C_23
REMARK    7  A    between atoms: C_23  and  C_24
REMARK    8  A    between atoms: N_26  and  N_27
REMARK                            x       y       z     vdW  Elec       q    Type
REMARK                         _______ _______ _______ _____ _____    ______ ____
ROOT
ATOM      1  C   UNL     1       2.880   7.175  18.448  0.00  0.00    +0.000 A 
ATOM      2  S   UNL     1       2.305   8.625  17.706  0.00  0.00    +0.000 S 
ATOM      3  C   UNL     1       1.315   8.955  19.064  0.00  0.00    +0.000 A 
ATOM      4  N   UNL     1       0.521  10.051  19.091  0.00  0.00    +0.000 N 
ATOM      5  N   UNL     1       1.396   8.064  20.023  0.00  0.00    +0.000 NA
ATOM      6  C   UNL     1       2.243   7.027  19.678  0.00  0.00    +0.000 A 
ATOM      7  H   UNL     1       0.308  10.536  18.227  0.00  0.00    +0.000 HD
ENDROOT
BRANCH   4   8
ATOM      8  C   UNL     1       0.126  10.723  20.264  0.00  0.00    +0.000 A 
ATOM      9  C   UNL     1      -0.350  10.028  21.387  0.00  0.00    +0.000 A 
ATOM     10  C   UNL     1      -0.761  10.704  22.536  0.00  0.00    +0.000 A 
ATOM     11  C   UNL     1      -0.729  12.093  22.555  0.00  0.00    +0.000 A 
ATOM     12  F   UNL     1      -1.132  12.740  23.660  0.00  0.00    +0.000 F 
ATOM     13  C   UNL     1      -0.291  12.805  21.448  0.00  0.00    +0.000 A 
ATOM     14  F   UNL     1      -0.284  14.145  21.471  0.00  0.00    +0.000 F 
ATOM     15  C   UNL     1       0.137  12.124  20.313  0.00  0.00    +0.000 A 
ATOM     16  F   UNL     1       0.551  12.819  19.241  0.00  0.00    +0.000 F 
ENDBRANCH   4   8
BRANCH   1  20
ATOM     17  C   UNL     1       5.663   4.715  16.279  0.00  0.00    +0.000 A 
ATOM     18  C   UNL     1       4.441   4.194  16.697  0.00  0.00    +0.000 A 
ATOM     19  C   UNL     1       3.554   4.979  17.441  0.00  0.00    +0.000 A 
ATOM     20  C   UNL     1       3.859   6.311  17.761  0.00  0.00    +0.000 A 
ATOM     21  C   UNL     1       5.113   6.802  17.371  0.00  0.00    +0.000 A 
ATOM     22  C   UNL     1       6.011   6.011  16.645  0.00  0.00    +0.000 A 
BRANCH  17  24
ATOM     23  C   UNL     1       6.245   3.902  14.141  0.00  0.00    +0.000 C 
ATOM     24  O   UNL     1       6.448   3.866  15.551  0.00  0.00    +0.000 OA
ENDBRANCH  17  24
ENDBRANCH   1  20
BRANCH   6  25
ATOM     25  C   UNL     1       2.380   5.893  20.649  0.00  0.00    +0.000 C 
BRANCH  25  26
ATOM     26  C   UNL     1       1.282   4.842  20.539  0.00  0.00    +0.000 C 
BRANCH  26  27
ATOM     27  C   UNL     1       1.887   3.494  20.213  0.00  0.00    +0.000 C 
ATOM     28  O   UNL     1       2.843   3.006  20.811  0.00  0.00    +0.000 OA
ATOM     29  N   UNL     1       1.265   2.861  19.145  0.00  0.00    +0.000 N 
ATOM     30  H   UNL     1       0.371   3.201  18.797  0.00  0.00    +0.000 HD
BRANCH  29  31
ATOM     31  N   UNL     1       1.695   1.567  18.775  0.00  0.00    +0.000 NA
ATOM     32  H   UNL     1       2.724   1.563  18.854  0.00  0.00    +0.000 HD
ATOM     33  H   UNL     1       1.533   1.460  17.769  0.00  0.00    +0.000 HD
ENDBRANCH  29  31
ENDBRANCH  26  27
ENDBRANCH  25  26
ENDBRANCH   6  25
TORSDOF 7
ENDMDL
MODEL 7
REMARK VINA RESULT:      -7.3      4.809      8.649
REMARK  Name = 
REMARK  8 active torsions:
REMARK  status: ('A' for Active; 'I' for Inactive)
REMARK    1  A    between atoms: C_1  and  O_2
REMARK    2  A    between atoms: O_2  and  C_3
REMARK    3  A    between atoms: C_6  and  C_7
REMARK    4  A    between atoms: N_10  and  C_11
REMARK    5  A    between atoms: C_21  and  C_22
REMARK    6  A    between atoms: C_22  and  C_23
REMARK    7  A    between atoms: C_23  and  C_24
REMARK    8  A    between atoms: N_26  and  N_27
REMARK                            x       y       z     vdW  Elec       q    Type
REMARK                         _______ _______ _______ _____ _____    ______ ____
ROOT
ATOM      1  C   UNL     1       2.690   7.339  18.477  0.00  0.00    +0.000 A 
ATOM      2  S   UNL     1       2.223   8.829  17.739  0.00  0.00    +0.000 S 
ATOM      3  C   UNL     1       1.238   9.214  19.086  0.00  0.00    +0.000 A 
ATOM      4  N   UNL     1       0.518  10.360  19.112  0.00  0.00    +0.000 N 
ATOM      5  N   UNL     1       1.247   8.313  20.040  0.00  0.00    +0.000 NA
ATOM      6  C   UNL     1       2.029   7.225  19.697  0.00  0.00    +0.000 A 
ATOM      7  H   UNL     1       0.349  10.864  18.250  0.00  0.00    +0.000 HD
ENDROOT
BRANCH   4   8
ATOM      8  C   UNL     1       0.152  11.048  20.285  0.00  0.00    +0.000 A 
ATOM      9  C   UNL     1      -0.576  10.422  21.310  0.00  0.00    +0.000 A 
ATOM     10  C   UNL     1      -0.955  11.119  22.457  0.00  0.00    +0.000 A 
ATOM     11  C   UNL     1      -0.631  12.466  22.573  0.00  0.00    +0.000 A 
ATOM     12  F   UNL     1      -1.003  13.134  23.676  0.00  0.00    +0.000 F 
ATOM     13  C   UNL     1       0.062  13.115  21.561  0.00  0.00    +0.000 A 
ATOM     14  F   UNL     1       0.351  14.419  21.675  0.00  0.00    +0.000 F 
ATOM     15  C   UNL     1       0.454  12.409  20.429  0.00  0.00    +0.000 A 
ATOM     16  F   UNL     1       1.117  13.046  19.449  0.00  0.00    +0.000 F 
ENDBRANCH   4   8
BRANCH   1  20
ATOM     17  C   UNL     1       5.311   4.690  16.328  0.00  0.00    +0.000 A 
ATOM     18  C   UNL     1       4.150   4.202  16.923  0.00  0.00    +0.000 A 
ATOM     19  C   UNL     1       3.320   5.053  17.660  0.00  0.00    +0.000 A 
ATOM     20  C   UNL     1       3.620   6.417  17.795  0.00  0.00    +0.000 A 
ATOM     21  C   UNL     1       4.816   6.880  17.228  0.00  0.00    +0.000 A 
ATOM     22  C   UNL     1       5.658   6.024  16.508  0.00  0.00    +0.000 A 
BRANCH  17  24
ATOM     23  C   UNL     1       6.707   4.281  14.469  0.00  0.00    +0.000 C 
ATOM     24  O   UNL     1       6.043   3.775  15.623  0.00  0.00    +0.000 OA
ENDBRANCH  17  24
ENDBRANCH   1  20
BRANCH   6  25
ATOM     25  C   UNL     1       2.078   6.077  20.661  0.00  0.00    +0.000 C 
BRANCH  25  26
ATOM     26  C   UNL     1       0.951   5.065  20.483  0.00  0.00    +0.000 C 
BRANCH  26  27
ATOM     27  C   UNL     1       1.485   3.661  20.665  0.00  0.00    +0.000 C 
ATOM     28  O   UNL     1       1.307   2.748  19.862  0.00  0.00    +0.000 OA
ATOM     29  N   UNL     1       2.186   3.493  21.851  0.00  0.00    +0.000 N 
ATOM     30  H   UNL     1       2.473   4.303  22.397  0.00  0.00    +0.000 HD
BRANCH  29  31
ATOM     31  N   UNL     1       2.788   2.243  22.116  0.00  0.00    +0.000 NA
ATOM     32  H   UNL     1       3.614   2.176  21.502  0.00  0.00    +0.000 HD
ATOM     33  H   UNL     1       2.165   1.514  21.758  0.00  0.00    +0.000 HD
ENDBRANCH  29  31
ENDBRANCH  26  27
ENDBRANCH  25  26
ENDBRANCH   6  25
TORSDOF 7
ENDMDL
MODEL 8
REMARK VINA RESULT:      -7.3      4.048      8.175
REMARK  Name = 
REMARK  8 active torsions:
REMARK  status: ('A' for Active; 'I' for Inactive)
REMARK    1  A    between atoms: C_1  and  O_2
REMARK    2  A    between atoms: O_2  and  C_3
REMARK    3  A    between atoms: C_6  and  C_7
REMARK    4  A    between atoms: N_10  and  C_11
REMARK    5  A    between atoms: C_21  and  C_22
REMARK    6  A    between atoms: C_22  and  C_23
REMARK    7  A    between atoms: C_23  and  C_24
REMARK    8  A    between atoms: N_26  and  N_27
REMARK                            x       y       z     vdW  Elec       q    Type
REMARK                         _______ _______ _______ _____ _____    ______ ____
ROOT
ATOM      1  C   UNL     1       1.972   7.882  19.191  0.00  0.00    +0.000 A 
ATOM      2  S   UNL     1       2.065   8.888  17.789  0.00  0.00    +0.000 S 
ATOM      3  C   UNL     1       1.361  10.191  18.650  0.00  0.00    +0.000 A 
ATOM      4  N   UNL     1       1.125  11.376  18.040  0.00  0.00    +0.000 N 
ATOM      5  N   UNL     1       1.075   9.922  19.902  0.00  0.00    +0.000 NA
ATOM      6  C   UNL     1       1.374   8.609  20.217  0.00  0.00    +0.000 A 
ATOM      7  H   UNL     1       1.118  11.425  17.029  0.00  0.00    +0.000 HD
ENDROOT
BRANCH   4   8
ATOM      8  C   UNL     1       1.100  12.622  18.697  0.00  0.00    +0.000 A 
ATOM      9  C   UNL     1      -0.071  13.116  19.295  0.00  0.00    +0.000 A 
ATOM     10  C   UNL     1      -0.093  14.362  19.922  0.00  0.00    +0.000 A 
ATOM     11  C   UNL     1       1.059  15.140  19.928  0.00  0.00    +0.000 A 
ATOM     12  F   UNL     1       1.032  16.341  20.527  0.00  0.00    +0.000 F 
ATOM     13  C   UNL     1       2.220  14.687  19.319  0.00  0.00    +0.000 A 
ATOM     14  F   UNL     1       3.319  15.456  19.313  0.00  0.00    +0.000 F 
ATOM     15  C   UNL     1       2.241  13.436  18.713  0.00  0.00    +0.000 A 
ATOM     16  F   UNL     1       3.366  13.007  18.117  0.00  0.00    +0.000 F 
ENDBRANCH   4   8
BRANCH   1  20
ATOM     17  C   UNL     1       3.533   3.874  19.172  0.00  0.00    +0.000 A 
ATOM     18  C   UNL     1       3.776   4.728  18.099  0.00  0.00    +0.000 A 
ATOM     19  C   UNL     1       3.232   6.017  18.084  0.00  0.00    +0.000 A 
ATOM     20  C   UNL     1       2.455   6.488  19.153  0.00  0.00    +0.000 A 
ATOM     21  C   UNL     1       2.183   5.597  20.201  0.00  0.00    +0.000 A 
ATOM     22  C   UNL     1       2.710   4.300  20.208  0.00  0.00    +0.000 A 
BRANCH  17  24
ATOM     23  C   UNL     1       3.518   1.737  18.169  0.00  0.00    +0.000 C 
ATOM     24  O   UNL     1       4.120   2.642  19.089  0.00  0.00    +0.000 OA
ENDBRANCH  17  24
ENDBRANCH   1  20
BRANCH   6  25
ATOM     25  C   UNL     1       1.034   8.134  21.597  0.00  0.00    +0.000 C 
BRANCH  25  26
ATOM     26  C   UNL     1      -0.358   8.538  22.070  0.00  0.00    +0.000 C 
BRANCH  26  27
ATOM     27  C   UNL     1      -0.269   9.765  22.952  0.00  0.00    +0.000 C 
ATOM     28  O   UNL     1       0.208   9.766  24.083  0.00  0.00    +0.000 OA
ATOM     29  N   UNL     1      -0.805  10.902  22.360  0.00  0.00    +0.000 N 
ATOM     30  H   UNL     1      -1.018  10.909  21.365  0.00  0.00    +0.000 HD
BRANCH  29  31
ATOM     31  N   UNL     1      -0.731  12.130  23.053  0.00  0.00    +0.000 NA
ATOM     32  H   UNL     1       0.144  12.587  22.754  0.00  0.00    +0.000 HD
ATOM     33  H   UNL     1      -0.565  11.921  24.042  0.00  0.00    +0.000 HD
ENDBRANCH  29  31
ENDBRANCH  26  27
ENDBRANCH  25  26
ENDBRANCH   6  25
TORSDOF 7
ENDMDL
MODEL 9
REMARK VINA RESULT:      -7.3      5.266      9.358
REMARK  Name = 
REMARK  8 active torsions:
REMARK  status: ('A' for Active; 'I' for Inactive)
REMARK    1  A    between atoms: C_1  and  O_2
REMARK    2  A    between atoms: O_2  and  C_3
REMARK    3  A    between atoms: C_6  and  C_7
REMARK    4  A    between atoms: N_10  and  C_11
REMARK    5  A    between atoms: C_21  and  C_22
REMARK    6  A    between atoms: C_22  and  C_23
REMARK    7  A    between atoms: C_23  and  C_24
REMARK    8  A    between atoms: N_26  and  N_27
REMARK                            x       y       z     vdW  Elec       q    Type
REMARK                         _______ _______ _______ _____ _____    ______ ____
ROOT
ATOM      1  C   UNL     1       0.146  10.335  19.852  0.00  0.00    +0.000 A 
ATOM      2  S   UNL     1       0.592  11.442  21.100  0.00  0.00    +0.000 S 
ATOM      3  C   UNL     1      -0.964  12.155  21.057  0.00  0.00    +0.000 A 
ATOM      4  N   UNL     1      -1.272  13.195  21.866  0.00  0.00    +0.000 N 
ATOM      5  N   UNL     1      -1.783  11.616  20.185  0.00  0.00    +0.000 NA
ATOM      6  C   UNL     1      -1.162  10.613  19.463  0.00  0.00    +0.000 A 
ATOM      7  H   UNL     1      -0.528  13.722  22.307  0.00  0.00    +0.000 HD
ENDROOT
BRANCH   4   8
ATOM      8  C   UNL     1      -2.567  13.489  22.334  0.00  0.00    +0.000 A 
ATOM      9  C   UNL     1      -3.255  14.643  21.924  0.00  0.00    +0.000 A 
ATOM     10  C   UNL     1      -4.528  14.937  22.411  0.00  0.00    +0.000 A 
ATOM     11  C   UNL     1      -5.113  14.088  23.343  0.00  0.00    +0.000 A 
ATOM     12  F   UNL     1      -6.336  14.378  23.814  0.00  0.00    +0.000 F 
ATOM     13  C   UNL     1      -4.442  12.957  23.786  0.00  0.00    +0.000 A 
ATOM     14  F   UNL     1      -5.008  12.156  24.700  0.00  0.00    +0.000 F 
ATOM     15  C   UNL     1      -3.182  12.658  23.281  0.00  0.00    +0.000 A 
ATOM     16  F   UNL     1      -2.534  11.567  23.721  0.00  0.00    +0.000 F 
ENDBRANCH   4   8
BRANCH   1  20
ATOM     17  C   UNL     1       2.804   7.321  18.317  0.00  0.00    +0.000 A 
ATOM     18  C   UNL     1       2.303   7.224  19.612  0.00  0.00    +0.000 A 
ATOM     19  C   UNL     1       1.474   8.226  20.128  0.00  0.00    +0.000 A 
ATOM     20  C   UNL     1       1.108   9.334  19.350  0.00  0.00    +0.000 A 
ATOM     21  C   UNL     1       1.659   9.438  18.065  0.00  0.00    +0.000 A 
ATOM     22  C   UNL     1       2.506   8.446  17.555  0.00  0.00    +0.000 A 
BRANCH  17  24
ATOM     23  C   UNL     1       3.005   4.990  18.009  0.00  0.00    +0.000 C 
ATOM     24  O   UNL     1       3.595   6.283  17.910  0.00  0.00    +0.000 OA
ENDBRANCH  17  24
ENDBRANCH   1  20
BRANCH   6  25
ATOM     25  C   UNL     1      -1.954   9.951  18.376  0.00  0.00    +0.000 C 
BRANCH  25  26
ATOM     26  C   UNL     1      -1.685  10.508  16.982  0.00  0.00    +0.000 C 
BRANCH  26  27
ATOM     27  C   UNL     1      -2.956  11.092  16.404  0.00  0.00    +0.000 C 
ATOM     28  O   UNL     1      -3.305  10.959  15.234  0.00  0.00    +0.000 OA
ATOM     29  N   UNL     1      -3.691  11.822  17.330  0.00  0.00    +0.000 N 
ATOM     30  H   UNL     1      -3.475  11.757  18.322  0.00  0.00    +0.000 HD
BRANCH  29  31
ATOM     31  N   UNL     1      -4.931  12.371  16.935  0.00  0.00    +0.000 NA
ATOM     32  H   UNL     1      -4.839  12.624  15.939  0.00  0.00    +0.000 HD
ATOM     33  H   UNL     1      -5.034  13.277  17.403  0.00  0.00    +0.000 HD
ENDBRANCH  29  31
ENDBRANCH  26  27
ENDBRANCH  25  26
ENDBRANCH   6  25
TORSDOF 7
ENDMDL
