MODEL 1
REMARK VINA RESULT:      -6.4      0.000      0.000
REMARK  Name = 
REMARK  3 active torsions:
REMARK  status: ('A' for Active; 'I' for Inactive)
REMARK    1  A    between atoms: N_1  and  C_2
REMARK    2  A    between atoms: C_5  and  N_6
REMARK    3  A    between atoms: C_7  and  C_9
REMARK                            x       y       z     vdW  Elec       q    Type
REMARK                         _______ _______ _______ _____ _____    ______ ____
ROOT
ATOM      1  N   UNL     1       3.995   3.947  17.559  0.00  0.00    +0.000 N 
ATOM      2  C   UNL     1       5.348   4.186  17.547  0.00  0.00    +0.000 C 
ATOM      3  O   UNL     1       6.026   4.289  18.569  0.00  0.00    +0.000 OA
ATOM      4  H   UNL     1       3.515   3.855  16.677  0.00  0.00    +0.000 HD
ENDROOT
BRANCH   2   5
ATOM      5  C   UNL     1       5.926   4.324  16.226  0.00  0.00    +0.000 A 
ATOM      6  C   UNL     1       6.932   5.162  15.760  0.00  0.00    +0.000 A 
ATOM      7  C   UNL     1       7.077   4.876  14.374  0.00  0.00    +0.000 A 
ATOM      8  S   UNL     1       8.033   5.380  13.024  0.00  0.00    +0.000 S 
ATOM      9  C   UNL     1       7.182   4.272  12.016  0.00  0.00    +0.000 A 
ATOM     10  C   UNL     1       6.211   3.543  12.671  0.00  0.00    +0.000 A 
ATOM     11  C   UNL     1       6.183   3.907  14.042  0.00  0.00    +0.000 A 
ATOM     12  N   UNL     1       5.491   3.553  15.171  0.00  0.00    +0.000 N 
ATOM     13  H   UNL     1       4.778   2.831  15.207  0.00  0.00    +0.000 HD
ENDBRANCH   2   5
BRANCH   1  17
ATOM     14  C   UNL     1       0.951   3.256  19.442  0.00  0.00    +0.000 C 
ATOM     15  C   UNL     1       1.620   1.922  19.125  0.00  0.00    +0.000 C 
ATOM     16  C   UNL     1       3.118   2.216  19.126  0.00  0.00    +0.000 C 
ATOM     17  C   UNL     1       3.258   3.710  18.788  0.00  0.00    +0.000 C 
ATOM     18  C   UNL     1       1.827   4.256  18.699  0.00  0.00    +0.000 C 
BRANCH  14  19
ATOM     19  N   UNL     1       0.959   3.521  20.878  0.00  0.00    +0.000 NA
ATOM     20  H   UNL     1       1.042   4.525  21.037  0.00  0.00    +0.000 HD
ATOM     21  H   UNL     1       1.794   3.104  21.292  0.00  0.00    +0.000 HD
ENDBRANCH  14  19
ENDBRANCH   1  17
TORSDOF 3
ENDMDL
MODEL 2
REMARK VINA RESULT:      -6.3      5.149      7.829
REMARK  Name = 
REMARK  3 active torsions:
REMARK  status: ('A' for Active; 'I' for Inactive)
REMARK    1  A    between atoms: N_1  and  C_2
REMARK    2  A    between atoms: C_5  and  N_6
REMARK    3  A    between atoms: C_7  and  C_9
REMARK                            x       y       z     vdW  Elec       q    Type
REMARK                         _______ _______ _______ _____ _____    ______ ____
ROOT
ATOM      1  N   UNL     1       2.297   5.745  19.556  0.00  0.00    +0.000 N 
ATOM      2  C   UNL     1       2.471   7.044  19.142  0.00  0.00    +0.000 C 
ATOM      3  O   UNL     1       3.215   7.364  18.215  0.00  0.00    +0.000 OA
ATOM      4  H   UNL     1       1.653   5.564  20.311  0.00  0.00    +0.000 HD
ENDROOT
BRANCH   2   5
ATOM      5  C   UNL     1       1.718   8.025  19.895  0.00  0.00    +0.000 A 
ATOM      6  C   UNL     1       1.150   9.230  19.500  0.00  0.00    +0.000 A 
ATOM      7  C   UNL     1       0.543   9.783  20.661  0.00  0.00    +0.000 A 
ATOM      8  S   UNL     1      -0.363  11.180  21.129  0.00  0.00    +0.000 S 
ATOM      9  C   UNL     1      -0.426  10.591  22.746  0.00  0.00    +0.000 A 
ATOM     10  C   UNL     1       0.212   9.381  22.932  0.00  0.00    +0.000 A 
ATOM     11  C   UNL     1       0.753   8.931  21.700  0.00  0.00    +0.000 A 
ATOM     12  N   UNL     1       1.452   7.848  21.235  0.00  0.00    +0.000 N 
ATOM     13  H   UNL     1       1.719   7.049  21.801  0.00  0.00    +0.000 HD
ENDBRANCH   2   5
BRANCH   1  17
ATOM     14  C   UNL     1       2.954   2.191  19.086  0.00  0.00    +0.000 C 
ATOM     15  C   UNL     1       1.761   2.567  18.213  0.00  0.00    +0.000 C 
ATOM     16  C   UNL     1       2.017   4.011  17.787  0.00  0.00    +0.000 C 
ATOM     17  C   UNL     1       2.915   4.622  18.875  0.00  0.00    +0.000 C 
ATOM     18  C   UNL     1       3.233   3.479  19.849  0.00  0.00    +0.000 C 
BRANCH  14  19
ATOM     19  N   UNL     1       4.103   1.809  18.270  0.00  0.00    +0.000 NA
ATOM     20  H   UNL     1       3.924   2.055  17.296  0.00  0.00    +0.000 HD
ATOM     21  H   UNL     1       4.204   0.793  18.286  0.00  0.00    +0.000 HD
ENDBRANCH  14  19
ENDBRANCH   1  17
TORSDOF 3
ENDMDL
MODEL 3
REMARK VINA RESULT:      -6.1      5.699      8.426
REMARK  Name = 
REMARK  3 active torsions:
REMARK  status: ('A' for Active; 'I' for Inactive)
REMARK    1  A    between atoms: N_1  and  C_2
REMARK    2  A    between atoms: C_5  and  N_6
REMARK    3  A    between atoms: C_7  and  C_9
REMARK                            x       y       z     vdW  Elec       q    Type
REMARK                         _______ _______ _______ _____ _____    ______ ____
ROOT
ATOM      1  N   UNL     1       2.499   6.869  19.320  0.00  0.00    +0.000 N 
ATOM      2  C   UNL     1       2.127   8.114  18.872  0.00  0.00    +0.000 C 
ATOM      3  O   UNL     1       2.462   8.566  17.777  0.00  0.00    +0.000 OA
ATOM      4  H   UNL     1       2.166   6.564  20.222  0.00  0.00    +0.000 HD
ENDROOT
BRANCH   2   5
ATOM      5  C   UNL     1       1.315   8.874  19.801  0.00  0.00    +0.000 A 
ATOM      6  C   UNL     1       0.650  10.083  19.642  0.00  0.00    +0.000 A 
ATOM      7  C   UNL     1       0.024  10.358  20.890  0.00  0.00    +0.000 A 
ATOM      8  S   UNL     1      -0.978  11.566  21.617  0.00  0.00    +0.000 S 
ATOM      9  C   UNL     1      -0.964  10.680  23.093  0.00  0.00    +0.000 A 
ATOM     10  C   UNL     1      -0.233   9.512  23.045  0.00  0.00    +0.000 A 
ATOM     11  C   UNL     1       0.318   9.346  21.748  0.00  0.00    +0.000 A 
ATOM     12  N   UNL     1       1.090   8.428  21.084  0.00  0.00    +0.000 N 
ATOM     13  H   UNL     1       1.428   7.560  21.487  0.00  0.00    +0.000 HD
ENDBRANCH   2   5
BRANCH   1  17
ATOM     14  C   UNL     1       4.431   3.824  18.797  0.00  0.00    +0.000 C 
ATOM     15  C   UNL     1       2.968   3.508  18.500  0.00  0.00    +0.000 C 
ATOM     16  C   UNL     1       2.388   4.801  17.931  0.00  0.00    +0.000 C 
ATOM     17  C   UNL     1       3.253   5.940  18.498  0.00  0.00    +0.000 C 
ATOM     18  C   UNL     1       4.370   5.260  19.300  0.00  0.00    +0.000 C 
BRANCH  14  19
ATOM     19  N   UNL     1       5.245   3.729  17.588  0.00  0.00    +0.000 NA
ATOM     20  H   UNL     1       5.141   2.799  17.181  0.00  0.00    +0.000 HD
ATOM     21  H   UNL     1       6.231   3.812  17.840  0.00  0.00    +0.000 HD
ENDBRANCH  14  19
ENDBRANCH   1  17
TORSDOF 3
ENDMDL
MODEL 4
REMARK VINA RESULT:      -6.1      4.955      6.763
REMARK  Name = 
REMARK  3 active torsions:
REMARK  status: ('A' for Active; 'I' for Inactive)
REMARK    1  A    between atoms: N_1  and  C_2
REMARK    2  A    between atoms: C_5  and  N_6
REMARK    3  A    between atoms: C_7  and  C_9
REMARK                            x       y       z     vdW  Elec       q    Type
REMARK                         _______ _______ _______ _____ _____    ______ ____
ROOT
ATOM      1  N   UNL     1       1.670   7.710  20.806  0.00  0.00    +0.000 N 
ATOM      2  C   UNL     1       2.173   7.476  19.549  0.00  0.00    +0.000 C 
ATOM      3  O   UNL     1       2.348   8.364  18.715  0.00  0.00    +0.000 OA
ATOM      4  H   UNL     1       1.576   6.930  21.439  0.00  0.00    +0.000 HD
ENDROOT
BRANCH   2   5
ATOM      5  C   UNL     1       2.474   6.088  19.267  0.00  0.00    +0.000 A 
ATOM      6  C   UNL     1       2.113   5.283  18.193  0.00  0.00    +0.000 A 
ATOM      7  C   UNL     1       2.677   4.002  18.449  0.00  0.00    +0.000 A 
ATOM      8  S   UNL     1       2.768   2.438  17.716  0.00  0.00    +0.000 S 
ATOM      9  C   UNL     1       3.698   1.873  19.051  0.00  0.00    +0.000 A 
ATOM     10  C   UNL     1       3.936   2.828  20.018  0.00  0.00    +0.000 A 
ATOM     11  C   UNL     1       3.341   4.057  19.634  0.00  0.00    +0.000 A 
ATOM     12  N   UNL     1       3.237   5.331  20.128  0.00  0.00    +0.000 N 
ATOM     13  H   UNL     1       3.666   5.652  20.991  0.00  0.00    +0.000 HD
ENDBRANCH   2   5
BRANCH   1  17
ATOM     14  C   UNL     1      -0.582  10.312  22.006  0.00  0.00    +0.000 C 
ATOM     15  C   UNL     1      -0.036   9.568  23.220  0.00  0.00    +0.000 C 
ATOM     16  C   UNL     1       1.376   9.143  22.826  0.00  0.00    +0.000 C 
ATOM     17  C   UNL     1       1.378   9.047  21.291  0.00  0.00    +0.000 C 
ATOM     18  C   UNL     1      -0.011   9.518  20.839  0.00  0.00    +0.000 C 
BRANCH  14  19
ATOM     19  N   UNL     1      -0.109  11.694  21.978  0.00  0.00    +0.000 NA
ATOM     20  H   UNL     1       0.815  11.744  22.407  0.00  0.00    +0.000 HD
ATOM     21  H   UNL     1      -0.717  12.269  22.562  0.00  0.00    +0.000 HD
ENDBRANCH  14  19
ENDBRANCH   1  17
TORSDOF 3
ENDMDL
MODEL 5
REMARK VINA RESULT:      -6.0      4.248      7.467
REMARK  Name = 
REMARK  3 active torsions:
REMARK  status: ('A' for Active; 'I' for Inactive)
REMARK    1  A    between atoms: N_1  and  C_2
REMARK    2  A    between atoms: C_5  and  N_6
REMARK    3  A    between atoms: C_7  and  C_9
REMARK                            x       y       z     vdW  Elec       q    Type
REMARK                         _______ _______ _______ _____ _____    ______ ____
ROOT
ATOM      1  N   UNL     1       3.848   6.060  17.454  0.00  0.00    +0.000 N 
ATOM      2  C   UNL     1       3.046   5.788  18.536  0.00  0.00    +0.000 C 
ATOM      3  O   UNL     1       2.860   4.651  18.969  0.00  0.00    +0.000 OA
ATOM      4  H   UNL     1       3.965   7.023  17.174  0.00  0.00    +0.000 HD
ENDROOT
BRANCH   2   5
ATOM      5  C   UNL     1       2.415   6.948  19.129  0.00  0.00    +0.000 A 
ATOM      6  C   UNL     1       2.070   8.175  18.574  0.00  0.00    +0.000 A 
ATOM      7  C   UNL     1       1.491   8.937  19.626  0.00  0.00    +0.000 A 
ATOM      8  S   UNL     1       0.791  10.498  19.883  0.00  0.00    +0.000 S 
ATOM      9  C   UNL     1       0.539  10.106  21.541  0.00  0.00    +0.000 A 
ATOM     10  C   UNL     1       0.964   8.842  21.893  0.00  0.00    +0.000 A 
ATOM     11  C   UNL     1       1.500   8.183  20.757  0.00  0.00    +0.000 A 
ATOM     12  N   UNL     1       2.045   6.961  20.456  0.00  0.00    +0.000 N 
ATOM     13  H   UNL     1       2.147   6.198  21.116  0.00  0.00    +0.000 HD
ENDBRANCH   2   5
BRANCH   1  17
ATOM     14  C   UNL     1       6.610   4.910  15.372  0.00  0.00    +0.000 C 
ATOM     15  C   UNL     1       7.058   4.836  16.829  0.00  0.00    +0.000 C 
ATOM     16  C   UNL     1       5.793   4.508  17.620  0.00  0.00    +0.000 C 
ATOM     17  C   UNL     1       4.618   5.032  16.777  0.00  0.00    +0.000 C 
ATOM     18  C   UNL     1       5.236   5.559  15.475  0.00  0.00    +0.000 C 
BRANCH  14  19
ATOM     19  N   UNL     1       6.514   3.577  14.783  0.00  0.00    +0.000 NA
ATOM     20  H   UNL     1       6.286   3.660  13.792  0.00  0.00    +0.000 HD
ATOM     21  H   UNL     1       5.731   3.078  15.207  0.00  0.00    +0.000 HD
ENDBRANCH  14  19
ENDBRANCH   1  17
TORSDOF 3
ENDMDL
MODEL 6
REMARK VINA RESULT:      -6.0      4.776      6.964
REMARK  Name = 
REMARK  3 active torsions:
REMARK  status: ('A' for Active; 'I' for Inactive)
REMARK    1  A    between atoms: N_1  and  C_2
REMARK    2  A    between atoms: C_5  and  N_6
REMARK    3  A    between atoms: C_7  and  C_9
REMARK                            x       y       z     vdW  Elec       q    Type
REMARK                         _______ _______ _______ _____ _____    ______ ____
ROOT
ATOM      1  N   UNL     1       2.261   5.566  18.619  0.00  0.00    +0.000 N 
ATOM      2  C   UNL     1       2.851   6.732  18.194  0.00  0.00    +0.000 C 
ATOM      3  O   UNL     1       3.870   6.761  17.504  0.00  0.00    +0.000 OA
ATOM      4  H   UNL     1       1.414   5.627  19.165  0.00  0.00    +0.000 HD
ENDROOT
BRANCH   2   5
ATOM      5  C   UNL     1       2.188   7.941  18.636  0.00  0.00    +0.000 A 
ATOM      6  C   UNL     1       1.896   9.116  17.953  0.00  0.00    +0.000 A 
ATOM      7  C   UNL     1       1.248   9.968  18.888  0.00  0.00    +0.000 A 
ATOM      8  S   UNL     1       0.545  11.548  18.957  0.00  0.00    +0.000 S 
ATOM      9  C   UNL     1       0.169  11.302  20.619  0.00  0.00    +0.000 A 
ATOM     10  C   UNL     1       0.555  10.072  21.110  0.00  0.00    +0.000 A 
ATOM     11  C   UNL     1       1.167   9.315  20.078  0.00  0.00    +0.000 A 
ATOM     12  N   UNL     1       1.722   8.071  19.925  0.00  0.00    +0.000 N 
ATOM     13  H   UNL     1       1.768   7.367  20.655  0.00  0.00    +0.000 HD
ENDBRANCH   2   5
BRANCH   1  17
ATOM     14  C   UNL     1       3.367   2.159  19.295  0.00  0.00    +0.000 C 
ATOM     15  C   UNL     1       1.866   2.120  19.025  0.00  0.00    +0.000 C 
ATOM     16  C   UNL     1       1.612   3.235  18.013  0.00  0.00    +0.000 C 
ATOM     17  C   UNL     1       2.744   4.257  18.215  0.00  0.00    +0.000 C 
ATOM     18  C   UNL     1       3.674   3.650  19.274  0.00  0.00    +0.000 C 
BRANCH  14  19
ATOM     19  N   UNL     1       4.107   1.459  18.249  0.00  0.00    +0.000 NA
ATOM     20  H   UNL     1       3.452   1.079  17.566  0.00  0.00    +0.000 HD
ATOM     21  H   UNL     1       4.583   0.653  18.656  0.00  0.00    +0.000 HD
ENDBRANCH  14  19
ENDBRANCH   1  17
TORSDOF 3
ENDMDL
MODEL 7
REMARK VINA RESULT:      -6.0      5.383      7.883
REMARK  Name = 
REMARK  3 active torsions:
REMARK  status: ('A' for Active; 'I' for Inactive)
REMARK    1  A    between atoms: N_1  and  C_2
REMARK    2  A    between atoms: C_5  and  N_6
REMARK    3  A    between atoms: C_7  and  C_9
REMARK                            x       y       z     vdW  Elec       q    Type
REMARK                         _______ _______ _______ _____ _____    ______ ____
ROOT
ATOM      1  N   UNL     1       2.209   5.745  19.511  0.00  0.00    +0.000 N 
ATOM      2  C   UNL     1       2.380   7.070  19.188  0.00  0.00    +0.000 C 
ATOM      3  O   UNL     1       3.111   7.454  18.275  0.00  0.00    +0.000 OA
ATOM      4  H   UNL     1       1.576   5.511  20.260  0.00  0.00    +0.000 HD
ENDROOT
BRANCH   2   5
ATOM      5  C   UNL     1       1.640   7.995  20.020  0.00  0.00    +0.000 A 
ATOM      6  C   UNL     1       1.186   7.874  21.328  0.00  0.00    +0.000 A 
ATOM      7  C   UNL     1       0.506   9.087  21.627  0.00  0.00    +0.000 A 
ATOM      8  S   UNL     1      -0.340   9.828  22.941  0.00  0.00    +0.000 S 
ATOM      9  C   UNL     1      -0.631  11.216  21.963  0.00  0.00    +0.000 A 
ATOM     10  C   UNL     1      -0.108  11.130  20.690  0.00  0.00    +0.000 A 
ATOM     11  C   UNL     1       0.558   9.888  20.529  0.00  0.00    +0.000 A 
ATOM     12  N   UNL     1       1.264   9.235  19.552  0.00  0.00    +0.000 N 
ATOM     13  H   UNL     1       1.473   9.620  18.637  0.00  0.00    +0.000 HD
ENDBRANCH   2   5
BRANCH   1  17
ATOM     14  C   UNL     1       3.131   2.262  18.958  0.00  0.00    +0.000 C 
ATOM     15  C   UNL     1       1.778   2.500  18.295  0.00  0.00    +0.000 C 
ATOM     16  C   UNL     1       1.814   3.952  17.823  0.00  0.00    +0.000 C 
ATOM     17  C   UNL     1       2.815   4.673  18.742  0.00  0.00    +0.000 C 
ATOM     18  C   UNL     1       3.402   3.588  19.655  0.00  0.00    +0.000 C 
BRANCH  14  19
ATOM     19  N   UNL     1       4.162   1.976  17.963  0.00  0.00    +0.000 NA
ATOM     20  H   UNL     1       5.083   2.083  18.389  0.00  0.00    +0.000 HD
ATOM     21  H   UNL     1       4.116   2.676  17.221  0.00  0.00    +0.000 HD
ENDBRANCH  14  19
ENDBRANCH   1  17
TORSDOF 3
ENDMDL
MODEL 8
REMARK VINA RESULT:      -6.0      3.004      7.012
REMARK  Name = 
REMARK  3 active torsions:
REMARK  status: ('A' for Active; 'I' for Inactive)
REMARK    1  A    between atoms: N_1  and  C_2
REMARK    2  A    between atoms: C_5  and  N_6
REMARK    3  A    between atoms: C_7  and  C_9
REMARK                            x       y       z     vdW  Elec       q    Type
REMARK                         _______ _______ _______ _____ _____    ______ ____
ROOT
ATOM      1  N   UNL     1       4.987   4.592  16.114  0.00  0.00    +0.000 N 
ATOM      2  C   UNL     1       4.453   5.432  17.061  0.00  0.00    +0.000 C 
ATOM      3  O   UNL     1       4.543   6.658  17.004  0.00  0.00    +0.000 OA
ATOM      4  H   UNL     1       4.852   3.598  16.223  0.00  0.00    +0.000 HD
ENDROOT
BRANCH   2   5
ATOM      5  C   UNL     1       3.781   4.762  18.155  0.00  0.00    +0.000 A 
ATOM      6  C   UNL     1       4.282   3.945  19.162  0.00  0.00    +0.000 A 
ATOM      7  C   UNL     1       3.165   3.556  19.951  0.00  0.00    +0.000 A 
ATOM      8  S   UNL     1       2.815   2.604  21.352  0.00  0.00    +0.000 S 
ATOM      9  C   UNL     1       1.142   2.978  21.181  0.00  0.00    +0.000 A 
ATOM     10  C   UNL     1       0.852   3.795  20.108  0.00  0.00    +0.000 A 
ATOM     11  C   UNL     1       2.049   4.124  19.420  0.00  0.00    +0.000 A 
ATOM     12  N   UNL     1       2.421   4.876  18.336  0.00  0.00    +0.000 N 
ATOM     13  H   UNL     1       1.783   5.427  17.771  0.00  0.00    +0.000 HD
ENDBRANCH   2   5
BRANCH   1  17
ATOM     14  C   UNL     1       7.605   4.544  13.578  0.00  0.00    +0.000 C 
ATOM     15  C   UNL     1       6.448   3.687  13.075  0.00  0.00    +0.000 C 
ATOM     16  C   UNL     1       5.190   4.340  13.641  0.00  0.00    +0.000 C 
ATOM     17  C   UNL     1       5.633   5.085  14.911  0.00  0.00    +0.000 C 
ATOM     18  C   UNL     1       7.157   4.920  14.984  0.00  0.00    +0.000 C 
BRANCH  14  19
ATOM     19  N   UNL     1       7.777   5.734  12.750  0.00  0.00    +0.000 NA
ATOM     20  H   UNL     1       8.480   6.341  13.171  0.00  0.00    +0.000 HD
ATOM     21  H   UNL     1       6.910   6.272  12.749  0.00  0.00    +0.000 HD
ENDBRANCH  14  19
ENDBRANCH   1  17
TORSDOF 3
ENDMDL
MODEL 9
REMARK VINA RESULT:      -6.0      1.466      1.740
REMARK  Name = 
REMARK  3 active torsions:
REMARK  status: ('A' for Active; 'I' for Inactive)
REMARK    1  A    between atoms: N_1  and  C_2
REMARK    2  A    between atoms: C_5  and  N_6
REMARK    3  A    between atoms: C_7  and  C_9
REMARK                            x       y       z     vdW  Elec       q    Type
REMARK                         _______ _______ _______ _____ _____    ______ ____
ROOT
ATOM      1  N   UNL     1       4.586   4.797  17.697  0.00  0.00    +0.000 N 
ATOM      2  C   UNL     1       5.909   4.577  17.399  0.00  0.00    +0.000 C 
ATOM      3  O   UNL     1       6.789   4.487  18.256  0.00  0.00    +0.000 OA
ATOM      4  H   UNL     1       3.923   4.837  16.937  0.00  0.00    +0.000 HD
ENDROOT
BRANCH   2   5
ATOM      5  C   UNL     1       6.202   4.472  15.984  0.00  0.00    +0.000 A 
ATOM      6  C   UNL     1       5.699   3.611  15.017  0.00  0.00    +0.000 A 
ATOM      7  C   UNL     1       6.355   3.953  13.802  0.00  0.00    +0.000 A 
ATOM      8  S   UNL     1       6.379   3.468  12.142  0.00  0.00    +0.000 S 
ATOM      9  C   UNL     1       7.580   4.658  11.817  0.00  0.00    +0.000 A 
ATOM     10  C   UNL     1       7.953   5.400  12.918  0.00  0.00    +0.000 A 
ATOM     11  C   UNL     1       7.214   4.976  14.053  0.00  0.00    +0.000 A 
ATOM     12  N   UNL     1       7.112   5.310  15.379  0.00  0.00    +0.000 N 
ATOM     13  H   UNL     1       7.627   6.061  15.825  0.00  0.00    +0.000 HD
ENDBRANCH   2   5
BRANCH   1  17
ATOM     14  C   UNL     1       1.934   4.913  20.194  0.00  0.00    +0.000 C 
ATOM     15  C   UNL     1       2.315   3.451  19.982  0.00  0.00    +0.000 C 
ATOM     16  C   UNL     1       3.807   3.469  19.659  0.00  0.00    +0.000 C 
ATOM     17  C   UNL     1       4.095   4.857  19.062  0.00  0.00    +0.000 C 
ATOM     18  C   UNL     1       2.775   5.635  19.150  0.00  0.00    +0.000 C 
BRANCH  14  19
ATOM     19  N   UNL     1       2.281   5.356  21.542  0.00  0.00    +0.000 NA
ATOM     20  H   UNL     1       3.255   5.662  21.558  0.00  0.00    +0.000 HD
ATOM     21  H   UNL     1       2.229   4.562  22.181  0.00  0.00    +0.000 HD
ENDBRANCH  14  19
ENDBRANCH   1  17
TORSDOF 3
ENDMDL
