MODEL 1
REMARK VINA RESULT:      -6.8      0.000      0.000
REMARK  Name = 
REMARK  5 active torsions:
REMARK  status: ('A' for Active; 'I' for Inactive)
REMARK    1  A    between atoms: C_1  and  C_2
REMARK    2  A    between atoms: C_2  and  C_3
REMARK    3  A    between atoms: C_3  and  C_4
REMARK    4  A    between atoms: C_4  and  N_5
REMARK    5  A    between atoms: C_9  and  C_11
REMARK                            x       y       z     vdW  Elec       q    Type
REMARK                         _______ _______ _______ _____ _____    ______ ____
ROOT
ATOM      1  N   UNL     1       6.810   6.577  17.903  0.00  0.00    +0.000 N 
ATOM      2  C   UNL     1       5.657   7.355  17.446  0.00  0.00    +0.000 C 
ATOM      3  C   UNL     1       4.584   6.483  16.798  0.00  0.00    +0.000 C 
ATOM      4  N   UNL     1       4.174   5.442  17.731  0.00  0.00    +0.000 N 
ATOM      5  C   UNL     1       2.825   5.329  18.092  0.00  0.00    +0.000 C 
ATOM      6  O   UNL     1       2.014   6.151  17.655  0.00  0.00    +0.000 OA
ATOM      7  C   UNL     1       5.273   4.631  18.256  0.00  0.00    +0.000 C 
ATOM      8  C   UNL     1       6.656   5.289  18.395  0.00  0.00    +0.000 C 
ATOM      9  O   UNL     1       7.585   4.647  18.887  0.00  0.00    +0.000 OA
ENDROOT
BRANCH   5  10
ATOM     10  C   UNL     1       2.408   4.256  18.985  0.00  0.00    +0.000 A 
ATOM     11  C   UNL     1       2.088   2.927  18.770  0.00  0.00    +0.000 A 
ATOM     12  N   UNL     1       1.799   2.177  19.893  0.00  0.00    +0.000 NA
ATOM     13  C   UNL     1       1.846   2.938  20.956  0.00  0.00    +0.000 A 
ATOM     14  N   UNL     1       1.629   2.470  22.193  0.00  0.00    +0.000 N 
ATOM     15  S   UNL     1       2.195   4.590  20.664  0.00  0.00    +0.000 S 
ATOM     16  H   UNL     1       1.210   1.549  22.254  0.00  0.00    +0.000 HD
ATOM     17  H   UNL     1       1.343   3.117  22.917  0.00  0.00    +0.000 HD
ENDBRANCH   5  10
BRANCH   1  18
ATOM     18  C   UNL     1       8.076   7.275  18.119  0.00  0.00    +0.000 C 
BRANCH  18  19
ATOM     19  C   UNL     1       7.973   8.772  17.825  0.00  0.00    +0.000 C 
BRANCH  19  21
ATOM     20  C   UNL     1       9.307  10.883  18.109  0.00  0.00    +0.000 C 
ATOM     21  C   UNL     1       8.854   9.590  18.768  0.00  0.00    +0.000 C 
ENDBRANCH  19  21
ENDBRANCH  18  19
ENDBRANCH   1  18
TORSDOF 4
ENDMDL
MODEL 2
REMARK VINA RESULT:      -6.7      1.747      1.877
REMARK  Name = 
REMARK  5 active torsions:
REMARK  status: ('A' for Active; 'I' for Inactive)
REMARK    1  A    between atoms: C_1  and  C_2
REMARK    2  A    between atoms: C_2  and  C_3
REMARK    3  A    between atoms: C_3  and  C_4
REMARK    4  A    between atoms: C_4  and  N_5
REMARK    5  A    between atoms: C_9  and  C_11
REMARK                            x       y       z     vdW  Elec       q    Type
REMARK                         _______ _______ _______ _____ _____    ______ ____
ROOT
ATOM      1  N   UNL     1       7.546   6.408  18.093  0.00  0.00    +0.000 N 
ATOM      2  C   UNL     1       7.063   6.352  16.713  0.00  0.00    +0.000 C 
ATOM      3  C   UNL     1       6.698   4.934  16.279  0.00  0.00    +0.000 C 
ATOM      4  N   UNL     1       5.713   4.382  17.200  0.00  0.00    +0.000 N 
ATOM      5  C   UNL     1       4.484   3.924  16.706  0.00  0.00    +0.000 C 
ATOM      6  O   UNL     1       4.235   4.048  15.503  0.00  0.00    +0.000 OA
ATOM      7  C   UNL     1       6.109   4.422  18.608  0.00  0.00    +0.000 C 
ATOM      8  C   UNL     1       7.040   5.558  19.065  0.00  0.00    +0.000 C 
ATOM      9  O   UNL     1       7.344   5.649  20.256  0.00  0.00    +0.000 OA
ENDROOT
BRANCH   5  10
ATOM     10  C   UNL     1       3.521   3.326  17.620  0.00  0.00    +0.000 A 
ATOM     11  C   UNL     1       3.384   2.049  18.135  0.00  0.00    +0.000 A 
ATOM     12  N   UNL     1       2.366   1.863  19.050  0.00  0.00    +0.000 NA
ATOM     13  C   UNL     1       1.696   2.977  19.196  0.00  0.00    +0.000 A 
ATOM     14  N   UNL     1       0.662   3.096  20.042  0.00  0.00    +0.000 N 
ATOM     15  S   UNL     1       2.218   4.284  18.219  0.00  0.00    +0.000 S 
ATOM     16  H   UNL     1       0.281   2.230  20.403  0.00  0.00    +0.000 HD
ATOM     17  H   UNL     1      -0.017   3.829  19.883  0.00  0.00    +0.000 HD
ENDBRANCH   5  10
BRANCH   1  18
ATOM     18  C   UNL     1       8.342   7.564  18.503  0.00  0.00    +0.000 C 
BRANCH  18  19
ATOM     19  C   UNL     1       7.883   8.856  17.827  0.00  0.00    +0.000 C 
BRANCH  19  21
ATOM     20  C   UNL     1       9.218  10.094  19.558  0.00  0.00    +0.000 C 
ATOM     21  C   UNL     1       8.860  10.002  18.084  0.00  0.00    +0.000 C 
ENDBRANCH  19  21
ENDBRANCH  18  19
ENDBRANCH   1  18
TORSDOF 4
ENDMDL
MODEL 3
REMARK VINA RESULT:      -6.5      3.890      6.572
REMARK  Name = 
REMARK  5 active torsions:
REMARK  status: ('A' for Active; 'I' for Inactive)
REMARK    1  A    between atoms: C_1  and  C_2
REMARK    2  A    between atoms: C_2  and  C_3
REMARK    3  A    between atoms: C_3  and  C_4
REMARK    4  A    between atoms: C_4  and  N_5
REMARK    5  A    between atoms: C_9  and  C_11
REMARK                            x       y       z     vdW  Elec       q    Type
REMARK                         _______ _______ _______ _____ _____    ______ ____
ROOT
ATOM      1  N   UNL     1       1.638   8.041  19.867  0.00  0.00    +0.000 N 
ATOM      2  C   UNL     1       1.976   6.835  20.624  0.00  0.00    +0.000 C 
ATOM      3  C   UNL     1       2.238   5.632  19.720  0.00  0.00    +0.000 C 
ATOM      4  N   UNL     1       3.288   5.961  18.765  0.00  0.00    +0.000 N 
ATOM      5  C   UNL     1       4.441   5.167  18.704  0.00  0.00    +0.000 C 
ATOM      6  O   UNL     1       4.572   4.232  19.501  0.00  0.00    +0.000 OA
ATOM      7  C   UNL     1       3.039   7.171  17.981  0.00  0.00    +0.000 C 
ATOM      8  C   UNL     1       2.205   8.291  18.626  0.00  0.00    +0.000 C 
ATOM      9  O   UNL     1       2.027   9.344  18.010  0.00  0.00    +0.000 OA
ENDROOT
BRANCH   5  10
ATOM     10  C   UNL     1       5.467   5.466  17.714  0.00  0.00    +0.000 A 
ATOM     11  C   UNL     1       6.554   6.323  17.718  0.00  0.00    +0.000 A 
ATOM     12  N   UNL     1       7.365   6.288  16.601  0.00  0.00    +0.000 NA
ATOM     13  C   UNL     1       6.875   5.450  15.725  0.00  0.00    +0.000 A 
ATOM     14  N   UNL     1       7.469   5.198  14.550  0.00  0.00    +0.000 N 
ATOM     15  S   UNL     1       5.403   4.695  16.172  0.00  0.00    +0.000 S 
ATOM     16  H   UNL     1       8.198   5.845  14.272  0.00  0.00    +0.000 HD
ATOM     17  H   UNL     1       6.913   4.829  13.790  0.00  0.00    +0.000 HD
ENDBRANCH   5  10
BRANCH   1  18
ATOM     18  C   UNL     1       0.935   9.120  20.559  0.00  0.00    +0.000 C 
BRANCH  18  19
ATOM     19  C   UNL     1       1.136   9.068  22.074  0.00  0.00    +0.000 C 
BRANCH  19  21
ATOM     20  C   UNL     1      -0.645  10.737  22.672  0.00  0.00    +0.000 C 
ATOM     21  C   UNL     1      -0.176   9.298  22.821  0.00  0.00    +0.000 C 
ENDBRANCH  19  21
ENDBRANCH  18  19
ENDBRANCH   1  18
TORSDOF 4
ENDMDL
MODEL 4
REMARK VINA RESULT:      -6.2      3.984      6.659
REMARK  Name = 
REMARK  5 active torsions:
REMARK  status: ('A' for Active; 'I' for Inactive)
REMARK    1  A    between atoms: C_1  and  C_2
REMARK    2  A    between atoms: C_2  and  C_3
REMARK    3  A    between atoms: C_3  and  C_4
REMARK    4  A    between atoms: C_4  and  N_5
REMARK    5  A    between atoms: C_9  and  C_11
REMARK                            x       y       z     vdW  Elec       q    Type
REMARK                         _______ _______ _______ _____ _____    ______ ____
ROOT
ATOM      1  N   UNL     1       1.607   8.657  19.428  0.00  0.00    +0.000 N 
ATOM      2  C   UNL     1       1.911   7.558  20.344  0.00  0.00    +0.000 C 
ATOM      3  C   UNL     1       2.163   6.240  19.614  0.00  0.00    +0.000 C 
ATOM      4  N   UNL     1       3.234   6.420  18.643  0.00  0.00    +0.000 N 
ATOM      5  C   UNL     1       4.372   5.605  18.708  0.00  0.00    +0.000 C 
ATOM      6  O   UNL     1       4.472   4.784  19.625  0.00  0.00    +0.000 OA
ATOM      7  C   UNL     1       3.020   7.519  17.700  0.00  0.00    +0.000 C 
ATOM      8  C   UNL     1       2.198   8.729  18.174  0.00  0.00    +0.000 C 
ATOM      9  O   UNL     1       2.050   9.693  17.421  0.00  0.00    +0.000 OA
ENDROOT
BRANCH   5  10
ATOM     10  C   UNL     1       5.418   5.752  17.706  0.00  0.00    +0.000 A 
ATOM     11  C   UNL     1       6.568   6.521  17.654  0.00  0.00    +0.000 A 
ATOM     12  N   UNL     1       7.375   6.343  16.548  0.00  0.00    +0.000 NA
ATOM     13  C   UNL     1       6.822   5.483  15.732  0.00  0.00    +0.000 A 
ATOM     14  N   UNL     1       7.396   5.101  14.582  0.00  0.00    +0.000 N 
ATOM     15  S   UNL     1       5.296   4.879  16.223  0.00  0.00    +0.000 S 
ATOM     16  H   UNL     1       8.172   5.668  14.262  0.00  0.00    +0.000 HD
ATOM     17  H   UNL     1       6.813   4.722  13.847  0.00  0.00    +0.000 HD
ENDBRANCH   5  10
BRANCH   1  18
ATOM     18  C   UNL     1       0.915   9.831  19.957  0.00  0.00    +0.000 C 
BRANCH  18  19
ATOM     19  C   UNL     1      -0.605   9.711  19.840  0.00  0.00    +0.000 C 
BRANCH  19  21
ATOM     20  C   UNL     1      -1.452  11.964  19.117  0.00  0.00    +0.000 C 
ATOM     21  C   UNL     1      -1.145  10.542  18.677  0.00  0.00    +0.000 C 
ENDBRANCH  19  21
ENDBRANCH  18  19
ENDBRANCH   1  18
TORSDOF 4
ENDMDL
MODEL 5
REMARK VINA RESULT:      -6.2      1.057      1.109
REMARK  Name = 
REMARK  5 active torsions:
REMARK  status: ('A' for Active; 'I' for Inactive)
REMARK    1  A    between atoms: C_1  and  C_2
REMARK    2  A    between atoms: C_2  and  C_3
REMARK    3  A    between atoms: C_3  and  C_4
REMARK    4  A    between atoms: C_4  and  N_5
REMARK    5  A    between atoms: C_9  and  C_11
REMARK                            x       y       z     vdW  Elec       q    Type
REMARK                         _______ _______ _______ _____ _____    ______ ____
ROOT
ATOM      1  N   UNL     1       7.350   6.730  18.239  0.00  0.00    +0.000 N 
ATOM      2  C   UNL     1       6.319   6.951  17.223  0.00  0.00    +0.000 C 
ATOM      3  C   UNL     1       5.706   5.646  16.720  0.00  0.00    +0.000 C 
ATOM      4  N   UNL     1       5.175   4.891  17.847  0.00  0.00    +0.000 N 
ATOM      5  C   UNL     1       3.824   4.517  17.854  0.00  0.00    +0.000 C 
ATOM      6  O   UNL     1       3.093   4.883  16.928  0.00  0.00    +0.000 OA
ATOM      7  C   UNL     1       6.138   4.647  18.921  0.00  0.00    +0.000 C 
ATOM      8  C   UNL     1       7.251   5.683  19.144  0.00  0.00    +0.000 C 
ATOM      9  O   UNL     1       8.042   5.532  20.078  0.00  0.00    +0.000 OA
ENDROOT
BRANCH   5  10
ATOM     10  C   UNL     1       3.307   3.719  18.957  0.00  0.00    +0.000 A 
ATOM     11  C   UNL     1       3.311   2.359  19.215  0.00  0.00    +0.000 A 
ATOM     12  N   UNL     1       2.775   1.963  20.424  0.00  0.00    +0.000 NA
ATOM     13  C   UNL     1       2.316   3.006  21.066  0.00  0.00    +0.000 A 
ATOM     14  N   UNL     1       1.758   2.922  22.282  0.00  0.00    +0.000 N 
ATOM     15  S   UNL     1       2.462   4.501  20.241  0.00  0.00    +0.000 S 
ATOM     16  H   UNL     1       1.506   1.991  22.593  0.00  0.00    +0.000 HD
ATOM     17  H   UNL     1       1.131   3.657  22.584  0.00  0.00    +0.000 HD
ENDBRANCH   5  10
BRANCH   1  18
ATOM     18  C   UNL     1       8.323   7.793  18.483  0.00  0.00    +0.000 C 
BRANCH  18  19
ATOM     19  C   UNL     1       8.001   9.067  17.701  0.00  0.00    +0.000 C 
BRANCH  19  21
ATOM     20  C   UNL     1       9.244  10.131  19.608  0.00  0.00    +0.000 C 
ATOM     21  C   UNL     1       8.893  10.230  18.132  0.00  0.00    +0.000 C 
ENDBRANCH  19  21
ENDBRANCH  18  19
ENDBRANCH   1  18
TORSDOF 4
ENDMDL
MODEL 6
REMARK VINA RESULT:      -6.1      1.164      1.324
REMARK  Name = 
REMARK  5 active torsions:
REMARK  status: ('A' for Active; 'I' for Inactive)
REMARK    1  A    between atoms: C_1  and  C_2
REMARK    2  A    between atoms: C_2  and  C_3
REMARK    3  A    between atoms: C_3  and  C_4
REMARK    4  A    between atoms: C_4  and  N_5
REMARK    5  A    between atoms: C_9  and  C_11
REMARK                            x       y       z     vdW  Elec       q    Type
REMARK                         _______ _______ _______ _____ _____    ______ ____
ROOT
ATOM      1  N   UNL     1       6.951   6.432  17.510  0.00  0.00    +0.000 N 
ATOM      2  C   UNL     1       5.848   6.402  16.549  0.00  0.00    +0.000 C 
ATOM      3  C   UNL     1       5.105   5.068  16.553  0.00  0.00    +0.000 C 
ATOM      4  N   UNL     1       4.631   4.780  17.901  0.00  0.00    +0.000 N 
ATOM      5  C   UNL     1       3.265   4.558  18.121  0.00  0.00    +0.000 C 
ATOM      6  O   UNL     1       2.478   4.665  17.176  0.00  0.00    +0.000 OA
ATOM      7  C   UNL     1       5.671   4.813  18.930  0.00  0.00    +0.000 C 
ATOM      8  C   UNL     1       6.867   5.756  18.719  0.00  0.00    +0.000 C 
ATOM      9  O   UNL     1       7.729   5.847  19.596  0.00  0.00    +0.000 OA
ENDROOT
BRANCH   5  10
ATOM     10  C   UNL     1       2.800   4.219  19.459  0.00  0.00    +0.000 A 
ATOM     11  C   UNL     1       2.511   4.986  20.574  0.00  0.00    +0.000 A 
ATOM     12  N   UNL     1       2.015   4.310  21.671  0.00  0.00    +0.000 NA
ATOM     13  C   UNL     1       1.974   3.027  21.417  0.00  0.00    +0.000 A 
ATOM     14  N   UNL     1       1.514   2.128  22.298  0.00  0.00    +0.000 N 
ATOM     15  S   UNL     1       2.563   2.563  19.877  0.00  0.00    +0.000 S 
ATOM     16  H   UNL     1       1.402   2.454  23.251  0.00  0.00    +0.000 HD
ATOM     17  H   UNL     1       1.805   1.163  22.208  0.00  0.00    +0.000 HD
ENDBRANCH   5  10
BRANCH   1  18
ATOM     18  C   UNL     1       8.012   7.420  17.320  0.00  0.00    +0.000 C 
BRANCH  18  19
ATOM     19  C   UNL     1       7.613   8.806  17.828  0.00  0.00    +0.000 C 
BRANCH  19  21
ATOM     20  C   UNL     1       9.101  10.808  18.136  0.00  0.00    +0.000 C 
ATOM     21  C   UNL     1       8.724   9.435  18.668  0.00  0.00    +0.000 C 
ENDBRANCH  19  21
ENDBRANCH  18  19
ENDBRANCH   1  18
TORSDOF 4
ENDMDL
MODEL 7
REMARK VINA RESULT:      -6.1      3.072      6.628
REMARK  Name = 
REMARK  5 active torsions:
REMARK  status: ('A' for Active; 'I' for Inactive)
REMARK    1  A    between atoms: C_1  and  C_2
REMARK    2  A    between atoms: C_2  and  C_3
REMARK    3  A    between atoms: C_3  and  C_4
REMARK    4  A    between atoms: C_4  and  N_5
REMARK    5  A    between atoms: C_9  and  C_11
REMARK                            x       y       z     vdW  Elec       q    Type
REMARK                         _______ _______ _______ _____ _____    ______ ____
ROOT
ATOM      1  N   UNL     1       3.366   3.797  20.488  0.00  0.00    +0.000 N 
ATOM      2  C   UNL     1       2.793   5.077  20.071  0.00  0.00    +0.000 C 
ATOM      3  C   UNL     1       3.858   6.078  19.628  0.00  0.00    +0.000 C 
ATOM      4  N   UNL     1       4.662   5.493  18.562  0.00  0.00    +0.000 N 
ATOM      5  C   UNL     1       4.762   6.152  17.330  0.00  0.00    +0.000 C 
ATOM      6  O   UNL     1       4.121   7.193  17.150  0.00  0.00    +0.000 OA
ATOM      7  C   UNL     1       5.254   4.195  18.891  0.00  0.00    +0.000 C 
ATOM      8  C   UNL     1       4.501   3.286  19.876  0.00  0.00    +0.000 C 
ATOM      9  O   UNL     1       4.948   2.165  20.127  0.00  0.00    +0.000 OA
ENDROOT
BRANCH   5  10
ATOM     10  C   UNL     1       5.606   5.593  16.283  0.00  0.00    +0.000 A 
ATOM     11  C   UNL     1       6.952   5.727  15.991  0.00  0.00    +0.000 A 
ATOM     12  N   UNL     1       7.428   4.973  14.936  0.00  0.00    +0.000 NA
ATOM     13  C   UNL     1       6.444   4.306  14.391  0.00  0.00    +0.000 A 
ATOM     14  N   UNL     1       6.618   3.472  13.356  0.00  0.00    +0.000 N 
ATOM     15  S   UNL     1       4.899   4.578  15.081  0.00  0.00    +0.000 S 
ATOM     16  H   UNL     1       7.505   3.544  12.871  0.00  0.00    +0.000 HD
ATOM     17  H   UNL     1       5.826   3.252  12.767  0.00  0.00    +0.000 HD
ENDBRANCH   5  10
BRANCH   1  18
ATOM     18  C   UNL     1       2.564   2.923  21.343  0.00  0.00    +0.000 C 
BRANCH  18  19
ATOM     19  C   UNL     1       1.157   2.697  20.786  0.00  0.00    +0.000 C 
BRANCH  19  21
ATOM     20  C   UNL     1       0.720   2.734  18.312  0.00  0.00    +0.000 C 
ATOM     21  C   UNL     1       1.191   1.893  19.487  0.00  0.00    +0.000 C 
ENDBRANCH  19  21
ENDBRANCH  18  19
ENDBRANCH   1  18
TORSDOF 4
ENDMDL
MODEL 8
REMARK VINA RESULT:      -6.0      3.992      6.366
REMARK  Name = 
REMARK  5 active torsions:
REMARK  status: ('A' for Active; 'I' for Inactive)
REMARK    1  A    between atoms: C_1  and  C_2
REMARK    2  A    between atoms: C_2  and  C_3
REMARK    3  A    between atoms: C_3  and  C_4
REMARK    4  A    between atoms: C_4  and  N_5
REMARK    5  A    between atoms: C_9  and  C_11
REMARK                            x       y       z     vdW  Elec       q    Type
REMARK                         _______ _______ _______ _____ _____    ______ ____
ROOT
ATOM      1  N   UNL     1       1.528   8.701  19.618  0.00  0.00    +0.000 N 
ATOM      2  C   UNL     1       1.808   7.694  20.641  0.00  0.00    +0.000 C 
ATOM      3  C   UNL     1       1.771   6.271  20.087  0.00  0.00    +0.000 C 
ATOM      4  N   UNL     1       2.705   6.158  18.975  0.00  0.00    +0.000 N 
ATOM      5  C   UNL     1       3.719   5.192  19.018  0.00  0.00    +0.000 C 
ATOM      6  O   UNL     1       3.838   4.489  20.026  0.00  0.00    +0.000 OA
ATOM      7  C   UNL     1       2.508   7.148  17.914  0.00  0.00    +0.000 C 
ATOM      8  C   UNL     1       1.936   8.521  18.304  0.00  0.00    +0.000 C 
ATOM      9  O   UNL     1       1.813   9.392  17.441  0.00  0.00    +0.000 OA
ENDROOT
BRANCH   5  10
ATOM     10  C   UNL     1       4.620   5.046  17.883  0.00  0.00    +0.000 A 
ATOM     11  C   UNL     1       4.571   4.268  16.740  0.00  0.00    +0.000 A 
ATOM     12  N   UNL     1       5.595   4.449  15.831  0.00  0.00    +0.000 NA
ATOM     13  C   UNL     1       6.450   5.322  16.298  0.00  0.00    +0.000 A 
ATOM     14  N   UNL     1       7.536   5.710  15.615  0.00  0.00    +0.000 N 
ATOM     15  S   UNL     1       6.098   5.935  17.858  0.00  0.00    +0.000 S 
ATOM     16  H   UNL     1       7.788   5.139  14.816  0.00  0.00    +0.000 HD
ATOM     17  H   UNL     1       8.318   6.102  16.123  0.00  0.00    +0.000 HD
ENDBRANCH   5  10
BRANCH   1  18
ATOM     18  C   UNL     1       1.085  10.026  20.050  0.00  0.00    +0.000 C 
BRANCH  18  19
ATOM     19  C   UNL     1      -0.284   9.988  20.731  0.00  0.00    +0.000 C 
BRANCH  19  21
ATOM     20  C   UNL     1      -0.198   9.582  23.210  0.00  0.00    +0.000 C 
ATOM     21  C   UNL     1      -0.239  10.635  22.114  0.00  0.00    +0.000 C 
ENDBRANCH  19  21
ENDBRANCH  18  19
ENDBRANCH   1  18
TORSDOF 4
ENDMDL
MODEL 9
REMARK VINA RESULT:      -5.9      3.655      6.302
REMARK  Name = 
REMARK  5 active torsions:
REMARK  status: ('A' for Active; 'I' for Inactive)
REMARK    1  A    between atoms: C_1  and  C_2
REMARK    2  A    between atoms: C_2  and  C_3
REMARK    3  A    between atoms: C_3  and  C_4
REMARK    4  A    between atoms: C_4  and  N_5
REMARK    5  A    between atoms: C_9  and  C_11
REMARK                            x       y       z     vdW  Elec       q    Type
REMARK                         _______ _______ _______ _____ _____    ______ ____
ROOT
ATOM      1  N   UNL     1       2.062   7.452  19.573  0.00  0.00    +0.000 N 
ATOM      2  C   UNL     1       2.495   6.358  20.443  0.00  0.00    +0.000 C 
ATOM      3  C   UNL     1       2.511   5.011  19.724  0.00  0.00    +0.000 C 
ATOM      4  N   UNL     1       3.354   5.101  18.539  0.00  0.00    +0.000 N 
ATOM      5  C   UNL     1       4.433   4.220  18.389  0.00  0.00    +0.000 C 
ATOM      6  O   UNL     1       4.683   3.415  19.292  0.00  0.00    +0.000 OA
ATOM      7  C   UNL     1       3.002   6.189  17.625  0.00  0.00    +0.000 C 
ATOM      8  C   UNL     1       2.371   7.458  18.220  0.00  0.00    +0.000 C 
ATOM      9  O   UNL     1       2.117   8.412  17.482  0.00  0.00    +0.000 OA
ENDROOT
BRANCH   5  10
ATOM     10  C   UNL     1       5.244   4.278  17.180  0.00  0.00    +0.000 A 
ATOM     11  C   UNL     1       5.253   3.526  16.019  0.00  0.00    +0.000 A 
ATOM     12  N   UNL     1       6.139   3.925  15.037  0.00  0.00    +0.000 NA
ATOM     13  C   UNL     1       6.841   4.943  15.464  0.00  0.00    +0.000 A 
ATOM     14  N   UNL     1       7.766   5.553  14.710  0.00  0.00    +0.000 N 
ATOM     15  S   UNL     1       6.509   5.445  17.068  0.00  0.00    +0.000 S 
ATOM     16  H   UNL     1       8.056   5.059  13.875  0.00  0.00    +0.000 HD
ATOM     17  H   UNL     1       8.496   6.085  15.167  0.00  0.00    +0.000 HD
ENDBRANCH   5  10
BRANCH   1  18
ATOM     18  C   UNL     1       1.566   8.679  20.196  0.00  0.00    +0.000 C 
BRANCH  18  19
ATOM     19  C   UNL     1       1.069   8.447  21.623  0.00  0.00    +0.000 C 
BRANCH  19  21
ATOM     20  C   UNL     1      -0.311   9.710  23.300  0.00  0.00    +0.000 C 
ATOM     21  C   UNL     1      -0.252   9.170  21.881  0.00  0.00    +0.000 C 
ENDBRANCH  19  21
ENDBRANCH  18  19
ENDBRANCH   1  18
TORSDOF 4
ENDMDL
