MODEL 1
REMARK VINA RESULT:      -8.3      0.000      0.000
REMARK  Name = 
REMARK  7 active torsions:
REMARK  status: ('A' for Active; 'I' for Inactive)
REMARK    1  A    between atoms: C_1  and  C_2
REMARK    2  A    between atoms: N_6  and  N_7
REMARK    3  A    between atoms: N_7  and  C_8
REMARK    4  A    between atoms: C_10  and  C_11
REMARK    5  A    between atoms: C_14  and  C_15
REMARK    6  A    between atoms: C_20  and  C_21
REMARK    7  A    between atoms: C_22  and  C_23
REMARK                            x       y       z     vdW  Elec       q    Type
REMARK                         _______ _______ _______ _____ _____    ______ ____
ROOT
ATOM      1  C   UNL     1       3.321   5.949  19.359  0.00  0.00    +0.000 A 
ATOM      2  N   UNL     1       4.214   5.516  18.422  0.00  0.00    +0.000 NA
ATOM      3  C   UNL     1       4.422   6.254  17.310  0.00  0.00    +0.000 A 
ATOM      4  N   UNL     1       3.831   7.411  17.010  0.00  0.00    +0.000 NA
ATOM      5  C   UNL     1       2.987   7.833  17.953  0.00  0.00    +0.000 A 
ATOM      6  S   UNL     1       2.230   9.336  17.761  0.00  0.00    +0.000 S 
ATOM      7  C   UNL     1       1.396   9.183  19.238  0.00  0.00    +0.000 A 
ATOM      8  C   UNL     1       0.497  10.297  19.666  0.00  0.00    +0.000 C 
ATOM      9  C   UNL     1       1.669   7.977  19.876  0.00  0.00    +0.000 A 
ATOM     10  C   UNL     1       1.023   7.560  21.161  0.00  0.00    +0.000 C 
ATOM     11  C   UNL     1       2.656   7.188  19.133  0.00  0.00    +0.000 A 
ENDROOT
BRANCH   3  12
ATOM     12  C   UNL     1       5.472   5.847  16.371  0.00  0.00    +0.000 A 
ATOM     13  N   UNL     1       6.688   6.318  16.157  0.00  0.00    +0.000 NA
ATOM     14  N   UNL     1       7.183   5.663  15.044  0.00  0.00    +0.000 NA
ATOM     15  C   UNL     1       6.249   4.819  14.664  0.00  0.00    +0.000 A 
ATOM     16  C   UNL     1       6.228   3.892  13.516  0.00  0.00    +0.000 C 
ATOM     17  O   UNL     1       5.140   4.859  15.462  0.00  0.00    +0.000 OA
ENDBRANCH   3  12
BRANCH   1  18
ATOM     18  N   UNL     1       3.126   5.221  20.555  0.00  0.00    +0.000 N 
ATOM     19  H   UNL     1       2.436   5.649  21.158  0.00  0.00    +0.000 HD
BRANCH  18  25
ATOM     20  C   UNL     1       3.909   0.611  18.965  0.00  0.00    +0.000 C 
ATOM     21  C   UNL     1       3.176   1.811  19.424  0.00  0.00    +0.000 C 
ATOM     22  C   UNL     1       1.861   2.051  19.458  0.00  0.00    +0.000 C 
ATOM     23  C   UNL     1       1.667   3.431  19.932  0.00  0.00    +0.000 C 
ATOM     24  O   UNL     1       0.630   4.055  19.744  0.00  0.00    +0.000 OA
ATOM     25  N   UNL     1       2.883   3.846  20.398  0.00  0.00    +0.000 N 
ATOM     26  C   UNL     1       3.858   3.033  19.888  0.00  0.00    +0.000 C 
ATOM     27  O   UNL     1       5.036   3.277  19.679  0.00  0.00    +0.000 OA
ENDBRANCH  18  25
ENDBRANCH   1  18
TORSDOF 3
ENDMDL
MODEL 2
REMARK VINA RESULT:      -8.1      2.296      5.991
REMARK  Name = 
REMARK  7 active torsions:
REMARK  status: ('A' for Active; 'I' for Inactive)
REMARK    1  A    between atoms: C_1  and  C_2
REMARK    2  A    between atoms: N_6  and  N_7
REMARK    3  A    between atoms: N_7  and  C_8
REMARK    4  A    between atoms: C_10  and  C_11
REMARK    5  A    between atoms: C_14  and  C_15
REMARK    6  A    between atoms: C_20  and  C_21
REMARK    7  A    between atoms: C_22  and  C_23
REMARK                            x       y       z     vdW  Elec       q    Type
REMARK                         _______ _______ _______ _____ _____    ______ ____
ROOT
ATOM      1  C   UNL     1       4.191   5.771  18.428  0.00  0.00    +0.000 A 
ATOM      2  N   UNL     1       3.752   7.017  18.085  0.00  0.00    +0.000 NA
ATOM      3  C   UNL     1       2.562   7.455  18.552  0.00  0.00    +0.000 A 
ATOM      4  N   UNL     1       1.731   6.781  19.350  0.00  0.00    +0.000 NA
ATOM      5  C   UNL     1       2.195   5.580  19.700  0.00  0.00    +0.000 A 
ATOM      6  S   UNL     1       1.297   4.642  20.787  0.00  0.00    +0.000 S 
ATOM      7  C   UNL     1       2.437   3.377  20.746  0.00  0.00    +0.000 A 
ATOM      8  C   UNL     1       2.187   2.166  21.585  0.00  0.00    +0.000 C 
ATOM      9  C   UNL     1       3.497   3.650  19.886  0.00  0.00    +0.000 A 
ATOM     10  C   UNL     1       4.608   2.682  19.616  0.00  0.00    +0.000 C 
ATOM     11  C   UNL     1       3.378   4.986  19.295  0.00  0.00    +0.000 A 
ENDROOT
BRANCH   3  12
ATOM     12  C   UNL     1       2.156   8.838  18.283  0.00  0.00    +0.000 A 
ATOM     13  N   UNL     1       2.578   9.718  17.393  0.00  0.00    +0.000 NA
ATOM     14  N   UNL     1       1.961  10.920  17.692  0.00  0.00    +0.000 NA
ATOM     15  C   UNL     1       1.186  10.691  18.729  0.00  0.00    +0.000 A 
ATOM     16  C   UNL     1       0.325  11.621  19.485  0.00  0.00    +0.000 C 
ATOM     17  O   UNL     1       1.236   9.393  19.154  0.00  0.00    +0.000 OA
ENDBRANCH   3  12
BRANCH   1  18
ATOM     18  N   UNL     1       5.455   5.312  17.995  0.00  0.00    +0.000 N 
ATOM     19  H   UNL     1       5.690   4.407  18.381  0.00  0.00    +0.000 HD
BRANCH  18  25
ATOM     20  C   UNL     1       5.830   3.544  13.398  0.00  0.00    +0.000 C 
ATOM     21  C   UNL     1       6.070   4.414  14.571  0.00  0.00    +0.000 C 
ATOM     22  C   UNL     1       6.975   5.381  14.749  0.00  0.00    +0.000 C 
ATOM     23  C   UNL     1       6.837   5.880  16.126  0.00  0.00    +0.000 C 
ATOM     24  O   UNL     1       7.724   6.502  16.698  0.00  0.00    +0.000 OA
ATOM     25  N   UNL     1       5.674   5.347  16.607  0.00  0.00    +0.000 N 
ATOM     26  C   UNL     1       5.319   4.277  15.831  0.00  0.00    +0.000 C 
ATOM     27  O   UNL     1       4.657   3.295  16.127  0.00  0.00    +0.000 OA
ENDBRANCH  18  25
ENDBRANCH   1  18
TORSDOF 3
ENDMDL
MODEL 3
REMARK VINA RESULT:      -7.9      2.276      6.046
REMARK  Name = 
REMARK  7 active torsions:
REMARK  status: ('A' for Active; 'I' for Inactive)
REMARK    1  A    between atoms: C_1  and  C_2
REMARK    2  A    between atoms: N_6  and  N_7
REMARK    3  A    between atoms: N_7  and  C_8
REMARK    4  A    between atoms: C_10  and  C_11
REMARK    5  A    between atoms: C_14  and  C_15
REMARK    6  A    between atoms: C_20  and  C_21
REMARK    7  A    between atoms: C_22  and  C_23
REMARK                            x       y       z     vdW  Elec       q    Type
REMARK                         _______ _______ _______ _____ _____    ______ ____
ROOT
ATOM      1  C   UNL     1       3.334   4.846  17.651  0.00  0.00    +0.000 A 
ATOM      2  N   UNL     1       3.021   6.157  17.435  0.00  0.00    +0.000 NA
ATOM      3  C   UNL     1       2.377   6.854  18.398  0.00  0.00    +0.000 A 
ATOM      4  N   UNL     1       1.999   6.389  19.589  0.00  0.00    +0.000 NA
ATOM      5  C   UNL     1       2.344   5.115  19.792  0.00  0.00    +0.000 A 
ATOM      6  S   UNL     1       2.018   4.409  21.296  0.00  0.00    +0.000 S 
ATOM      7  C   UNL     1       2.695   2.920  20.823  0.00  0.00    +0.000 A 
ATOM      8  C   UNL     1       2.717   1.801  21.812  0.00  0.00    +0.000 C 
ATOM      9  C   UNL     1       3.153   2.943  19.508  0.00  0.00    +0.000 A 
ATOM     10  C   UNL     1       3.740   1.749  18.820  0.00  0.00    +0.000 C 
ATOM     11  C   UNL     1       2.987   4.268  18.905  0.00  0.00    +0.000 A 
ENDROOT
BRANCH   3  12
ATOM     12  C   UNL     1       2.157   8.291  18.210  0.00  0.00    +0.000 A 
ATOM     13  N   UNL     1       2.634   9.143  17.320  0.00  0.00    +0.000 NA
ATOM     14  N   UNL     1       2.222  10.405  17.709  0.00  0.00    +0.000 NA
ATOM     15  C   UNL     1       1.502  10.241  18.798  0.00  0.00    +0.000 A 
ATOM     16  C   UNL     1       0.846  11.249  19.652  0.00  0.00    +0.000 C 
ATOM     17  O   UNL     1       1.396   8.931  19.172  0.00  0.00    +0.000 OA
ENDBRANCH   3  12
BRANCH   1  18
ATOM     18  N   UNL     1       4.053   4.112  16.680  0.00  0.00    +0.000 N 
ATOM     19  H   UNL     1       3.468   3.809  15.914  0.00  0.00    +0.000 HD
BRANCH  18  25
ATOM     20  C   UNL     1       7.730   5.083  13.529  0.00  0.00    +0.000 C 
ATOM     21  C   UNL     1       7.016   4.917  14.814  0.00  0.00    +0.000 C 
ATOM     22  C   UNL     1       7.487   4.939  16.065  0.00  0.00    +0.000 C 
ATOM     23  C   UNL     1       6.367   4.643  16.973  0.00  0.00    +0.000 C 
ATOM     24  O   UNL     1       6.532   4.253  18.122  0.00  0.00    +0.000 OA
ATOM     25  N   UNL     1       5.234   4.715  16.213  0.00  0.00    +0.000 N 
ATOM     26  C   UNL     1       5.576   4.616  14.891  0.00  0.00    +0.000 C 
ATOM     27  O   UNL     1       4.913   4.205  13.951  0.00  0.00    +0.000 OA
ENDBRANCH  18  25
ENDBRANCH   1  18
TORSDOF 3
ENDMDL
MODEL 4
REMARK VINA RESULT:      -7.9      2.421      4.686
REMARK  Name = 
REMARK  7 active torsions:
REMARK  status: ('A' for Active; 'I' for Inactive)
REMARK    1  A    between atoms: C_1  and  C_2
REMARK    2  A    between atoms: N_6  and  N_7
REMARK    3  A    between atoms: N_7  and  C_8
REMARK    4  A    between atoms: C_10  and  C_11
REMARK    5  A    between atoms: C_14  and  C_15
REMARK    6  A    between atoms: C_20  and  C_21
REMARK    7  A    between atoms: C_22  and  C_23
REMARK                            x       y       z     vdW  Elec       q    Type
REMARK                         _______ _______ _______ _____ _____    ______ ____
ROOT
ATOM      1  C   UNL     1       3.965   5.601  18.728  0.00  0.00    +0.000 A 
ATOM      2  N   UNL     1       4.985   5.712  17.828  0.00  0.00    +0.000 NA
ATOM      3  C   UNL     1       5.210   4.708  16.952  0.00  0.00    +0.000 A 
ATOM      4  N   UNL     1       4.517   3.573  16.858  0.00  0.00    +0.000 NA
ATOM      5  C   UNL     1       3.504   3.499  17.725  0.00  0.00    +0.000 A 
ATOM      6  S   UNL     1       2.471   2.159  17.665  0.00  0.00    +0.000 S 
ATOM      7  C   UNL     1       1.522   2.745  18.951  0.00  0.00    +0.000 A 
ATOM      8  C   UNL     1       0.344   1.937  19.392  0.00  0.00    +0.000 C 
ATOM      9  C   UNL     1       1.998   3.953  19.451  0.00  0.00    +0.000 A 
ATOM     10  C   UNL     1       1.385   4.659  20.622  0.00  0.00    +0.000 C 
ATOM     11  C   UNL     1       3.155   4.430  18.689  0.00  0.00    +0.000 A 
ENDROOT
BRANCH   3  12
ATOM     12  C   UNL     1       6.224   4.888  15.909  0.00  0.00    +0.000 A 
ATOM     13  N   UNL     1       7.301   5.651  15.854  0.00  0.00    +0.000 NA
ATOM     14  N   UNL     1       7.804   5.546  14.570  0.00  0.00    +0.000 NA
ATOM     15  C   UNL     1       7.016   4.710  13.930  0.00  0.00    +0.000 A 
ATOM     16  C   UNL     1       7.063   4.260  12.525  0.00  0.00    +0.000 C 
ATOM     17  O   UNL     1       6.002   4.232  14.711  0.00  0.00    +0.000 OA
ENDBRANCH   3  12
BRANCH   1  18
ATOM     18  N   UNL     1       3.676   6.660  19.619  0.00  0.00    +0.000 N 
ATOM     19  H   UNL     1       4.451   7.303  19.717  0.00  0.00    +0.000 HD
BRANCH  18  25
ATOM     20  C   UNL     1       0.663  10.004  17.585  0.00  0.00    +0.000 C 
ATOM     21  C   UNL     1       1.215   9.067  18.588  0.00  0.00    +0.000 C 
ATOM     22  C   UNL     1       0.869   8.877  19.865  0.00  0.00    +0.000 C 
ATOM     23  C   UNL     1       1.788   7.880  20.438  0.00  0.00    +0.000 C 
ATOM     24  O   UNL     1       1.958   7.751  21.644  0.00  0.00    +0.000 OA
ATOM     25  N   UNL     1       2.472   7.345  19.382  0.00  0.00    +0.000 N 
ATOM     26  C   UNL     1       2.362   8.184  18.307  0.00  0.00    +0.000 C 
ATOM     27  O   UNL     1       3.122   8.333  17.363  0.00  0.00    +0.000 OA
ENDBRANCH  18  25
ENDBRANCH   1  18
TORSDOF 3
ENDMDL
MODEL 5
REMARK VINA RESULT:      -7.9      6.112      8.543
REMARK  Name = 
REMARK  7 active torsions:
REMARK  status: ('A' for Active; 'I' for Inactive)
REMARK    1  A    between atoms: C_1  and  C_2
REMARK    2  A    between atoms: N_6  and  N_7
REMARK    3  A    between atoms: N_7  and  C_8
REMARK    4  A    between atoms: C_10  and  C_11
REMARK    5  A    between atoms: C_14  and  C_15
REMARK    6  A    between atoms: C_20  and  C_21
REMARK    7  A    between atoms: C_22  and  C_23
REMARK                            x       y       z     vdW  Elec       q    Type
REMARK                         _______ _______ _______ _____ _____    ______ ____
ROOT
ATOM      1  C   UNL     1      -1.867  11.155  17.692  0.00  0.00    +0.000 A 
ATOM      2  N   UNL     1      -1.957  10.598  16.449  0.00  0.00    +0.000 NA
ATOM      3  C   UNL     1      -3.163  10.517  15.843  0.00  0.00    +0.000 A 
ATOM      4  N   UNL     1      -4.325  10.940  16.341  0.00  0.00    +0.000 NA
ATOM      5  C   UNL     1      -4.209  11.510  17.542  0.00  0.00    +0.000 A 
ATOM      6  S   UNL     1      -5.585  12.183  18.265  0.00  0.00    +0.000 S 
ATOM      7  C   UNL     1      -4.708  12.675  19.639  0.00  0.00    +0.000 A 
ATOM      8  C   UNL     1      -5.434  13.401  20.725  0.00  0.00    +0.000 C 
ATOM      9  C   UNL     1      -3.367  12.310  19.568  0.00  0.00    +0.000 A 
ATOM     10  C   UNL     1      -2.384  12.567  20.669  0.00  0.00    +0.000 C 
ATOM     11  C   UNL     1      -3.056  11.654  18.295  0.00  0.00    +0.000 A 
ENDROOT
BRANCH   3  12
ATOM     12  C   UNL     1      -3.234  10.035  14.461  0.00  0.00    +0.000 A 
ATOM     13  N   UNL     1      -2.292   9.669  13.609  0.00  0.00    +0.000 NA
ATOM     14  N   UNL     1      -2.912   9.458  12.391  0.00  0.00    +0.000 NA
ATOM     15  C   UNL     1      -4.193   9.686  12.581  0.00  0.00    +0.000 A 
ATOM     16  C   UNL     1      -5.310   9.643  11.617  0.00  0.00    +0.000 C 
ATOM     17  O   UNL     1      -4.484  10.038  13.868  0.00  0.00    +0.000 OA
ENDBRANCH   3  12
BRANCH   1  18
ATOM     18  N   UNL     1      -0.610  11.299  18.323  0.00  0.00    +0.000 N 
ATOM     19  H   UNL     1      -0.632  11.973  19.076  0.00  0.00    +0.000 HD
BRANCH  18  25
ATOM     20  C   UNL     1       1.220   7.951  21.460  0.00  0.00    +0.000 C 
ATOM     21  C   UNL     1       1.049   8.736  20.217  0.00  0.00    +0.000 C 
ATOM     22  C   UNL     1       1.803   8.769  19.114  0.00  0.00    +0.000 C 
ATOM     23  C   UNL     1       1.232   9.776  18.207  0.00  0.00    +0.000 C 
ATOM     24  O   UNL     1       1.871  10.284  17.293  0.00  0.00    +0.000 OA
ATOM     25  N   UNL     1       0.010  10.104  18.726  0.00  0.00    +0.000 N 
ATOM     26  C   UNL     1      -0.035   9.718  20.038  0.00  0.00    +0.000 C 
ATOM     27  O   UNL     1      -0.699  10.176  20.955  0.00  0.00    +0.000 OA
ENDBRANCH  18  25
ENDBRANCH   1  18
TORSDOF 3
ENDMDL
MODEL 6
REMARK VINA RESULT:      -7.8      1.284      1.515
REMARK  Name = 
REMARK  7 active torsions:
REMARK  status: ('A' for Active; 'I' for Inactive)
REMARK    1  A    between atoms: C_1  and  C_2
REMARK    2  A    between atoms: N_6  and  N_7
REMARK    3  A    between atoms: N_7  and  C_8
REMARK    4  A    between atoms: C_10  and  C_11
REMARK    5  A    between atoms: C_14  and  C_15
REMARK    6  A    between atoms: C_20  and  C_21
REMARK    7  A    between atoms: C_22  and  C_23
REMARK                            x       y       z     vdW  Elec       q    Type
REMARK                         _______ _______ _______ _____ _____    ______ ____
ROOT
ATOM      1  C   UNL     1       3.001   6.335  19.389  0.00  0.00    +0.000 A 
ATOM      2  N   UNL     1       3.954   5.869  18.530  0.00  0.00    +0.000 NA
ATOM      3  C   UNL     1       4.304   6.613  17.458  0.00  0.00    +0.000 A 
ATOM      4  N   UNL     1       3.806   7.807  17.130  0.00  0.00    +0.000 NA
ATOM      5  C   UNL     1       2.901   8.258  18.001  0.00  0.00    +0.000 A 
ATOM      6  S   UNL     1       2.246   9.803  17.773  0.00  0.00    +0.000 S 
ATOM      7  C   UNL     1       1.270   9.671  19.163  0.00  0.00    +0.000 A 
ATOM      8  C   UNL     1       0.395  10.825  19.531  0.00  0.00    +0.000 C 
ATOM      9  C   UNL     1       1.418   8.441  19.796  0.00  0.00    +0.000 A 
ATOM     10  C   UNL     1       0.634   8.038  21.007  0.00  0.00    +0.000 C 
ATOM     11  C   UNL     1       2.427   7.612  19.130  0.00  0.00    +0.000 A 
ENDROOT
BRANCH   3  12
ATOM     12  C   UNL     1       5.414   6.166  16.611  0.00  0.00    +0.000 A 
ATOM     13  N   UNL     1       6.645   6.623  16.465  0.00  0.00    +0.000 NA
ATOM     14  N   UNL     1       7.212   5.923  15.415  0.00  0.00    +0.000 NA
ATOM     15  C   UNL     1       6.300   5.069  15.003  0.00  0.00    +0.000 A 
ATOM     16  C   UNL     1       6.353   4.099  13.893  0.00  0.00    +0.000 C 
ATOM     17  O   UNL     1       5.139   5.145  15.720  0.00  0.00    +0.000 OA
ENDBRANCH   3  12
BRANCH   1  18
ATOM     18  N   UNL     1       2.657   5.598  20.545  0.00  0.00    +0.000 N 
ATOM     19  H   UNL     1       1.882   6.009  21.048  0.00  0.00    +0.000 HD
BRANCH  18  25
ATOM     20  C   UNL     1       0.607   1.493  18.718  0.00  0.00    +0.000 C 
ATOM     21  C   UNL     1       1.312   2.385  19.664  0.00  0.00    +0.000 C 
ATOM     22  C   UNL     1       1.678   2.171  20.932  0.00  0.00    +0.000 C 
ATOM     23  C   UNL     1       2.280   3.413  21.443  0.00  0.00    +0.000 C 
ATOM     24  O   UNL     1       2.392   3.651  22.639  0.00  0.00    +0.000 OA
ATOM     25  N   UNL     1       2.468   4.219  20.355  0.00  0.00    +0.000 N 
ATOM     26  C   UNL     1       1.683   3.771  19.328  0.00  0.00    +0.000 C 
ATOM     27  O   UNL     1       1.214   4.393  18.387  0.00  0.00    +0.000 OA
ENDBRANCH  18  25
ENDBRANCH   1  18
TORSDOF 3
ENDMDL
MODEL 7
REMARK VINA RESULT:      -7.8      2.141      5.548
REMARK  Name = 
REMARK  7 active torsions:
REMARK  status: ('A' for Active; 'I' for Inactive)
REMARK    1  A    between atoms: C_1  and  C_2
REMARK    2  A    between atoms: N_6  and  N_7
REMARK    3  A    between atoms: N_7  and  C_8
REMARK    4  A    between atoms: C_10  and  C_11
REMARK    5  A    between atoms: C_14  and  C_15
REMARK    6  A    between atoms: C_20  and  C_21
REMARK    7  A    between atoms: C_22  and  C_23
REMARK                            x       y       z     vdW  Elec       q    Type
REMARK                         _______ _______ _______ _____ _____    ______ ____
ROOT
ATOM      1  C   UNL     1       3.107   4.690  17.746  0.00  0.00    +0.000 A 
ATOM      2  N   UNL     1       2.411   5.653  18.417  0.00  0.00    +0.000 NA
ATOM      3  C   UNL     1       2.817   6.940  18.343  0.00  0.00    +0.000 A 
ATOM      4  N   UNL     1       3.864   7.398  17.655  0.00  0.00    +0.000 NA
ATOM      5  C   UNL     1       4.510   6.446  16.980  0.00  0.00    +0.000 A 
ATOM      6  S   UNL     1       5.805   6.885  15.982  0.00  0.00    +0.000 S 
ATOM      7  C   UNL     1       6.076   5.273  15.504  0.00  0.00    +0.000 A 
ATOM      8  C   UNL     1       7.177   4.993  14.534  0.00  0.00    +0.000 C 
ATOM      9  C   UNL     1       5.197   4.386  16.119  0.00  0.00    +0.000 A 
ATOM     10  C   UNL     1       5.254   2.902  15.923  0.00  0.00    +0.000 C 
ATOM     11  C   UNL     1       4.230   5.089  16.966  0.00  0.00    +0.000 A 
ENDROOT
BRANCH   3  12
ATOM     12  C   UNL     1       1.994   7.983  18.962  0.00  0.00    +0.000 A 
ATOM     13  N   UNL     1       1.532   9.129  18.495  0.00  0.00    +0.000 NA
ATOM     14  N   UNL     1       0.949   9.792  19.559  0.00  0.00    +0.000 NA
ATOM     15  C   UNL     1       1.071   9.000  20.602  0.00  0.00    +0.000 A 
ATOM     16  C   UNL     1       0.657   9.216  22.002  0.00  0.00    +0.000 C 
ATOM     17  O   UNL     1       1.704   7.826  20.306  0.00  0.00    +0.000 OA
ENDBRANCH   3  12
BRANCH   1  18
ATOM     18  N   UNL     1       2.671   3.345  17.766  0.00  0.00    +0.000 N 
ATOM     19  H   UNL     1       3.149   2.775  17.081  0.00  0.00    +0.000 HD
BRANCH  18  25
ATOM     20  C   UNL     1       1.128   2.400  22.361  0.00  0.00    +0.000 C 
ATOM     21  C   UNL     1       2.046   2.530  21.209  0.00  0.00    +0.000 C 
ATOM     22  C   UNL     1       3.379   2.435  21.160  0.00  0.00    +0.000 C 
ATOM     23  C   UNL     1       3.801   2.725  19.781  0.00  0.00    +0.000 C 
ATOM     24  O   UNL     1       4.945   3.057  19.494  0.00  0.00    +0.000 OA
ATOM     25  N   UNL     1       2.661   2.726  19.028  0.00  0.00    +0.000 N 
ATOM     26  C   UNL     1       1.580   2.875  19.854  0.00  0.00    +0.000 C 
ATOM     27  O   UNL     1       0.482   3.350  19.611  0.00  0.00    +0.000 OA
ENDBRANCH  18  25
ENDBRANCH   1  18
TORSDOF 3
ENDMDL
MODEL 8
REMARK VINA RESULT:      -7.6      2.224      5.471
REMARK  Name = 
REMARK  7 active torsions:
REMARK  status: ('A' for Active; 'I' for Inactive)
REMARK    1  A    between atoms: C_1  and  C_2
REMARK    2  A    between atoms: N_6  and  N_7
REMARK    3  A    between atoms: N_7  and  C_8
REMARK    4  A    between atoms: C_10  and  C_11
REMARK    5  A    between atoms: C_14  and  C_15
REMARK    6  A    between atoms: C_20  and  C_21
REMARK    7  A    between atoms: C_22  and  C_23
REMARK                            x       y       z     vdW  Elec       q    Type
REMARK                         _______ _______ _______ _____ _____    ______ ____
ROOT
ATOM      1  C   UNL     1       3.093   4.723  17.787  0.00  0.00    +0.000 A 
ATOM      2  N   UNL     1       2.420   5.685  18.483  0.00  0.00    +0.000 NA
ATOM      3  C   UNL     1       2.844   6.967  18.426  0.00  0.00    +0.000 A 
ATOM      4  N   UNL     1       3.888   7.422  17.732  0.00  0.00    +0.000 NA
ATOM      5  C   UNL     1       4.511   6.471  17.033  0.00  0.00    +0.000 A 
ATOM      6  S   UNL     1       5.801   6.909  16.026  0.00  0.00    +0.000 S 
ATOM      7  C   UNL     1       6.041   5.301  15.517  0.00  0.00    +0.000 A 
ATOM      8  C   UNL     1       7.126   5.022  14.528  0.00  0.00    +0.000 C 
ATOM      9  C   UNL     1       5.158   4.417  16.129  0.00  0.00    +0.000 A 
ATOM     10  C   UNL     1       5.190   2.936  15.907  0.00  0.00    +0.000 C 
ATOM     11  C   UNL     1       4.211   5.120  17.000  0.00  0.00    +0.000 A 
ENDROOT
BRANCH   3  12
ATOM     12  C   UNL     1       2.043   8.011  19.072  0.00  0.00    +0.000 A 
ATOM     13  N   UNL     1       1.642   8.161  20.322  0.00  0.00    +0.000 NA
ATOM     14  N   UNL     1       0.778   9.241  20.340  0.00  0.00    +0.000 NA
ATOM     15  C   UNL     1       0.725   9.695  19.107  0.00  0.00    +0.000 A 
ATOM     16  C   UNL     1      -0.065  10.809  18.547  0.00  0.00    +0.000 C 
ATOM     17  O   UNL     1       1.511   8.984  18.245  0.00  0.00    +0.000 OA
ENDBRANCH   3  12
BRANCH   1  18
ATOM     18  N   UNL     1       2.637   3.385  17.790  0.00  0.00    +0.000 N 
ATOM     19  H   UNL     1       3.099   2.819  17.090  0.00  0.00    +0.000 HD
BRANCH  18  25
ATOM     20  C   UNL     1       1.123   2.373  22.381  0.00  0.00    +0.000 C 
ATOM     21  C   UNL     1       2.034   2.517  21.224  0.00  0.00    +0.000 C 
ATOM     22  C   UNL     1       3.365   2.415  21.163  0.00  0.00    +0.000 C 
ATOM     23  C   UNL     1       3.779   2.726  19.786  0.00  0.00    +0.000 C 
ATOM     24  O   UNL     1       4.923   3.055  19.496  0.00  0.00    +0.000 OA
ATOM     25  N   UNL     1       2.633   2.746  19.041  0.00  0.00    +0.000 N 
ATOM     26  C   UNL     1       1.559   2.886  19.878  0.00  0.00    +0.000 C 
ATOM     27  O   UNL     1       0.462   3.371  19.651  0.00  0.00    +0.000 OA
ENDBRANCH  18  25
ENDBRANCH   1  18
TORSDOF 3
ENDMDL
MODEL 9
REMARK VINA RESULT:      -7.6      2.465      6.015
REMARK  Name = 
REMARK  7 active torsions:
REMARK  status: ('A' for Active; 'I' for Inactive)
REMARK    1  A    between atoms: C_1  and  C_2
REMARK    2  A    between atoms: N_6  and  N_7
REMARK    3  A    between atoms: N_7  and  C_8
REMARK    4  A    between atoms: C_10  and  C_11
REMARK    5  A    between atoms: C_14  and  C_15
REMARK    6  A    between atoms: C_20  and  C_21
REMARK    7  A    between atoms: C_22  and  C_23
REMARK                            x       y       z     vdW  Elec       q    Type
REMARK                         _______ _______ _______ _____ _____    ______ ____
ROOT
ATOM      1  C   UNL     1       3.943   4.944  18.163  0.00  0.00    +0.000 A 
ATOM      2  N   UNL     1       3.539   6.209  17.847  0.00  0.00    +0.000 NA
ATOM      3  C   UNL     1       2.526   6.775  18.539  0.00  0.00    +0.000 A 
ATOM      4  N   UNL     1       1.848   6.217  19.543  0.00  0.00    +0.000 NA
ATOM      5  C   UNL     1       2.281   4.995  19.857  0.00  0.00    +0.000 A 
ATOM      6  S   UNL     1       1.583   4.193  21.175  0.00  0.00    +0.000 S 
ATOM      7  C   UNL     1       2.578   2.828  20.962  0.00  0.00    +0.000 A 
ATOM      8  C   UNL     1       2.431   1.683  21.911  0.00  0.00    +0.000 C 
ATOM      9  C   UNL     1       3.432   2.962  19.871  0.00  0.00    +0.000 A 
ATOM     10  C   UNL     1       4.372   1.885  19.423  0.00  0.00    +0.000 C 
ATOM     11  C   UNL     1       3.290   4.276  19.237  0.00  0.00    +0.000 A 
ENDROOT
BRANCH   3  12
ATOM     12  C   UNL     1       2.182   8.176  18.279  0.00  0.00    +0.000 A 
ATOM     13  N   UNL     1       2.537   9.002  17.311  0.00  0.00    +0.000 NA
ATOM     14  N   UNL     1       2.049  10.251  17.649  0.00  0.00    +0.000 NA
ATOM     15  C   UNL     1       1.409  10.105  18.788  0.00  0.00    +0.000 A 
ATOM     16  C   UNL     1       0.724  11.113  19.620  0.00  0.00    +0.000 C 
ATOM     17  O   UNL     1       1.429   8.818  19.247  0.00  0.00    +0.000 OA
ENDBRANCH   3  12
BRANCH   1  18
ATOM     18  N   UNL     1       5.035   4.351  17.488  0.00  0.00    +0.000 N 
ATOM     19  H   UNL     1       4.773   3.974  16.587  0.00  0.00    +0.000 HD
BRANCH  18  25
ATOM     20  C   UNL     1       8.543   7.488  18.987  0.00  0.00    +0.000 C 
ATOM     21  C   UNL     1       7.622   6.774  18.076  0.00  0.00    +0.000 C 
ATOM     22  C   UNL     1       7.353   6.994  16.785  0.00  0.00    +0.000 C 
ATOM     23  C   UNL     1       6.304   6.046  16.376  0.00  0.00    +0.000 C 
ATOM     24  O   UNL     1       5.607   6.218  15.383  0.00  0.00    +0.000 OA
ATOM     25  N   UNL     1       6.194   5.141  17.393  0.00  0.00    +0.000 N 
ATOM     26  C   UNL     1       6.757   5.668  18.523  0.00  0.00    +0.000 C 
ATOM     27  O   UNL     1       6.508   5.428  19.694  0.00  0.00    +0.000 OA
ENDBRANCH  18  25
ENDBRANCH   1  18
TORSDOF 3
ENDMDL
