MODEL 1
REMARK VINA RESULT:      -7.1      0.000      0.000
REMARK  Name = 
REMARK  8 active torsions:
REMARK  status: ('A' for Active; 'I' for Inactive)
REMARK    1  A    between atoms: C_1  and  C_2
REMARK    2  A    between atoms: C_2  and  C_3
REMARK    3  A    between atoms: C_2  and  C_4
REMARK    4  A    between atoms: C_2  and  O_5
REMARK    5  A    between atoms: O_5  and  C_6
REMARK    6  A    between atoms: N_11  and  C_12
REMARK    7  A    between atoms: C_12  and  C_13
REMARK    8  A    between atoms: C_22  and  O_23
REMARK                            x       y       z     vdW  Elec       q    Type
REMARK                         _______ _______ _______ _____ _____    ______ ____
ROOT
ATOM      1  C   UNL     1       1.000   9.219  19.735  0.00  0.00    +0.000 C 
ENDROOT
BRANCH   1   2
ATOM      2  C   UNL     1       2.019   8.274  19.134  0.00  0.00    +0.000 A 
ATOM      3  C   UNL     1       2.646   8.582  17.944  0.00  0.00    +0.000 A 
ATOM      4  C   UNL     1       3.482   7.629  17.376  0.00  0.00    +0.000 A 
ATOM      5  C   UNL     1       3.677   6.373  17.994  0.00  0.00    +0.000 A 
ATOM      6  C   UNL     1       4.463   5.331  17.439  0.00  0.00    +0.000 A 
ATOM      7 BR   UNL     1       5.329   5.496  15.748  0.00  0.00    +0.000 Br
ATOM      8  C   UNL     1       4.620   4.111  18.095  0.00  0.00    +0.000 A 
ATOM      9  C   UNL     1       4.008   3.920  19.325  0.00  0.00    +0.000 A 
ATOM     10 BR   UNL     1       4.234   2.256  20.206  0.00  0.00    +0.000 Br
ATOM     11  C   UNL     1       3.228   4.934  19.886  0.00  0.00    +0.000 A 
ATOM     12  C   UNL     1       3.033   6.161  19.234  0.00  0.00    +0.000 A 
ATOM     13  N   UNL     1       2.228   7.102  19.782  0.00  0.00    +0.000 NA
BRANCH  11  14
ATOM     14  O   UNL     1       2.622   4.732  21.109  0.00  0.00    +0.000 OA
ATOM     15  H   UNL     1       1.674   4.576  20.958  0.00  0.00    +0.000 HD
ENDBRANCH  11  14
ENDBRANCH   1   2
BRANCH   1  21
ATOM     16  C   UNL     1      -2.316  12.787  20.735  0.00  0.00    +0.000 C 
ATOM     17  O   UNL     1      -3.413  12.729  20.182  0.00  0.00    +0.000 OA
ATOM     18  N   UNL     1      -1.311  11.894  20.449  0.00  0.00    +0.000 N 
ATOM     19  C   UNL     1      -1.543  10.892  19.412  0.00  0.00    +0.000 C 
ATOM     20  C   UNL     1      -0.332  10.789  18.464  0.00  0.00    +0.000 C 
ATOM     21  N   UNL     1       0.966  10.578  19.151  0.00  0.00    +0.000 NA
ATOM     22  C   UNL     1       1.133  11.642  20.175  0.00  0.00    +0.000 C 
ATOM     23  C   UNL     1      -0.041  11.791  21.165  0.00  0.00    +0.000 C 
BRANCH  16  24
ATOM     24  O   UNL     1      -1.969  13.748  21.638  0.00  0.00    +0.000 OA
BRANCH  24  26
ATOM     25  C   UNL     1      -2.965  12.319  23.374  0.00  0.00    +0.000 C 
ATOM     26  C   UNL     1      -2.631  13.750  22.931  0.00  0.00    +0.000 C 
ATOM     27  C   UNL     1      -3.863  14.670  22.921  0.00  0.00    +0.000 C 
ATOM     28  C   UNL     1      -1.628  14.329  23.944  0.00  0.00    +0.000 C 
ENDBRANCH  24  26
ENDBRANCH  16  24
ENDBRANCH   1  21
TORSDOF 5
ENDMDL
MODEL 2
REMARK VINA RESULT:      -7.0      1.297      1.679
REMARK  Name = 
REMARK  8 active torsions:
REMARK  status: ('A' for Active; 'I' for Inactive)
REMARK    1  A    between atoms: C_1  and  C_2
REMARK    2  A    between atoms: C_2  and  C_3
REMARK    3  A    between atoms: C_2  and  C_4
REMARK    4  A    between atoms: C_2  and  O_5
REMARK    5  A    between atoms: O_5  and  C_6
REMARK    6  A    between atoms: N_11  and  C_12
REMARK    7  A    between atoms: C_12  and  C_13
REMARK    8  A    between atoms: C_22  and  O_23
REMARK                            x       y       z     vdW  Elec       q    Type
REMARK                         _______ _______ _______ _____ _____    ______ ____
ROOT
ATOM      1  C   UNL     1       0.527   9.329  20.424  0.00  0.00    +0.000 C 
ENDROOT
BRANCH   1   2
ATOM      2  C   UNL     1       1.570   8.511  19.691  0.00  0.00    +0.000 A 
ATOM      3  C   UNL     1       2.136   8.981  18.523  0.00  0.00    +0.000 A 
ATOM      4  C   UNL     1       2.996   8.141  17.827  0.00  0.00    +0.000 A 
ATOM      5  C   UNL     1       3.277   6.838  18.296  0.00  0.00    +0.000 A 
ATOM      6  C   UNL     1       4.094   5.907  17.604  0.00  0.00    +0.000 A 
ATOM      7 BR   UNL     1       4.887   6.301  15.916  0.00  0.00    +0.000 Br
ATOM      8  C   UNL     1       4.337   4.633  18.117  0.00  0.00    +0.000 A 
ATOM      9  C   UNL     1       3.781   4.276  19.336  0.00  0.00    +0.000 A 
ATOM     10 BR   UNL     1       4.123   2.541  20.021  0.00  0.00    +0.000 Br
ATOM     11  C   UNL     1       2.972   5.180  20.031  0.00  0.00    +0.000 A 
ATOM     12  C   UNL     1       2.692   6.458  19.525  0.00  0.00    +0.000 A 
ATOM     13  N   UNL     1       1.861   7.289  20.198  0.00  0.00    +0.000 NA
BRANCH  11  14
ATOM     14  O   UNL     1       2.423   4.814  21.242  0.00  0.00    +0.000 OA
ATOM     15  H   UNL     1       2.762   5.418  21.926  0.00  0.00    +0.000 HD
ENDBRANCH  11  14
ENDBRANCH   1   2
BRANCH   1  21
ATOM     16  C   UNL     1      -1.810  13.267  22.362  0.00  0.00    +0.000 C 
ATOM     17  O   UNL     1      -1.798  14.319  21.723  0.00  0.00    +0.000 OA
ATOM     18  N   UNL     1      -1.116  12.157  21.943  0.00  0.00    +0.000 N 
ATOM     19  C   UNL     1      -0.295  12.260  20.740  0.00  0.00    +0.000 C 
ATOM     20  C   UNL     1       1.090  11.620  20.961  0.00  0.00    +0.000 C 
ATOM     21  N   UNL     1       1.045  10.229  21.478  0.00  0.00    +0.000 NA
ATOM     22  C   UNL     1       0.207  10.212  22.705  0.00  0.00    +0.000 C 
ATOM     23  C   UNL     1      -1.198  10.830  22.549  0.00  0.00    +0.000 C 
BRANCH  16  24
ATOM     24  O   UNL     1      -2.460  13.105  23.548  0.00  0.00    +0.000 OA
BRANCH  24  26
ATOM     25  C   UNL     1      -4.531  12.779  22.263  0.00  0.00    +0.000 C 
ATOM     26  C   UNL     1      -3.903  13.274  23.573  0.00  0.00    +0.000 C 
ATOM     27  C   UNL     1      -4.285  14.727  23.902  0.00  0.00    +0.000 C 
ATOM     28  C   UNL     1      -4.437  12.385  24.710  0.00  0.00    +0.000 C 
ENDBRANCH  24  26
ENDBRANCH  16  24
ENDBRANCH   1  21
TORSDOF 5
ENDMDL
MODEL 3
REMARK VINA RESULT:      -6.7      0.771      1.062
REMARK  Name = 
REMARK  8 active torsions:
REMARK  status: ('A' for Active; 'I' for Inactive)
REMARK    1  A    between atoms: C_1  and  C_2
REMARK    2  A    between atoms: C_2  and  C_3
REMARK    3  A    between atoms: C_2  and  C_4
REMARK    4  A    between atoms: C_2  and  O_5
REMARK    5  A    between atoms: O_5  and  C_6
REMARK    6  A    between atoms: N_11  and  C_12
REMARK    7  A    between atoms: C_12  and  C_13
REMARK    8  A    between atoms: C_22  and  O_23
REMARK                            x       y       z     vdW  Elec       q    Type
REMARK                         _______ _______ _______ _____ _____    ______ ____
ROOT
ATOM      1  C   UNL     1       0.737   9.175  19.820  0.00  0.00    +0.000 C 
ENDROOT
BRANCH   1   2
ATOM      2  C   UNL     1       1.812   8.305  19.203  0.00  0.00    +0.000 A 
ATOM      3  C   UNL     1       2.431   8.680  18.028  0.00  0.00    +0.000 A 
ATOM      4  C   UNL     1       3.323   7.790  17.443  0.00  0.00    +0.000 A 
ATOM      5  C   UNL     1       3.582   6.531  18.029  0.00  0.00    +0.000 A 
ATOM      6  C   UNL     1       4.430   5.550  17.453  0.00  0.00    +0.000 A 
ATOM      7 BR   UNL     1       5.299   5.809  15.775  0.00  0.00    +0.000 Br
ATOM      8  C   UNL     1       4.649   4.322  18.078  0.00  0.00    +0.000 A 
ATOM      9  C   UNL     1       4.039   4.064  19.295  0.00  0.00    +0.000 A 
ATOM     10 BR   UNL     1       4.350   2.391  20.133  0.00  0.00    +0.000 Br
ATOM     11  C   UNL     1       3.199   5.017  19.877  0.00  0.00    +0.000 A 
ATOM     12  C   UNL     1       2.941   6.250  19.257  0.00  0.00    +0.000 A 
ATOM     13  N   UNL     1       2.081   7.129  19.821  0.00  0.00    +0.000 NA
BRANCH  11  14
ATOM     14  O   UNL     1       2.595   4.749  21.088  0.00  0.00    +0.000 OA
ATOM     15  H   UNL     1       2.088   5.534  21.357  0.00  0.00    +0.000 HD
ENDBRANCH  11  14
ENDBRANCH   1   2
BRANCH   1  21
ATOM     16  C   UNL     1      -2.451  12.781  21.070  0.00  0.00    +0.000 C 
ATOM     17  O   UNL     1      -3.300  13.115  20.244  0.00  0.00    +0.000 OA
ATOM     18  N   UNL     1      -1.477  11.857  20.776  0.00  0.00    +0.000 N 
ATOM     19  C   UNL     1      -1.420  11.310  19.423  0.00  0.00    +0.000 C 
ATOM     20  C   UNL     1       0.029  11.296  18.895  0.00  0.00    +0.000 C 
ATOM     21  N   UNL     1       1.002  10.631  19.797  0.00  0.00    +0.000 NA
ATOM     22  C   UNL     1       0.892  11.251  21.143  0.00  0.00    +0.000 C 
ATOM     23  C   UNL     1      -0.532  11.288  21.735  0.00  0.00    +0.000 C 
BRANCH  16  24
ATOM     24  O   UNL     1      -2.358  13.311  22.322  0.00  0.00    +0.000 OA
BRANCH  24  26
ATOM     25  C   UNL     1      -3.064  15.658  22.516  0.00  0.00    +0.000 C 
ATOM     26  C   UNL     1      -1.885  14.678  22.460  0.00  0.00    +0.000 C 
ATOM     27  C   UNL     1      -0.874  15.028  21.355  0.00  0.00    +0.000 C 
ATOM     28  C   UNL     1      -1.146  14.760  23.807  0.00  0.00    +0.000 C 
ENDBRANCH  24  26
ENDBRANCH  16  24
ENDBRANCH   1  21
TORSDOF 5
ENDMDL
MODEL 4
REMARK VINA RESULT:      -6.7      2.053      3.185
REMARK  Name = 
REMARK  8 active torsions:
REMARK  status: ('A' for Active; 'I' for Inactive)
REMARK    1  A    between atoms: C_1  and  C_2
REMARK    2  A    between atoms: C_2  and  C_3
REMARK    3  A    between atoms: C_2  and  C_4
REMARK    4  A    between atoms: C_2  and  O_5
REMARK    5  A    between atoms: O_5  and  C_6
REMARK    6  A    between atoms: N_11  and  C_12
REMARK    7  A    between atoms: C_12  and  C_13
REMARK    8  A    between atoms: C_22  and  O_23
REMARK                            x       y       z     vdW  Elec       q    Type
REMARK                         _______ _______ _______ _____ _____    ______ ____
ROOT
ATOM      1  C   UNL     1       1.718   8.264  20.541  0.00  0.00    +0.000 C 
ENDROOT
BRANCH   1   2
ATOM      2  C   UNL     1       2.108   6.958  19.881  0.00  0.00    +0.000 A 
ATOM      3  C   UNL     1       1.707   5.753  20.419  0.00  0.00    +0.000 A 
ATOM      4  C   UNL     1       2.191   4.585  19.844  0.00  0.00    +0.000 A 
ATOM      5  C   UNL     1       3.078   4.628  18.745  0.00  0.00    +0.000 A 
ATOM      6  C   UNL     1       3.660   3.479  18.152  0.00  0.00    +0.000 A 
ATOM      7 BR   UNL     1       3.337   1.717  18.805  0.00  0.00    +0.000 Br
ATOM      8  C   UNL     1       4.530   3.584  17.067  0.00  0.00    +0.000 A 
ATOM      9  C   UNL     1       4.818   4.837  16.548  0.00  0.00    +0.000 A 
ATOM     10 BR   UNL     1       6.001   4.962  15.071  0.00  0.00    +0.000 Br
ATOM     11  C   UNL     1       4.256   5.981  17.121  0.00  0.00    +0.000 A 
ATOM     12  C   UNL     1       3.397   5.905  18.229  0.00  0.00    +0.000 A 
ATOM     13  N   UNL     1       2.912   7.036  18.792  0.00  0.00    +0.000 NA
BRANCH  11  14
ATOM     14  O   UNL     1       4.550   7.223  16.598  0.00  0.00    +0.000 OA
ATOM     15  H   UNL     1       3.892   7.429  15.912  0.00  0.00    +0.000 HD
ENDBRANCH  11  14
ENDBRANCH   1   2
BRANCH   1  21
ATOM     16  C   UNL     1      -0.356  12.471  22.193  0.00  0.00    +0.000 C 
ATOM     17  O   UNL     1      -0.988  12.429  23.249  0.00  0.00    +0.000 OA
ATOM     18  N   UNL     1       0.174  11.340  21.620  0.00  0.00    +0.000 N 
ATOM     19  C   UNL     1      -0.082  10.050  22.256  0.00  0.00    +0.000 C 
ATOM     20  C   UNL     1      -0.490   8.992  21.212  0.00  0.00    +0.000 C 
ATOM     21  N   UNL     1       0.449   8.864  20.070  0.00  0.00    +0.000 NA
ATOM     22  C   UNL     1       0.644  10.211  19.471  0.00  0.00    +0.000 C 
ATOM     23  C   UNL     1       1.065  11.316  20.462  0.00  0.00    +0.000 C 
BRANCH  16  24
ATOM     24  O   UNL     1      -0.155  13.610  21.473  0.00  0.00    +0.000 OA
BRANCH  24  26
ATOM     25  C   UNL     1      -2.008  15.217  21.636  0.00  0.00    +0.000 C 
ATOM     26  C   UNL     1      -1.284  14.185  20.762  0.00  0.00    +0.000 C 
ATOM     27  C   UNL     1      -2.224  13.088  20.236  0.00  0.00    +0.000 C 
ATOM     28  C   UNL     1      -0.711  14.929  19.543  0.00  0.00    +0.000 C 
ENDBRANCH  24  26
ENDBRANCH  16  24
ENDBRANCH   1  21
TORSDOF 5
ENDMDL
MODEL 5
REMARK VINA RESULT:      -6.6      2.170      3.400
REMARK  Name = 
REMARK  8 active torsions:
REMARK  status: ('A' for Active; 'I' for Inactive)
REMARK    1  A    between atoms: C_1  and  C_2
REMARK    2  A    between atoms: C_2  and  C_3
REMARK    3  A    between atoms: C_2  and  C_4
REMARK    4  A    between atoms: C_2  and  O_5
REMARK    5  A    between atoms: O_5  and  C_6
REMARK    6  A    between atoms: N_11  and  C_12
REMARK    7  A    between atoms: C_12  and  C_13
REMARK    8  A    between atoms: C_22  and  O_23
REMARK                            x       y       z     vdW  Elec       q    Type
REMARK                         _______ _______ _______ _____ _____    ______ ____
ROOT
ATOM      1  C   UNL     1       1.593   8.092  20.835  0.00  0.00    +0.000 C 
ENDROOT
BRANCH   1   2
ATOM      2  C   UNL     1       2.011   6.831  20.106  0.00  0.00    +0.000 A 
ATOM      3  C   UNL     1       1.658   5.589  20.593  0.00  0.00    +0.000 A 
ATOM      4  C   UNL     1       2.167   4.466  19.955  0.00  0.00    +0.000 A 
ATOM      5  C   UNL     1       3.031   4.589  18.843  0.00  0.00    +0.000 A 
ATOM      6  C   UNL     1       3.637   3.489  18.185  0.00  0.00    +0.000 A 
ATOM      7 BR   UNL     1       3.381   1.689  18.760  0.00  0.00    +0.000 Br
ATOM      8  C   UNL     1       4.481   3.673  17.091  0.00  0.00    +0.000 A 
ATOM      9  C   UNL     1       4.720   4.957  16.628  0.00  0.00    +0.000 A 
ATOM     10 BR   UNL     1       5.869   5.190  15.137  0.00  0.00    +0.000 Br
ATOM     11  C   UNL     1       4.133   6.054  17.265  0.00  0.00    +0.000 A 
ATOM     12  C   UNL     1       3.300   5.898  18.383  0.00  0.00    +0.000 A 
ATOM     13  N   UNL     1       2.791   6.985  19.009  0.00  0.00    +0.000 NA
BRANCH  11  14
ATOM     14  O   UNL     1       4.379   7.328  16.797  0.00  0.00    +0.000 OA
ATOM     15  H   UNL     1       3.924   7.960  17.379  0.00  0.00    +0.000 HD
ENDBRANCH  11  14
ENDBRANCH   1   2
BRANCH   1  21
ATOM     16  C   UNL     1      -0.398  12.484  22.046  0.00  0.00    +0.000 C 
ATOM     17  O   UNL     1      -0.696  12.680  23.224  0.00  0.00    +0.000 OA
ATOM     18  N   UNL     1       0.074  11.270  21.609  0.00  0.00    +0.000 N 
ATOM     19  C   UNL     1       0.160  10.170  22.566  0.00  0.00    +0.000 C 
ATOM     20  C   UNL     1      -0.402   8.868  21.961  0.00  0.00    +0.000 C 
ATOM     21  N   UNL     1       0.183   8.500  20.648  0.00  0.00    +0.000 NA
ATOM     22  C   UNL     1       0.043   9.662  19.731  0.00  0.00    +0.000 C 
ATOM     23  C   UNL     1       0.597  10.996  20.273  0.00  0.00    +0.000 C 
BRANCH  16  24
ATOM     24  O   UNL     1      -0.542  13.415  21.061  0.00  0.00    +0.000 OA
BRANCH  24  26
ATOM     25  C   UNL     1       1.697  14.350  21.457  0.00  0.00    +0.000 C 
ATOM     26  C   UNL     1       0.222  14.647  21.159  0.00  0.00    +0.000 C 
ATOM     27  C   UNL     1      -0.409  15.609  22.179  0.00  0.00    +0.000 C 
ATOM     28  C   UNL     1       0.153  15.325  19.779  0.00  0.00    +0.000 C 
ENDBRANCH  24  26
ENDBRANCH  16  24
ENDBRANCH   1  21
TORSDOF 5
ENDMDL
MODEL 6
REMARK VINA RESULT:      -6.6      2.838      4.189
REMARK  Name = 
REMARK  8 active torsions:
REMARK  status: ('A' for Active; 'I' for Inactive)
REMARK    1  A    between atoms: C_1  and  C_2
REMARK    2  A    between atoms: C_2  and  C_3
REMARK    3  A    between atoms: C_2  and  C_4
REMARK    4  A    between atoms: C_2  and  O_5
REMARK    5  A    between atoms: O_5  and  C_6
REMARK    6  A    between atoms: N_11  and  C_12
REMARK    7  A    between atoms: C_12  and  C_13
REMARK    8  A    between atoms: C_22  and  O_23
REMARK                            x       y       z     vdW  Elec       q    Type
REMARK                         _______ _______ _______ _____ _____    ______ ____
ROOT
ATOM      1  C   UNL     1       1.905   8.529  19.846  0.00  0.00    +0.000 C 
ENDROOT
BRANCH   1   2
ATOM      2  C   UNL     1       2.289   7.160  19.326  0.00  0.00    +0.000 A 
ATOM      3  C   UNL     1       1.847   6.018  19.962  0.00  0.00    +0.000 A 
ATOM      4  C   UNL     1       2.326   4.792  19.517  0.00  0.00    +0.000 A 
ATOM      5  C   UNL     1       3.248   4.716  18.449  0.00  0.00    +0.000 A 
ATOM      6  C   UNL     1       3.826   3.506  17.988  0.00  0.00    +0.000 A 
ATOM      7 BR   UNL     1       3.446   1.820  18.794  0.00  0.00    +0.000 Br
ATOM      8  C   UNL     1       4.732   3.492  16.927  0.00  0.00    +0.000 A 
ATOM      9  C   UNL     1       5.061   4.685  16.302  0.00  0.00    +0.000 A 
ATOM     10 BR   UNL     1       6.292   4.648  14.860  0.00  0.00    +0.000 Br
ATOM     11  C   UNL     1       4.504   5.887  16.745  0.00  0.00    +0.000 A 
ATOM     12  C   UNL     1       3.609   5.932  17.826  0.00  0.00    +0.000 A 
ATOM     13  N   UNL     1       3.129   7.119  18.263  0.00  0.00    +0.000 NA
BRANCH  11  14
ATOM     14  O   UNL     1       4.840   7.069  16.117  0.00  0.00    +0.000 OA
ATOM     15  H   UNL     1       4.095   7.687  16.212  0.00  0.00    +0.000 HD
ENDBRANCH  11  14
ENDBRANCH   1   2
BRANCH   1  21
ATOM     16  C   UNL     1       1.034  13.424  19.728  0.00  0.00    +0.000 C 
ATOM     17  O   UNL     1       0.444  13.930  20.681  0.00  0.00    +0.000 OA
ATOM     18  N   UNL     1       1.238  12.068  19.638  0.00  0.00    +0.000 N 
ATOM     19  C   UNL     1       0.677  11.207  20.676  0.00  0.00    +0.000 C 
ATOM     20  C   UNL     1      -0.020   9.979  20.058  0.00  0.00    +0.000 C 
ATOM     21  N   UNL     1       0.821   9.213  19.105  0.00  0.00    +0.000 NA
ATOM     22  C   UNL     1       1.339  10.153  18.077  0.00  0.00    +0.000 C 
ATOM     23  C   UNL     1       2.059  11.400  18.630  0.00  0.00    +0.000 C 
BRANCH  16  24
ATOM     24  O   UNL     1       1.502  14.131  18.661  0.00  0.00    +0.000 OA
BRANCH  24  26
ATOM     25  C   UNL     1       3.511  14.634  19.986  0.00  0.00    +0.000 C 
ATOM     26  C   UNL     1       2.551  15.111  18.889  0.00  0.00    +0.000 C 
ATOM     27  C   UNL     1       1.957  16.499  19.182  0.00  0.00    +0.000 C 
ATOM     28  C   UNL     1       3.353  15.216  17.580  0.00  0.00    +0.000 C 
ENDBRANCH  24  26
ENDBRANCH  16  24
ENDBRANCH   1  21
TORSDOF 5
ENDMDL
MODEL 7
REMARK VINA RESULT:      -6.5      2.158      3.011
REMARK  Name = 
REMARK  8 active torsions:
REMARK  status: ('A' for Active; 'I' for Inactive)
REMARK    1  A    between atoms: C_1  and  C_2
REMARK    2  A    between atoms: C_2  and  C_3
REMARK    3  A    between atoms: C_2  and  C_4
REMARK    4  A    between atoms: C_2  and  O_5
REMARK    5  A    between atoms: O_5  and  C_6
REMARK    6  A    between atoms: N_11  and  C_12
REMARK    7  A    between atoms: C_12  and  C_13
REMARK    8  A    between atoms: C_22  and  O_23
REMARK                            x       y       z     vdW  Elec       q    Type
REMARK                         _______ _______ _______ _____ _____    ______ ____
ROOT
ATOM      1  C   UNL     1       2.048   8.805  19.119  0.00  0.00    +0.000 C 
ENDROOT
BRANCH   1   2
ATOM      2  C   UNL     1       2.440   7.405  18.697  0.00  0.00    +0.000 A 
ATOM      3  C   UNL     1       1.911   6.304  19.339  0.00  0.00    +0.000 A 
ATOM      4  C   UNL     1       2.394   5.048  18.995  0.00  0.00    +0.000 A 
ATOM      5  C   UNL     1       3.408   4.901  18.021  0.00  0.00    +0.000 A 
ATOM      6  C   UNL     1       3.992   3.658  17.668  0.00  0.00    +0.000 A 
ATOM      7 BR   UNL     1       3.495   2.021  18.509  0.00  0.00    +0.000 Br
ATOM      8  C   UNL     1       4.990   3.574  16.697  0.00  0.00    +0.000 A 
ATOM      9  C   UNL     1       5.408   4.729  16.054  0.00  0.00    +0.000 A 
ATOM     10 BR   UNL     1       6.764   4.598  14.735  0.00  0.00    +0.000 Br
ATOM     11  C   UNL     1       4.845   5.963  16.391  0.00  0.00    +0.000 A 
ATOM     12  C   UNL     1       3.858   6.079  17.381  0.00  0.00    +0.000 A 
ATOM     13  N   UNL     1       3.372   7.296  17.719  0.00  0.00    +0.000 NA
BRANCH  11  14
ATOM     14  O   UNL     1       5.269   7.107  15.745  0.00  0.00    +0.000 OA
ATOM     15  H   UNL     1       4.549   7.760  15.778  0.00  0.00    +0.000 HD
ENDBRANCH  11  14
ENDBRANCH   1   2
BRANCH   1  21
ATOM     16  C   UNL     1      -1.044  12.673  19.577  0.00  0.00    +0.000 C 
ATOM     17  O   UNL     1      -2.251  12.444  19.648  0.00  0.00    +0.000 OA
ATOM     18  N   UNL     1      -0.128  11.672  19.361  0.00  0.00    +0.000 N 
ATOM     19  C   UNL     1      -0.616  10.312  19.148  0.00  0.00    +0.000 C 
ATOM     20  C   UNL     1       0.101   9.648  17.956  0.00  0.00    +0.000 C 
ATOM     21  N   UNL     1       1.582   9.693  18.031  0.00  0.00    +0.000 NA
ATOM     22  C   UNL     1       1.998  11.106  18.232  0.00  0.00    +0.000 C 
ATOM     23  C   UNL     1       1.324  11.827  19.418  0.00  0.00    +0.000 C 
BRANCH  16  24
ATOM     24  O   UNL     1      -0.501  13.920  19.658  0.00  0.00    +0.000 OA
BRANCH  24  26
ATOM     25  C   UNL     1      -0.471  13.674  22.104  0.00  0.00    +0.000 C 
ATOM     26  C   UNL     1      -0.605  14.637  20.917  0.00  0.00    +0.000 C 
ATOM     27  C   UNL     1      -1.894  15.474  20.974  0.00  0.00    +0.000 C 
ATOM     28  C   UNL     1       0.584  15.613  20.973  0.00  0.00    +0.000 C 
ENDBRANCH  24  26
ENDBRANCH  16  24
ENDBRANCH   1  21
TORSDOF 5
ENDMDL
MODEL 8
REMARK VINA RESULT:      -6.5      1.794      2.267
REMARK  Name = 
REMARK  8 active torsions:
REMARK  status: ('A' for Active; 'I' for Inactive)
REMARK    1  A    between atoms: C_1  and  C_2
REMARK    2  A    between atoms: C_2  and  C_3
REMARK    3  A    between atoms: C_2  and  C_4
REMARK    4  A    between atoms: C_2  and  O_5
REMARK    5  A    between atoms: O_5  and  C_6
REMARK    6  A    between atoms: N_11  and  C_12
REMARK    7  A    between atoms: C_12  and  C_13
REMARK    8  A    between atoms: C_22  and  O_23
REMARK                            x       y       z     vdW  Elec       q    Type
REMARK                         _______ _______ _______ _____ _____    ______ ____
ROOT
ATOM      1  C   UNL     1       0.977   9.300  19.620  0.00  0.00    +0.000 C 
ENDROOT
BRANCH   1   2
ATOM      2  C   UNL     1       1.994   8.330  19.056  0.00  0.00    +0.000 A 
ATOM      3  C   UNL     1       2.633   8.598  17.862  0.00  0.00    +0.000 A 
ATOM      4  C   UNL     1       3.465   7.622  17.330  0.00  0.00    +0.000 A 
ATOM      5  C   UNL     1       3.646   6.383  17.987  0.00  0.00    +0.000 A 
ATOM      6  C   UNL     1       4.429   5.320  17.469  0.00  0.00    +0.000 A 
ATOM      7 BR   UNL     1       5.309   5.427  15.781  0.00  0.00    +0.000 Br
ATOM      8  C   UNL     1       4.572   4.119  18.163  0.00  0.00    +0.000 A 
ATOM      9  C   UNL     1       3.949   3.969  19.392  0.00  0.00    +0.000 A 
ATOM     10 BR   UNL     1       4.155   2.331  20.325  0.00  0.00    +0.000 Br
ATOM     11  C   UNL     1       3.172   5.005  19.917  0.00  0.00    +0.000 A 
ATOM     12  C   UNL     1       2.991   6.214  19.228  0.00  0.00    +0.000 A 
ATOM     13  N   UNL     1       2.189   7.176  19.740  0.00  0.00    +0.000 NA
BRANCH  11  14
ATOM     14  O   UNL     1       2.555   4.845  21.141  0.00  0.00    +0.000 OA
ATOM     15  H   UNL     1       1.909   4.121  21.064  0.00  0.00    +0.000 HD
ENDBRANCH  11  14
ENDBRANCH   1   2
BRANCH   1  21
ATOM     16  C   UNL     1      -0.626  13.759  21.128  0.00  0.00    +0.000 C 
ATOM     17  O   UNL     1      -1.816  13.879  21.416  0.00  0.00    +0.000 OA
ATOM     18  N   UNL     1      -0.117  12.588  20.619  0.00  0.00    +0.000 N 
ATOM     19  C   UNL     1      -1.037  11.483  20.358  0.00  0.00    +0.000 C 
ATOM     20  C   UNL     1      -0.763  10.853  18.978  0.00  0.00    +0.000 C 
ATOM     21  N   UNL     1       0.649  10.456  18.756  0.00  0.00    +0.000 NA
ATOM     22  C   UNL     1       1.515  11.633  19.026  0.00  0.00    +0.000 C 
ATOM     23  C   UNL     1       1.299  12.306  20.398  0.00  0.00    +0.000 C 
BRANCH  16  24
ATOM     24  O   UNL     1       0.288  14.764  21.237  0.00  0.00    +0.000 OA
BRANCH  24  26
ATOM     25  C   UNL     1      -0.486  17.054  20.790  0.00  0.00    +0.000 C 
ATOM     26  C   UNL     1       0.263  15.830  20.250  0.00  0.00    +0.000 C 
ATOM     27  C   UNL     1      -0.303  15.330  18.910  0.00  0.00    +0.000 C 
ATOM     28  C   UNL     1       1.725  16.247  20.008  0.00  0.00    +0.000 C 
ENDBRANCH  24  26
ENDBRANCH  16  24
ENDBRANCH   1  21
TORSDOF 5
ENDMDL
MODEL 9
REMARK VINA RESULT:      -6.4      1.116      1.900
REMARK  Name = 
REMARK  8 active torsions:
REMARK  status: ('A' for Active; 'I' for Inactive)
REMARK    1  A    between atoms: C_1  and  C_2
REMARK    2  A    between atoms: C_2  and  C_3
REMARK    3  A    between atoms: C_2  and  C_4
REMARK    4  A    between atoms: C_2  and  O_5
REMARK    5  A    between atoms: O_5  and  C_6
REMARK    6  A    between atoms: N_11  and  C_12
REMARK    7  A    between atoms: C_12  and  C_13
REMARK    8  A    between atoms: C_22  and  O_23
REMARK                            x       y       z     vdW  Elec       q    Type
REMARK                         _______ _______ _______ _____ _____    ______ ____
ROOT
ATOM      1  C   UNL     1       1.316   9.691  18.829  0.00  0.00    +0.000 C 
ENDROOT
BRANCH   1   2
ATOM      2  C   UNL     1       2.170   8.462  18.599  0.00  0.00    +0.000 A 
ATOM      3  C   UNL     1       2.983   8.371  17.487  0.00  0.00    +0.000 A 
ATOM      4  C   UNL     1       3.653   7.176  17.261  0.00  0.00    +0.000 A 
ATOM      5  C   UNL     1       3.499   6.078  18.138  0.00  0.00    +0.000 A 
ATOM      6  C   UNL     1       4.101   4.810  17.933  0.00  0.00    +0.000 A 
ATOM      7 BR   UNL     1       5.172   4.424  16.404  0.00  0.00    +0.000 Br
ATOM      8  C   UNL     1       3.913   3.764  18.835  0.00  0.00    +0.000 A 
ATOM      9  C   UNL     1       3.136   3.973  19.964  0.00  0.00    +0.000 A 
ATOM     10 BR   UNL     1       2.893   2.540  21.182  0.00  0.00    +0.000 Br
ATOM     11  C   UNL     1       2.533   5.215  20.181  0.00  0.00    +0.000 A 
ATOM     12  C   UNL     1       2.685   6.277  19.276  0.00  0.00    +0.000 A 
ATOM     13  N   UNL     1       2.045   7.450  19.491  0.00  0.00    +0.000 NA
BRANCH  11  14
ATOM     14  O   UNL     1       1.761   5.412  21.307  0.00  0.00    +0.000 OA
ATOM     15  H   UNL     1       1.290   4.583  21.503  0.00  0.00    +0.000 HD
ENDBRANCH  11  14
ENDBRANCH   1   2
BRANCH   1  21
ATOM     16  C   UNL     1      -1.037  13.529  20.942  0.00  0.00    +0.000 C 
ATOM     17  O   UNL     1      -0.397  14.253  21.703  0.00  0.00    +0.000 OA
ATOM     18  N   UNL     1      -0.491  12.398  20.385  0.00  0.00    +0.000 N 
ATOM     19  C   UNL     1       0.868  12.019  20.765  0.00  0.00    +0.000 C 
ATOM     20  C   UNL     1       0.954  10.512  21.076  0.00  0.00    +0.000 C 
ATOM     21  N   UNL     1       0.420   9.635  20.006  0.00  0.00    +0.000 NA
ATOM     22  C   UNL     1      -0.965  10.073  19.688  0.00  0.00    +0.000 C 
ATOM     23  C   UNL     1      -1.119  11.572  19.356  0.00  0.00    +0.000 C 
BRANCH  16  24
ATOM     24  O   UNL     1      -2.342  13.741  20.610  0.00  0.00    +0.000 OA
BRANCH  24  26
ATOM     25  C   UNL     1      -3.771  14.794  22.311  0.00  0.00    +0.000 C 
ATOM     26  C   UNL     1      -3.359  13.490  21.616  0.00  0.00    +0.000 C 
ATOM     27  C   UNL     1      -2.902  12.407  22.608  0.00  0.00    +0.000 C 
ATOM     28  C   UNL     1      -4.594  12.947  20.875  0.00  0.00    +0.000 C 
ENDBRANCH  24  26
ENDBRANCH  16  24
ENDBRANCH   1  21
TORSDOF 5
ENDMDL
