MODEL 1
REMARK VINA RESULT:      -7.0      0.000      0.000
REMARK  Name = 
REMARK  5 active torsions:
REMARK  status: ('A' for Active; 'I' for Inactive)
REMARK    1  A    between atoms: O_1  and  C_2
REMARK    2  A    between atoms: C_9  and  C_10
REMARK    3  A    between atoms: C_13  and  O_14
REMARK    4  A    between atoms: C_15  and  O_16
REMARK    5  A    between atoms: C_18  and  O_19
REMARK                            x       y       z     vdW  Elec       q    Type
REMARK                         _______ _______ _______ _____ _____    ______ ____
ROOT
ATOM      1  C   UNL     1       0.640  11.377  18.800  0.00  0.00    +0.000 A 
ATOM      2  C   UNL     1       0.215  11.407  20.123  0.00  0.00    +0.000 A 
ATOM      3  C   UNL     1       0.406  10.285  20.927  0.00  0.00    +0.000 A 
ATOM      4  C   UNL     1       1.019   9.135  20.409  0.00  0.00    +0.000 A 
ATOM      5  C   UNL     1       1.467   9.128  19.080  0.00  0.00    +0.000 A 
ATOM      6  C   UNL     1       1.260  10.249  18.272  0.00  0.00    +0.000 A 
ATOM      7  O   UNL     1       2.081   8.049  18.493  0.00  0.00    +0.000 OA
ATOM      8  C   UNL     1       2.609   7.094  19.431  0.00  0.00    +0.000 C 
ATOM      9  C   UNL     1       1.544   6.700  20.482  0.00  0.00    +0.000 C 
ATOM     10  C   UNL     1       1.207   7.942  21.295  0.00  0.00    +0.000 C 
ENDROOT
BRANCH   8  11
ATOM     11  C   UNL     1       3.123   5.863  18.696  0.00  0.00    +0.000 A 
ATOM     12  C   UNL     1       2.261   5.035  17.954  0.00  0.00    +0.000 A 
ATOM     13  C   UNL     1       2.711   3.816  17.431  0.00  0.00    +0.000 A 
ATOM     14  C   UNL     1       4.028   3.429  17.647  0.00  0.00    +0.000 A 
ATOM     15  C   UNL     1       4.898   4.262  18.343  0.00  0.00    +0.000 A 
ATOM     16  C   UNL     1       4.463   5.474  18.859  0.00  0.00    +0.000 A 
BRANCH  14  17
ATOM     17  O   UNL     1       4.513   2.227  17.210  0.00  0.00    +0.000 OA
ATOM     18  H   UNL     1       5.484   2.282  17.200  0.00  0.00    +0.000 HD
ENDBRANCH  14  17
BRANCH  15  19
ATOM     19  O   UNL     1       6.189   3.872  18.563  0.00  0.00    +0.000 OA
ATOM     20  H   UNL     1       6.135   2.900  18.660  0.00  0.00    +0.000 HD
ENDBRANCH  15  19
ENDBRANCH   8  11
BRANCH   1  21
ATOM     21  O   UNL     1       0.464  12.454  17.981  0.00  0.00    +0.000 OA
ATOM     22  H   UNL     1      -0.420  12.403  17.581  0.00  0.00    +0.000 HD
ENDBRANCH   1  21
BRANCH   9  23
ATOM     23  O   UNL     1       1.966   5.675  21.388  0.00  0.00    +0.000 OA
ATOM     24  H   UNL     1       1.284   5.567  22.073  0.00  0.00    +0.000 HD
ENDBRANCH   9  23
TORSDOF 5
ENDMDL
MODEL 2
REMARK VINA RESULT:      -6.9      4.306      6.979
REMARK  Name = 
REMARK  5 active torsions:
REMARK  status: ('A' for Active; 'I' for Inactive)
REMARK    1  A    between atoms: O_1  and  C_2
REMARK    2  A    between atoms: C_9  and  C_10
REMARK    3  A    between atoms: C_13  and  O_14
REMARK    4  A    between atoms: C_15  and  O_16
REMARK    5  A    between atoms: C_18  and  O_19
REMARK                            x       y       z     vdW  Elec       q    Type
REMARK                         _______ _______ _______ _____ _____    ______ ____
ROOT
ATOM      1  C   UNL     1       5.919   3.983  13.650  0.00  0.00    +0.000 A 
ATOM      2  C   UNL     1       7.109   4.693  13.773  0.00  0.00    +0.000 A 
ATOM      3  C   UNL     1       7.527   5.108  15.035  0.00  0.00    +0.000 A 
ATOM      4  C   UNL     1       6.759   4.818  16.171  0.00  0.00    +0.000 A 
ATOM      5  C   UNL     1       5.576   4.078  16.036  0.00  0.00    +0.000 A 
ATOM      6  C   UNL     1       5.149   3.676  14.767  0.00  0.00    +0.000 A 
ATOM      7  O   UNL     1       4.766   3.744  17.094  0.00  0.00    +0.000 OA
ATOM      8  C   UNL     1       5.411   3.833  18.376  0.00  0.00    +0.000 C 
ATOM      9  C   UNL     1       6.120   5.197  18.550  0.00  0.00    +0.000 C 
ATOM     10  C   UNL     1       7.233   5.281  17.514  0.00  0.00    +0.000 C 
ENDROOT
BRANCH   8  11
ATOM     11  C   UNL     1       4.400   3.605  19.492  0.00  0.00    +0.000 A 
ATOM     12  C   UNL     1       4.378   2.409  20.233  0.00  0.00    +0.000 A 
ATOM     13  C   UNL     1       3.338   2.142  21.133  0.00  0.00    +0.000 A 
ATOM     14  C   UNL     1       2.323   3.076  21.294  0.00  0.00    +0.000 A 
ATOM     15  C   UNL     1       2.360   4.279  20.598  0.00  0.00    +0.000 A 
ATOM     16  C   UNL     1       3.389   4.557  19.710  0.00  0.00    +0.000 A 
BRANCH  14  17
ATOM     17  O   UNL     1       1.253   2.851  22.116  0.00  0.00    +0.000 OA
ATOM     18  H   UNL     1       1.594   2.559  22.978  0.00  0.00    +0.000 HD
ENDBRANCH  14  17
BRANCH  15  19
ATOM     19  O   UNL     1       1.354   5.191  20.752  0.00  0.00    +0.000 OA
ATOM     20  H   UNL     1       0.564   4.648  20.947  0.00  0.00    +0.000 HD
ENDBRANCH  15  19
ENDBRANCH   8  11
BRANCH   1  21
ATOM     21  O   UNL     1       5.474   3.565  12.430  0.00  0.00    +0.000 OA
ATOM     22  H   UNL     1       5.899   4.101  11.740  0.00  0.00    +0.000 HD
ENDBRANCH   1  21
BRANCH   9  23
ATOM     23  O   UNL     1       6.699   5.397  19.843  0.00  0.00    +0.000 OA
ATOM     24  H   UNL     1       7.458   6.000  19.754  0.00  0.00    +0.000 HD
ENDBRANCH   9  23
TORSDOF 5
ENDMDL
MODEL 3
REMARK VINA RESULT:      -6.9      4.730      6.966
REMARK  Name = 
REMARK  5 active torsions:
REMARK  status: ('A' for Active; 'I' for Inactive)
REMARK    1  A    between atoms: O_1  and  C_2
REMARK    2  A    between atoms: C_9  and  C_10
REMARK    3  A    between atoms: C_13  and  O_14
REMARK    4  A    between atoms: C_15  and  O_16
REMARK    5  A    between atoms: C_18  and  O_19
REMARK                            x       y       z     vdW  Elec       q    Type
REMARK                         _______ _______ _______ _____ _____    ______ ____
ROOT
ATOM      1  C   UNL     1       6.502   4.039  13.182  0.00  0.00    +0.000 A 
ATOM      2  C   UNL     1       7.521   4.912  13.547  0.00  0.00    +0.000 A 
ATOM      3  C   UNL     1       7.574   5.389  14.855  0.00  0.00    +0.000 A 
ATOM      4  C   UNL     1       6.612   4.997  15.795  0.00  0.00    +0.000 A 
ATOM      5  C   UNL     1       5.605   4.096  15.421  0.00  0.00    +0.000 A 
ATOM      6  C   UNL     1       5.544   3.630  14.105  0.00  0.00    +0.000 A 
ATOM      7  O   UNL     1       4.626   3.655  16.278  0.00  0.00    +0.000 OA
ATOM      8  C   UNL     1       4.938   3.841  17.670  0.00  0.00    +0.000 C 
ATOM      9  C   UNL     1       5.392   5.293  17.949  0.00  0.00    +0.000 C 
ATOM     10  C   UNL     1       6.692   5.531  17.193  0.00  0.00    +0.000 C 
ENDROOT
BRANCH   8  11
ATOM     11  C   UNL     1       3.737   3.477  18.532  0.00  0.00    +0.000 A 
ATOM     12  C   UNL     1       2.424   3.790  18.137  0.00  0.00    +0.000 A 
ATOM     13  C   UNL     1       1.347   3.608  19.015  0.00  0.00    +0.000 A 
ATOM     14  C   UNL     1       1.587   3.105  20.288  0.00  0.00    +0.000 A 
ATOM     15  C   UNL     1       2.876   2.752  20.671  0.00  0.00    +0.000 A 
ATOM     16  C   UNL     1       3.948   2.922  19.807  0.00  0.00    +0.000 A 
BRANCH  14  17
ATOM     17  O   UNL     1       0.588   2.956  21.209  0.00  0.00    +0.000 OA
ATOM     18  H   UNL     1       0.477   3.804  21.672  0.00  0.00    +0.000 HD
ENDBRANCH  14  17
BRANCH  15  19
ATOM     19  O   UNL     1       3.109   2.268  21.927  0.00  0.00    +0.000 OA
ATOM     20  H   UNL     1       3.419   1.352  21.780  0.00  0.00    +0.000 HD
ENDBRANCH  15  19
ENDBRANCH   8  11
BRANCH   1  21
ATOM     21  O   UNL     1       6.413   3.555  11.910  0.00  0.00    +0.000 OA
ATOM     22  H   UNL     1       5.587   3.872  11.510  0.00  0.00    +0.000 HD
ENDBRANCH   1  21
BRANCH   9  23
ATOM     23  O   UNL     1       5.622   5.581  19.332  0.00  0.00    +0.000 OA
ATOM     24  H   UNL     1       5.381   6.508  19.501  0.00  0.00    +0.000 HD
ENDBRANCH   9  23
TORSDOF 5
ENDMDL
MODEL 4
REMARK VINA RESULT:      -6.8      2.227      6.823
REMARK  Name = 
REMARK  5 active torsions:
REMARK  status: ('A' for Active; 'I' for Inactive)
REMARK    1  A    between atoms: O_1  and  C_2
REMARK    2  A    between atoms: C_9  and  C_10
REMARK    3  A    between atoms: C_13  and  O_14
REMARK    4  A    between atoms: C_15  and  O_16
REMARK    5  A    between atoms: C_18  and  O_19
REMARK                            x       y       z     vdW  Elec       q    Type
REMARK                         _______ _______ _______ _____ _____    ______ ____
ROOT
ATOM      1  C   UNL     1       6.711   5.130  15.349  0.00  0.00    +0.000 A 
ATOM      2  C   UNL     1       6.320   3.796  15.400  0.00  0.00    +0.000 A 
ATOM      3  C   UNL     1       5.196   3.443  16.144  0.00  0.00    +0.000 A 
ATOM      4  C   UNL     1       4.466   4.418  16.836  0.00  0.00    +0.000 A 
ATOM      5  C   UNL     1       4.855   5.763  16.755  0.00  0.00    +0.000 A 
ATOM      6  C   UNL     1       5.992   6.114  16.021  0.00  0.00    +0.000 A 
ATOM      7  O   UNL     1       4.196   6.783  17.395  0.00  0.00    +0.000 OA
ATOM      8  C   UNL     1       2.857   6.450  17.804  0.00  0.00    +0.000 C 
ATOM      9  C   UNL     1       2.830   5.114  18.583  0.00  0.00    +0.000 C 
ATOM     10  C   UNL     1       3.264   4.008  17.631  0.00  0.00    +0.000 C 
ENDROOT
BRANCH   8  11
ATOM     11  C   UNL     1       2.267   7.576  18.643  0.00  0.00    +0.000 A 
ATOM     12  C   UNL     1       2.099   7.448  20.034  0.00  0.00    +0.000 A 
ATOM     13  C   UNL     1       1.397   8.416  20.764  0.00  0.00    +0.000 A 
ATOM     14  C   UNL     1       0.868   9.515  20.100  0.00  0.00    +0.000 A 
ATOM     15  C   UNL     1       1.066   9.671  18.732  0.00  0.00    +0.000 A 
ATOM     16  C   UNL     1       1.766   8.721  18.001  0.00  0.00    +0.000 A 
BRANCH  14  17
ATOM     17  O   UNL     1       0.127  10.466  20.746  0.00  0.00    +0.000 OA
ATOM     18  H   UNL     1       0.179  11.288  20.230  0.00  0.00    +0.000 HD
ENDBRANCH  14  17
BRANCH  15  19
ATOM     19  O   UNL     1       0.534  10.748  18.082  0.00  0.00    +0.000 OA
ATOM     20  H   UNL     1       0.734  10.583  17.138  0.00  0.00    +0.000 HD
ENDBRANCH  15  19
ENDBRANCH   8  11
BRANCH   1  21
ATOM     21  O   UNL     1       7.809   5.513  14.637  0.00  0.00    +0.000 OA
ATOM     22  H   UNL     1       8.588   5.052  14.988  0.00  0.00    +0.000 HD
ENDBRANCH   1  21
BRANCH   9  23
ATOM     23  O   UNL     1       1.544   4.768  19.110  0.00  0.00    +0.000 OA
ATOM     24  H   UNL     1       1.249   3.941  18.691  0.00  0.00    +0.000 HD
ENDBRANCH   9  23
TORSDOF 5
ENDMDL
MODEL 5
REMARK VINA RESULT:      -6.8      1.763      2.604
REMARK  Name = 
REMARK  5 active torsions:
REMARK  status: ('A' for Active; 'I' for Inactive)
REMARK    1  A    between atoms: O_1  and  C_2
REMARK    2  A    between atoms: C_9  and  C_10
REMARK    3  A    between atoms: C_13  and  O_14
REMARK    4  A    between atoms: C_15  and  O_16
REMARK    5  A    between atoms: C_18  and  O_19
REMARK                            x       y       z     vdW  Elec       q    Type
REMARK                         _______ _______ _______ _____ _____    ______ ____
ROOT
ATOM      1  C   UNL     1      -0.056  10.226  22.158  0.00  0.00    +0.000 A 
ATOM      2  C   UNL     1      -0.204  11.182  21.160  0.00  0.00    +0.000 A 
ATOM      3  C   UNL     1       0.329  10.936  19.896  0.00  0.00    +0.000 A 
ATOM      4  C   UNL     1       1.009   9.739  19.631  0.00  0.00    +0.000 A 
ATOM      5  C   UNL     1       1.127   8.773  20.639  0.00  0.00    +0.000 A 
ATOM      6  C   UNL     1       0.606   9.027  21.911  0.00  0.00    +0.000 A 
ATOM      7  O   UNL     1       1.771   7.571  20.466  0.00  0.00    +0.000 OA
ATOM      8  C   UNL     1       1.945   7.193  19.089  0.00  0.00    +0.000 C 
ATOM      9  C   UNL     1       2.566   8.349  18.269  0.00  0.00    +0.000 C 
ATOM     10  C   UNL     1       1.575   9.505  18.264  0.00  0.00    +0.000 C 
ENDROOT
BRANCH   8  11
ATOM     11  C   UNL     1       2.805   5.940  18.991  0.00  0.00    +0.000 A 
ATOM     12  C   UNL     1       2.238   4.675  18.749  0.00  0.00    +0.000 A 
ATOM     13  C   UNL     1       3.015   3.513  18.835  0.00  0.00    +0.000 A 
ATOM     14  C   UNL     1       4.362   3.619  19.158  0.00  0.00    +0.000 A 
ATOM     15  C   UNL     1       4.939   4.868  19.356  0.00  0.00    +0.000 A 
ATOM     16  C   UNL     1       4.180   6.026  19.266  0.00  0.00    +0.000 A 
BRANCH  14  17
ATOM     17  O   UNL     1       5.160   2.519  19.311  0.00  0.00    +0.000 OA
ATOM     18  H   UNL     1       5.887   2.585  18.668  0.00  0.00    +0.000 HD
ENDBRANCH  14  17
BRANCH  15  19
ATOM     19  O   UNL     1       6.262   4.967  19.684  0.00  0.00    +0.000 OA
ATOM     20  H   UNL     1       6.535   5.835  19.326  0.00  0.00    +0.000 HD
ENDBRANCH  15  19
ENDBRANCH   8  11
BRANCH   1  21
ATOM     21  O   UNL     1      -0.559  10.434  23.409  0.00  0.00    +0.000 OA
ATOM     22  H   UNL     1      -1.145   9.694  23.639  0.00  0.00    +0.000 HD
ENDBRANCH   1  21
BRANCH   9  23
ATOM     23  O   UNL     1       2.863   8.011  16.910  0.00  0.00    +0.000 OA
ATOM     24  H   UNL     1       2.743   8.804  16.360  0.00  0.00    +0.000 HD
ENDBRANCH   9  23
TORSDOF 5
ENDMDL
MODEL 6
REMARK VINA RESULT:      -6.8      1.557      1.626
REMARK  Name = 
REMARK  5 active torsions:
REMARK  status: ('A' for Active; 'I' for Inactive)
REMARK    1  A    between atoms: O_1  and  C_2
REMARK    2  A    between atoms: C_9  and  C_10
REMARK    3  A    between atoms: C_13  and  O_14
REMARK    4  A    between atoms: C_15  and  O_16
REMARK    5  A    between atoms: C_18  and  O_19
REMARK                            x       y       z     vdW  Elec       q    Type
REMARK                         _______ _______ _______ _____ _____    ______ ____
ROOT
ATOM      1  C   UNL     1       0.393  10.825  18.681  0.00  0.00    +0.000 A 
ATOM      2  C   UNL     1       0.083  10.586  20.015  0.00  0.00    +0.000 A 
ATOM      3  C   UNL     1       0.583   9.444  20.637  0.00  0.00    +0.000 A 
ATOM      4  C   UNL     1       1.389   8.542  19.928  0.00  0.00    +0.000 A 
ATOM      5  C   UNL     1       1.716   8.810  18.591  0.00  0.00    +0.000 A 
ATOM      6  C   UNL     1       1.201   9.947  17.964  0.00  0.00    +0.000 A 
ATOM      7  O   UNL     1       2.502   7.986  17.823  0.00  0.00    +0.000 OA
ATOM      8  C   UNL     1       3.303   7.065  18.585  0.00  0.00    +0.000 C 
ATOM      9  C   UNL     1       2.443   6.304  19.622  0.00  0.00    +0.000 C 
ATOM     10  C   UNL     1       1.909   7.320  20.622  0.00  0.00    +0.000 C 
ENDROOT
BRANCH   8  11
ATOM     11  C   UNL     1       4.013   6.090  17.655  0.00  0.00    +0.000 A 
ATOM     12  C   UNL     1       3.507   4.799  17.415  0.00  0.00    +0.000 A 
ATOM     13  C   UNL     1       4.257   3.856  16.701  0.00  0.00    +0.000 A 
ATOM     14  C   UNL     1       5.512   4.209  16.221  0.00  0.00    +0.000 A 
ATOM     15  C   UNL     1       6.001   5.495  16.416  0.00  0.00    +0.000 A 
ATOM     16  C   UNL     1       5.264   6.439  17.116  0.00  0.00    +0.000 A 
BRANCH  14  17
ATOM     17  O   UNL     1       6.314   3.317  15.564  0.00  0.00    +0.000 OA
ATOM     18  H   UNL     1       6.570   3.714  14.714  0.00  0.00    +0.000 HD
ENDBRANCH  14  17
BRANCH  15  19
ATOM     19  O   UNL     1       7.240   5.834  15.951  0.00  0.00    +0.000 OA
ATOM     20  H   UNL     1       7.376   6.749  16.272  0.00  0.00    +0.000 HD
ENDBRANCH  15  19
ENDBRANCH   8  11
BRANCH   1  21
ATOM     21  O   UNL     1      -0.083  11.929  18.037  0.00  0.00    +0.000 OA
ATOM     22  H   UNL     1      -0.465  11.656  17.186  0.00  0.00    +0.000 HD
ENDBRANCH   1  21
BRANCH   9  23
ATOM     23  O   UNL     1       3.154   5.296  20.348  0.00  0.00    +0.000 OA
ATOM     24  H   UNL     1       2.736   4.435  20.174  0.00  0.00    +0.000 HD
ENDBRANCH   9  23
TORSDOF 5
ENDMDL
MODEL 7
REMARK VINA RESULT:      -6.8      1.935      2.784
REMARK  Name = 
REMARK  5 active torsions:
REMARK  status: ('A' for Active; 'I' for Inactive)
REMARK    1  A    between atoms: O_1  and  C_2
REMARK    2  A    between atoms: C_9  and  C_10
REMARK    3  A    between atoms: C_13  and  O_14
REMARK    4  A    between atoms: C_15  and  O_16
REMARK    5  A    between atoms: C_18  and  O_19
REMARK                            x       y       z     vdW  Elec       q    Type
REMARK                         _______ _______ _______ _____ _____    ______ ____
ROOT
ATOM      1  C   UNL     1       0.304   8.998  21.697  0.00  0.00    +0.000 A 
ATOM      2  C   UNL     1       0.617  10.090  20.895  0.00  0.00    +0.000 A 
ATOM      3  C   UNL     1       1.369   9.895  19.739  0.00  0.00    +0.000 A 
ATOM      4  C   UNL     1       1.809   8.612  19.385  0.00  0.00    +0.000 A 
ATOM      5  C   UNL     1       1.464   7.515  20.188  0.00  0.00    +0.000 A 
ATOM      6  C   UNL     1       0.723   7.716  21.356  0.00  0.00    +0.000 A 
ATOM      7  O   UNL     1       1.847   6.225  19.914  0.00  0.00    +0.000 OA
ATOM      8  C   UNL     1       2.258   6.012  18.552  0.00  0.00    +0.000 C 
ATOM      9  C   UNL     1       3.299   7.070  18.114  0.00  0.00    +0.000 C 
ATOM     10  C   UNL     1       2.620   8.432  18.138  0.00  0.00    +0.000 C 
ENDROOT
BRANCH   8  11
ATOM     11  C   UNL     1       2.816   4.605  18.383  0.00  0.00    +0.000 A 
ATOM     12  C   UNL     1       2.253   3.694  17.471  0.00  0.00    +0.000 A 
ATOM     13  C   UNL     1       2.661   2.355  17.450  0.00  0.00    +0.000 A 
ATOM     14  C   UNL     1       3.637   1.929  18.341  0.00  0.00    +0.000 A 
ATOM     15  C   UNL     1       4.229   2.832  19.217  0.00  0.00    +0.000 A 
ATOM     16  C   UNL     1       3.837   4.163  19.241  0.00  0.00    +0.000 A 
BRANCH  14  17
ATOM     17  O   UNL     1       4.039   0.623  18.408  0.00  0.00    +0.000 OA
ATOM     18  H   UNL     1       3.243   0.065  18.431  0.00  0.00    +0.000 HD
ENDBRANCH  14  17
BRANCH  15  19
ATOM     19  O   UNL     1       5.182   2.406  20.099  0.00  0.00    +0.000 OA
ATOM     20  H   UNL     1       5.629   1.669  19.636  0.00  0.00    +0.000 HD
ENDBRANCH  15  19
ENDBRANCH   8  11
BRANCH   1  21
ATOM     21  O   UNL     1      -0.424   9.151  22.840  0.00  0.00    +0.000 OA
ATOM     22  H   UNL     1      -0.068   8.558  23.521  0.00  0.00    +0.000 HD
ENDBRANCH   1  21
BRANCH   9  23
ATOM     23  O   UNL     1       3.830   6.861  16.801  0.00  0.00    +0.000 OA
ATOM     24  H   UNL     1       4.760   7.145  16.794  0.00  0.00    +0.000 HD
ENDBRANCH   9  23
TORSDOF 5
ENDMDL
MODEL 8
REMARK VINA RESULT:      -6.6      1.524      1.724
REMARK  Name = 
REMARK  5 active torsions:
REMARK  status: ('A' for Active; 'I' for Inactive)
REMARK    1  A    between atoms: O_1  and  C_2
REMARK    2  A    between atoms: C_9  and  C_10
REMARK    3  A    between atoms: C_13  and  O_14
REMARK    4  A    between atoms: C_15  and  O_16
REMARK    5  A    between atoms: C_18  and  O_19
REMARK                            x       y       z     vdW  Elec       q    Type
REMARK                         _______ _______ _______ _____ _____    ______ ____
ROOT
ATOM      1  C   UNL     1       1.877  10.171  18.212  0.00  0.00    +0.000 A 
ATOM      2  C   UNL     1       1.239  10.425  19.421  0.00  0.00    +0.000 A 
ATOM      3  C   UNL     1       1.075   9.388  20.337  0.00  0.00    +0.000 A 
ATOM      4  C   UNL     1       1.547   8.100  20.045  0.00  0.00    +0.000 A 
ATOM      5  C   UNL     1       2.212   7.865  18.834  0.00  0.00    +0.000 A 
ATOM      6  C   UNL     1       2.362   8.903  17.910  0.00  0.00    +0.000 A 
ATOM      7  O   UNL     1       2.711   6.638  18.469  0.00  0.00    +0.000 OA
ATOM      8  C   UNL     1       2.879   5.724  19.567  0.00  0.00    +0.000 C 
ATOM      9  C   UNL     1       1.592   5.637  20.421  0.00  0.00    +0.000 C 
ATOM     10  C   UNL     1       1.352   7.003  21.047  0.00  0.00    +0.000 C 
ENDROOT
BRANCH   8  11
ATOM     11  C   UNL     1       3.278   4.348  19.051  0.00  0.00    +0.000 A 
ATOM     12  C   UNL     1       2.652   3.771  17.931  0.00  0.00    +0.000 A 
ATOM     13  C   UNL     1       2.905   2.440  17.574  0.00  0.00    +0.000 A 
ATOM     14  C   UNL     1       3.789   1.689  18.337  0.00  0.00    +0.000 A 
ATOM     15  C   UNL     1       4.445   2.264  19.420  0.00  0.00    +0.000 A 
ATOM     16  C   UNL     1       4.207   3.583  19.778  0.00  0.00    +0.000 A 
BRANCH  14  17
ATOM     17  O   UNL     1       4.036   0.370  18.074  0.00  0.00    +0.000 OA
ATOM     18  H   UNL     1       3.549  -0.162  18.726  0.00  0.00    +0.000 HD
ENDBRANCH  14  17
BRANCH  15  19
ATOM     19  O   UNL     1       5.306   1.518  20.174  0.00  0.00    +0.000 OA
ATOM     20  H   UNL     1       5.863   1.054  19.517  0.00  0.00    +0.000 HD
ENDBRANCH  15  19
ENDBRANCH   8  11
BRANCH   1  21
ATOM     21  O   UNL     1       2.050  11.160  17.289  0.00  0.00    +0.000 OA
ATOM     22  H   UNL     1       1.929  12.021  17.724  0.00  0.00    +0.000 HD
ENDBRANCH   1  21
BRANCH   9  23
ATOM     23  O   UNL     1       1.651   4.669  21.474  0.00  0.00    +0.000 OA
ATOM     24  H   UNL     1       1.544   3.783  21.088  0.00  0.00    +0.000 HD
ENDBRANCH   9  23
TORSDOF 5
ENDMDL
MODEL 9
REMARK VINA RESULT:      -6.6      1.904      2.957
REMARK  Name = 
REMARK  5 active torsions:
REMARK  status: ('A' for Active; 'I' for Inactive)
REMARK    1  A    between atoms: O_1  and  C_2
REMARK    2  A    between atoms: C_9  and  C_10
REMARK    3  A    between atoms: C_13  and  O_14
REMARK    4  A    between atoms: C_15  and  O_16
REMARK    5  A    between atoms: C_18  and  O_19
REMARK                            x       y       z     vdW  Elec       q    Type
REMARK                         _______ _______ _______ _____ _____    ______ ____
ROOT
ATOM      1  C   UNL     1       0.290  10.056  22.128  0.00  0.00    +0.000 A 
ATOM      2  C   UNL     1       0.319  10.953  21.066  0.00  0.00    +0.000 A 
ATOM      3  C   UNL     1       0.853  10.547  19.844  0.00  0.00    +0.000 A 
ATOM      4  C   UNL     1       1.357   9.249  19.685  0.00  0.00    +0.000 A 
ATOM      5  C   UNL     1       1.297   8.347  20.756  0.00  0.00    +0.000 A 
ATOM      6  C   UNL     1       0.776   8.760  21.985  0.00  0.00    +0.000 A 
ATOM      7  O   UNL     1       1.762   7.056  20.686  0.00  0.00    +0.000 OA
ATOM      8  C   UNL     1       1.926   6.563  19.345  0.00  0.00    +0.000 C 
ATOM      9  C   UNL     1       2.738   7.558  18.482  0.00  0.00    +0.000 C 
ATOM     10  C   UNL     1       1.929   8.842  18.361  0.00  0.00    +0.000 C 
ENDROOT
BRANCH   8  11
ATOM     11  C   UNL     1       2.594   5.195  19.363  0.00  0.00    +0.000 A 
ATOM     12  C   UNL     1       3.985   5.057  19.523  0.00  0.00    +0.000 A 
ATOM     13  C   UNL     1       4.605   3.811  19.363  0.00  0.00    +0.000 A 
ATOM     14  C   UNL     1       3.829   2.702  19.049  0.00  0.00    +0.000 A 
ATOM     15  C   UNL     1       2.449   2.822  18.932  0.00  0.00    +0.000 A 
ATOM     16  C   UNL     1       1.824   4.050  19.095  0.00  0.00    +0.000 A 
BRANCH  14  17
ATOM     17  O   UNL     1       4.381   1.470  18.827  0.00  0.00    +0.000 OA
ATOM     18  H   UNL     1       4.138   0.895  19.573  0.00  0.00    +0.000 HD
ENDBRANCH  14  17
BRANCH  15  19
ATOM     19  O   UNL     1       1.692   1.731  18.613  0.00  0.00    +0.000 OA
ATOM     20  H   UNL     1       1.853   1.102  19.345  0.00  0.00    +0.000 HD
ENDBRANCH  15  19
ENDBRANCH   8  11
BRANCH   1  21
ATOM     21  O   UNL     1      -0.219  10.419  23.340  0.00  0.00    +0.000 OA
ATOM     22  H   UNL     1      -0.155   9.664  23.947  0.00  0.00    +0.000 HD
ENDBRANCH   1  21
BRANCH   9  23
ATOM     23  O   UNL     1       3.029   7.089  17.161  0.00  0.00    +0.000 OA
ATOM     24  H   UNL     1       2.832   6.137  17.119  0.00  0.00    +0.000 HD
ENDBRANCH   9  23
TORSDOF 5
ENDMDL
