MODEL 1
REMARK VINA RESULT:      -8.0      0.000      0.000
REMARK  Name = 
REMARK  11 active torsions:
REMARK  status: ('A' for Active; 'I' for Inactive)
REMARK    1  A    between atoms: C_1  and  O_2
REMARK    2  A    between atoms: O_2  and  C_3
REMARK    3  A    between atoms: C_6  and  C_7
REMARK    4  A    between atoms: C_7  and  C_8
REMARK    5  A    between atoms: C_8  and  N_9
REMARK    6  A    between atoms: C_10  and  C_12
REMARK    7  A    between atoms: C_17  and  S_18
REMARK    8  A    between atoms: S_18  and  N_21
REMARK    9  A    between atoms: C_29  and  C_30
REMARK   10  A    between atoms: C_32  and  O_33
REMARK   11  A    between atoms: O_33  and  C_34
REMARK                            x       y       z     vdW  Elec       q    Type
REMARK                         _______ _______ _______ _____ _____    ______ ____
ROOT
ATOM      1  C   UNL     1       1.857   6.676  20.104  0.00  0.00    +0.000 A 
ATOM      2  O   UNL     1       1.124   7.358  21.036  0.00  0.00    +0.000 OA
ATOM      3  C   UNL     1       1.004   8.636  20.609  0.00  0.00    +0.000 A 
ATOM      4  C   UNL     1       0.343   9.639  21.318  0.00  0.00    +0.000 A 
ATOM      5  C   UNL     1       0.252  10.893  20.713  0.00  0.00    +0.000 A 
ATOM      6  C   UNL     1       0.793  11.109  19.439  0.00  0.00    +0.000 A 
ATOM      7  C   UNL     1       1.502  10.091  18.755  0.00  0.00    +0.000 A 
ATOM      8  C   UNL     1       1.615   8.816  19.372  0.00  0.00    +0.000 A 
ATOM      9  C   UNL     1       2.252   7.553  19.090  0.00  0.00    +0.000 A 
ATOM     10  C   UNL     1       3.161   7.210  17.965  0.00  0.00    +0.000 C 
ENDROOT
BRANCH   1  12
ATOM     11  N   UNL     1       1.896   4.457  19.196  0.00  0.00    +0.000 N 
ATOM     12  C   UNL     1       2.088   5.252  20.317  0.00  0.00    +0.000 C 
ATOM     13  O   UNL     1       2.449   4.776  21.392  0.00  0.00    +0.000 OA
ATOM     14  H   UNL     1       1.646   4.927  18.334  0.00  0.00    +0.000 HD
BRANCH  11  15
ATOM     15  C   UNL     1       2.134   3.021  19.222  0.00  0.00    +0.000 C 
BRANCH  15  16
ATOM     16  C   UNL     1       3.089   2.527  18.125  0.00  0.00    +0.000 C 
BRANCH  16  20
ATOM     17  C   UNL     1       6.437   5.168  17.315  0.00  0.00    +0.000 A 
ATOM     18  C   UNL     1       6.121   4.791  18.630  0.00  0.00    +0.000 A 
ATOM     19  C   UNL     1       5.032   3.957  18.900  0.00  0.00    +0.000 A 
ATOM     20  C   UNL     1       4.208   3.513  17.867  0.00  0.00    +0.000 A 
ATOM     21  C   UNL     1       4.470   3.971  16.567  0.00  0.00    +0.000 A 
ATOM     22  C   UNL     1       5.569   4.802  16.277  0.00  0.00    +0.000 A 
BRANCH  17  24
ATOM     23  C   UNL     1       7.513   7.267  17.462  0.00  0.00    +0.000 C 
ATOM     24  O   UNL     1       7.561   5.904  17.044  0.00  0.00    +0.000 OA
ENDBRANCH  17  24
BRANCH  22  25
ATOM     25  O   UNL     1       5.630   5.119  14.945  0.00  0.00    +0.000 OA
ATOM     26  C   UNL     1       6.041   4.134  14.011  0.00  0.00    +0.000 C 
ENDBRANCH  22  25
ENDBRANCH  16  20
ENDBRANCH  15  16
ENDBRANCH  11  15
ENDBRANCH   1  12
BRANCH   6  27
ATOM     27  S   UNL     1       0.560  12.739  18.719  0.00  0.00    +0.000 S 
ATOM     28  O   UNL     1       1.795  13.071  18.045  0.00  0.00    +0.000 OA
ATOM     29  O   UNL     1      -0.710  12.748  18.030  0.00  0.00    +0.000 OA
BRANCH  27  30
ATOM     30  N   UNL     1       0.412  13.754  20.084  0.00  0.00    +0.000 NA
ATOM     31  C   UNL     1      -0.766  14.673  20.139  0.00  0.00    +0.000 C 
ATOM     32  C   UNL     1      -0.480  16.009  19.443  0.00  0.00    +0.000 C 
ATOM     33  O   UNL     1       0.669  16.649  20.016  0.00  0.00    +0.000 OA
ATOM     34  C   UNL     1       1.832  15.825  19.855  0.00  0.00    +0.000 C 
ATOM     35  C   UNL     1       1.652  14.465  20.539  0.00  0.00    +0.000 C 
ENDBRANCH  27  30
ENDBRANCH   6  27
TORSDOF 8
ENDMDL
MODEL 2
REMARK VINA RESULT:      -8.0      2.482      3.345
REMARK  Name = 
REMARK  11 active torsions:
REMARK  status: ('A' for Active; 'I' for Inactive)
REMARK    1  A    between atoms: C_1  and  O_2
REMARK    2  A    between atoms: O_2  and  C_3
REMARK    3  A    between atoms: C_6  and  C_7
REMARK    4  A    between atoms: C_7  and  C_8
REMARK    5  A    between atoms: C_8  and  N_9
REMARK    6  A    between atoms: C_10  and  C_12
REMARK    7  A    between atoms: C_17  and  S_18
REMARK    8  A    between atoms: S_18  and  N_21
REMARK    9  A    between atoms: C_29  and  C_30
REMARK   10  A    between atoms: C_32  and  O_33
REMARK   11  A    between atoms: O_33  and  C_34
REMARK                            x       y       z     vdW  Elec       q    Type
REMARK                         _______ _______ _______ _____ _____    ______ ____
ROOT
ATOM      1  C   UNL     1       1.738   7.464  19.736  0.00  0.00    +0.000 A 
ATOM      2  O   UNL     1       1.304   7.409  21.032  0.00  0.00    +0.000 OA
ATOM      3  C   UNL     1       0.830   8.634  21.358  0.00  0.00    +0.000 A 
ATOM      4  C   UNL     1       0.327   8.968  22.616  0.00  0.00    +0.000 A 
ATOM      5  C   UNL     1      -0.182  10.257  22.775  0.00  0.00    +0.000 A 
ATOM      6  C   UNL     1      -0.195  11.156  21.701  0.00  0.00    +0.000 A 
ATOM      7  C   UNL     1       0.363  10.813  20.444  0.00  0.00    +0.000 A 
ATOM      8  C   UNL     1       0.901   9.508  20.278  0.00  0.00    +0.000 A 
ATOM      9  C   UNL     1       1.582   8.764  19.247  0.00  0.00    +0.000 A 
ATOM     10  C   UNL     1       2.051   9.244  17.921  0.00  0.00    +0.000 C 
ENDROOT
BRANCH   1  12
ATOM     11  N   UNL     1       2.625   5.256  20.036  0.00  0.00    +0.000 N 
ATOM     12  C   UNL     1       2.259   6.243  19.131  0.00  0.00    +0.000 C 
ATOM     13  O   UNL     1       2.351   6.073  17.918  0.00  0.00    +0.000 OA
ATOM     14  H   UNL     1       2.474   5.451  21.019  0.00  0.00    +0.000 HD
BRANCH  11  15
ATOM     15  C   UNL     1       3.115   3.956  19.598  0.00  0.00    +0.000 C 
BRANCH  15  16
ATOM     16  C   UNL     1       4.646   3.831  19.613  0.00  0.00    +0.000 C 
BRANCH  16  20
ATOM     17  C   UNL     1       6.267   5.214  15.832  0.00  0.00    +0.000 A 
ATOM     18  C   UNL     1       5.278   4.218  15.869  0.00  0.00    +0.000 A 
ATOM     19  C   UNL     1       4.766   3.753  17.084  0.00  0.00    +0.000 A 
ATOM     20  C   UNL     1       5.259   4.243  18.293  0.00  0.00    +0.000 A 
ATOM     21  C   UNL     1       6.314   5.167  18.252  0.00  0.00    +0.000 A 
ATOM     22  C   UNL     1       6.834   5.653  17.036  0.00  0.00    +0.000 A 
BRANCH  17  24
ATOM     23  C   UNL     1       7.202   4.786  13.704  0.00  0.00    +0.000 C 
ATOM     24  O   UNL     1       6.696   5.736  14.640  0.00  0.00    +0.000 OA
ENDBRANCH  17  24
BRANCH  22  25
ATOM     25  O   UNL     1       7.853   6.546  17.239  0.00  0.00    +0.000 OA
ATOM     26  C   UNL     1       7.548   7.907  17.496  0.00  0.00    +0.000 C 
ENDBRANCH  22  25
ENDBRANCH  16  20
ENDBRANCH  15  16
ENDBRANCH  11  15
ENDBRANCH   1  12
BRANCH   6  27
ATOM     27  S   UNL     1      -0.938  12.765  21.992  0.00  0.00    +0.000 S 
ATOM     28  O   UNL     1      -0.472  13.205  23.288  0.00  0.00    +0.000 OA
ATOM     29  O   UNL     1      -0.754  13.567  20.803  0.00  0.00    +0.000 OA
BRANCH  27  30
ATOM     30  N   UNL     1      -2.604  12.412  22.121  0.00  0.00    +0.000 NA
ATOM     31  C   UNL     1      -3.535  13.115  21.186  0.00  0.00    +0.000 C 
ATOM     32  C   UNL     1      -3.996  14.464  21.748  0.00  0.00    +0.000 C 
ATOM     33  O   UNL     1      -4.619  14.300  23.030  0.00  0.00    +0.000 OA
ATOM     34  C   UNL     1      -3.690  13.740  23.968  0.00  0.00    +0.000 C 
ATOM     35  C   UNL     1      -3.184  12.370  23.504  0.00  0.00    +0.000 C 
ENDBRANCH  27  30
ENDBRANCH   6  27
TORSDOF 8
ENDMDL
MODEL 3
REMARK VINA RESULT:      -7.9      1.121      1.361
REMARK  Name = 
REMARK  11 active torsions:
REMARK  status: ('A' for Active; 'I' for Inactive)
REMARK    1  A    between atoms: C_1  and  O_2
REMARK    2  A    between atoms: O_2  and  C_3
REMARK    3  A    between atoms: C_6  and  C_7
REMARK    4  A    between atoms: C_7  and  C_8
REMARK    5  A    between atoms: C_8  and  N_9
REMARK    6  A    between atoms: C_10  and  C_12
REMARK    7  A    between atoms: C_17  and  S_18
REMARK    8  A    between atoms: S_18  and  N_21
REMARK    9  A    between atoms: C_29  and  C_30
REMARK   10  A    between atoms: C_32  and  O_33
REMARK   11  A    between atoms: O_33  and  C_34
REMARK                            x       y       z     vdW  Elec       q    Type
REMARK                         _______ _______ _______ _____ _____    ______ ____
ROOT
ATOM      1  C   UNL     1       1.843   6.430  20.172  0.00  0.00    +0.000 A 
ATOM      2  O   UNL     1       1.130   6.946  21.219  0.00  0.00    +0.000 OA
ATOM      3  C   UNL     1       0.985   8.274  21.000  0.00  0.00    +0.000 A 
ATOM      4  C   UNL     1       0.334   9.144  21.875  0.00  0.00    +0.000 A 
ATOM      5  C   UNL     1       0.211  10.475  21.476  0.00  0.00    +0.000 A 
ATOM      6  C   UNL     1       0.712  10.896  20.238  0.00  0.00    +0.000 A 
ATOM      7  C   UNL     1       1.412  10.007  19.384  0.00  0.00    +0.000 A 
ATOM      8  C   UNL     1       1.557   8.654  19.791  0.00  0.00    +0.000 A 
ATOM      9  C   UNL     1       2.199   7.460  19.297  0.00  0.00    +0.000 A 
ATOM     10  C   UNL     1       3.078   7.311  18.108  0.00  0.00    +0.000 C 
ENDROOT
BRANCH   1  12
ATOM     11  N   UNL     1       2.097   4.419  18.889  0.00  0.00    +0.000 N 
ATOM     12  C   UNL     1       2.096   4.993  20.153  0.00  0.00    +0.000 C 
ATOM     13  O   UNL     1       2.318   4.330  21.164  0.00  0.00    +0.000 OA
ATOM     14  H   UNL     1       1.955   5.039  18.100  0.00  0.00    +0.000 HD
BRANCH  11  15
ATOM     15  C   UNL     1       2.384   3.006  18.688  0.00  0.00    +0.000 C 
BRANCH  15  16
ATOM     16  C   UNL     1       3.879   2.660  18.745  0.00  0.00    +0.000 C 
BRANCH  16  20
ATOM     17  C   UNL     1       6.517   5.728  17.174  0.00  0.00    +0.000 A 
ATOM     18  C   UNL     1       6.385   5.534  18.559  0.00  0.00    +0.000 A 
ATOM     19  C   UNL     1       5.522   4.561  19.073  0.00  0.00    +0.000 A 
ATOM     20  C   UNL     1       4.740   3.787  18.216  0.00  0.00    +0.000 A 
ATOM     21  C   UNL     1       4.803   4.052  16.840  0.00  0.00    +0.000 A 
ATOM     22  C   UNL     1       5.674   5.020  16.306  0.00  0.00    +0.000 A 
BRANCH  17  24
ATOM     23  C   UNL     1       7.663   7.774  17.472  0.00  0.00    +0.000 C 
ATOM     24  O   UNL     1       7.434   6.613  16.672  0.00  0.00    +0.000 OA
ENDBRANCH  17  24
BRANCH  22  25
ATOM     25  O   UNL     1       5.570   5.104  14.943  0.00  0.00    +0.000 OA
ATOM     26  C   UNL     1       6.502   4.412  14.128  0.00  0.00    +0.000 C 
ENDBRANCH  22  25
ENDBRANCH  16  20
ENDBRANCH  15  16
ENDBRANCH  11  15
ENDBRANCH   1  12
BRANCH   6  27
ATOM     27  S   UNL     1       0.440  12.614  19.788  0.00  0.00    +0.000 S 
ATOM     28  O   UNL     1      -0.224  12.603  18.504  0.00  0.00    +0.000 OA
ATOM     29  O   UNL     1      -0.125  13.293  20.932  0.00  0.00    +0.000 OA
BRANCH  27  30
ATOM     30  N   UNL     1       2.022  13.216  19.561  0.00  0.00    +0.000 NA
ATOM     31  C   UNL     1       2.735  13.757  20.759  0.00  0.00    +0.000 C 
ATOM     32  C   UNL     1       2.431  15.243  20.980  0.00  0.00    +0.000 C 
ATOM     33  O   UNL     1       2.768  16.014  19.818  0.00  0.00    +0.000 OA
ATOM     34  C   UNL     1       1.994  15.582  18.691  0.00  0.00    +0.000 C 
ATOM     35  C   UNL     1       2.246  14.104  18.373  0.00  0.00    +0.000 C 
ENDBRANCH  27  30
ENDBRANCH   6  27
TORSDOF 8
ENDMDL
MODEL 4
REMARK VINA RESULT:      -7.8      2.911      3.781
REMARK  Name = 
REMARK  11 active torsions:
REMARK  status: ('A' for Active; 'I' for Inactive)
REMARK    1  A    between atoms: C_1  and  O_2
REMARK    2  A    between atoms: O_2  and  C_3
REMARK    3  A    between atoms: C_6  and  C_7
REMARK    4  A    between atoms: C_7  and  C_8
REMARK    5  A    between atoms: C_8  and  N_9
REMARK    6  A    between atoms: C_10  and  C_12
REMARK    7  A    between atoms: C_17  and  S_18
REMARK    8  A    between atoms: S_18  and  N_21
REMARK    9  A    between atoms: C_29  and  C_30
REMARK   10  A    between atoms: C_32  and  O_33
REMARK   11  A    between atoms: O_33  and  C_34
REMARK                            x       y       z     vdW  Elec       q    Type
REMARK                         _______ _______ _______ _____ _____    ______ ____
ROOT
ATOM      1  C   UNL     1       1.198   8.516  20.499  0.00  0.00    +0.000 A 
ATOM      2  O   UNL     1       0.816   8.681  21.801  0.00  0.00    +0.000 OA
ATOM      3  C   UNL     1       0.023   9.776  21.861  0.00  0.00    +0.000 A 
ATOM      4  C   UNL     1      -0.536  10.274  23.038  0.00  0.00    +0.000 A 
ATOM      5  C   UNL     1      -1.384  11.375  22.923  0.00  0.00    +0.000 A 
ATOM      6  C   UNL     1      -1.665  11.931  21.669  0.00  0.00    +0.000 A 
ATOM      7  C   UNL     1      -1.051  11.440  20.489  0.00  0.00    +0.000 A 
ATOM      8  C   UNL     1      -0.171  10.329  20.599  0.00  0.00    +0.000 A 
ATOM      9  C   UNL     1       0.676   9.556  19.725  0.00  0.00    +0.000 A 
ATOM     10  C   UNL     1       0.972   9.788  18.287  0.00  0.00    +0.000 C 
ENDROOT
BRANCH   1  12
ATOM     11  N   UNL     1       1.765   6.221  20.904  0.00  0.00    +0.000 N 
ATOM     12  C   UNL     1       2.032   7.366  20.166  0.00  0.00    +0.000 C 
ATOM     13  O   UNL     1       2.892   7.383  19.288  0.00  0.00    +0.000 OA
ATOM     14  H   UNL     1       1.008   6.270  21.576  0.00  0.00    +0.000 HD
BRANCH  11  15
ATOM     15  C   UNL     1       2.470   4.970  20.662  0.00  0.00    +0.000 C 
BRANCH  15  16
ATOM     16  C   UNL     1       2.219   4.373  19.269  0.00  0.00    +0.000 C 
BRANCH  16  20
ATOM     17  C   UNL     1       5.876   4.348  16.931  0.00  0.00    +0.000 A 
ATOM     18  C   UNL     1       4.637   4.069  16.331  0.00  0.00    +0.000 A 
ATOM     19  C   UNL     1       3.458   4.055  17.082  0.00  0.00    +0.000 A 
ATOM     20  C   UNL     1       3.493   4.280  18.457  0.00  0.00    +0.000 A 
ATOM     21  C   UNL     1       4.744   4.461  19.067  0.00  0.00    +0.000 A 
ATOM     22  C   UNL     1       5.939   4.488  18.324  0.00  0.00    +0.000 A 
BRANCH  17  24
ATOM     23  C   UNL     1       6.805   4.584  14.770  0.00  0.00    +0.000 C 
ATOM     24  O   UNL     1       7.015   4.457  16.176  0.00  0.00    +0.000 OA
ENDBRANCH  17  24
BRANCH  22  25
ATOM     25  O   UNL     1       7.033   4.681  19.125  0.00  0.00    +0.000 OA
ATOM     26  C   UNL     1       7.745   5.905  19.051  0.00  0.00    +0.000 C 
ENDBRANCH  22  25
ENDBRANCH  16  20
ENDBRANCH  15  16
ENDBRANCH  11  15
ENDBRANCH   1  12
BRANCH   6  27
ATOM     27  S   UNL     1      -2.825  13.302  21.624  0.00  0.00    +0.000 S 
ATOM     28  O   UNL     1      -2.091  14.446  21.131  0.00  0.00    +0.000 OA
ATOM     29  O   UNL     1      -4.038  12.843  20.985  0.00  0.00    +0.000 OA
BRANCH  27  30
ATOM     30  N   UNL     1      -3.181  13.570  23.272  0.00  0.00    +0.000 NA
ATOM     31  C   UNL     1      -4.591  13.356  23.719  0.00  0.00    +0.000 C 
ATOM     32  C   UNL     1      -5.441  14.620  23.551  0.00  0.00    +0.000 C 
ATOM     33  O   UNL     1      -4.863  15.724  24.261  0.00  0.00    +0.000 OA
ATOM     34  C   UNL     1      -3.555  16.017  23.751  0.00  0.00    +0.000 C 
ATOM     35  C   UNL     1      -2.617  14.813  23.895  0.00  0.00    +0.000 C 
ENDBRANCH  27  30
ENDBRANCH   6  27
TORSDOF 8
ENDMDL
MODEL 5
REMARK VINA RESULT:      -7.8      3.442     10.814
REMARK  Name = 
REMARK  11 active torsions:
REMARK  status: ('A' for Active; 'I' for Inactive)
REMARK    1  A    between atoms: C_1  and  O_2
REMARK    2  A    between atoms: O_2  and  C_3
REMARK    3  A    between atoms: C_6  and  C_7
REMARK    4  A    between atoms: C_7  and  C_8
REMARK    5  A    between atoms: C_8  and  N_9
REMARK    6  A    between atoms: C_10  and  C_12
REMARK    7  A    between atoms: C_17  and  S_18
REMARK    8  A    between atoms: S_18  and  N_21
REMARK    9  A    between atoms: C_29  and  C_30
REMARK   10  A    between atoms: C_32  and  O_33
REMARK   11  A    between atoms: O_33  and  C_34
REMARK                            x       y       z     vdW  Elec       q    Type
REMARK                         _______ _______ _______ _____ _____    ______ ____
ROOT
ATOM      1  C   UNL     1       1.053   9.477  20.273  0.00  0.00    +0.000 A 
ATOM      2  O   UNL     1       0.995   8.343  21.035  0.00  0.00    +0.000 OA
ATOM      3  C   UNL     1       1.624   7.357  20.353  0.00  0.00    +0.000 A 
ATOM      4  C   UNL     1       1.739   6.043  20.807  0.00  0.00    +0.000 A 
ATOM      5  C   UNL     1       2.473   5.159  20.016  0.00  0.00    +0.000 A 
ATOM      6  C   UNL     1       3.075   5.597  18.829  0.00  0.00    +0.000 A 
ATOM      7  C   UNL     1       2.907   6.924  18.361  0.00  0.00    +0.000 A 
ATOM      8  C   UNL     1       2.146   7.826  19.152  0.00  0.00    +0.000 A 
ATOM      9  C   UNL     1       1.689   9.192  19.061  0.00  0.00    +0.000 A 
ATOM     10  C   UNL     1       1.833  10.138  17.924  0.00  0.00    +0.000 C 
ENDROOT
BRANCH   1  12
ATOM     11  N   UNL     1      -0.900  10.810  20.676  0.00  0.00    +0.000 N 
ATOM     12  C   UNL     1       0.478  10.702  20.815  0.00  0.00    +0.000 C 
ATOM     13  O   UNL     1       1.140  11.573  21.377  0.00  0.00    +0.000 OA
ATOM     14  H   UNL     1      -1.382  10.030  20.246  0.00  0.00    +0.000 HD
BRANCH  11  15
ATOM     15  C   UNL     1      -1.639  11.946  21.208  0.00  0.00    +0.000 C 
BRANCH  15  16
ATOM     16  C   UNL     1      -2.008  11.808  22.693  0.00  0.00    +0.000 C 
BRANCH  16  20
ATOM     17  C   UNL     1      -2.244  15.577  24.832  0.00  0.00    +0.000 A 
ATOM     18  C   UNL     1      -3.365  14.738  24.729  0.00  0.00    +0.000 A 
ATOM     19  C   UNL     1      -3.302  13.532  24.024  0.00  0.00    +0.000 A 
ATOM     20  C   UNL     1      -2.129  13.155  23.371  0.00  0.00    +0.000 A 
ATOM     21  C   UNL     1      -1.043  14.043  23.396  0.00  0.00    +0.000 A 
ATOM     22  C   UNL     1      -1.087  15.256  24.109  0.00  0.00    +0.000 A 
BRANCH  17  24
ATOM     23  C   UNL     1      -3.323  17.630  25.287  0.00  0.00    +0.000 C 
ATOM     24  O   UNL     1      -2.280  16.709  25.604  0.00  0.00    +0.000 OA
ENDBRANCH  17  24
BRANCH  22  25
ATOM     25  O   UNL     1       0.085  15.957  23.995  0.00  0.00    +0.000 OA
ATOM     26  C   UNL     1       0.717  16.058  22.729  0.00  0.00    +0.000 C 
ENDBRANCH  22  25
ENDBRANCH  16  20
ENDBRANCH  15  16
ENDBRANCH  11  15
ENDBRANCH   1  12
BRANCH   6  27
ATOM     27  S   UNL     1       4.057   4.397  17.921  0.00  0.00    +0.000 S 
ATOM     28  O   UNL     1       4.779   3.625  18.908  0.00  0.00    +0.000 OA
ATOM     29  O   UNL     1       3.203   3.769  16.939  0.00  0.00    +0.000 OA
BRANCH  27  30
ATOM     30  N   UNL     1       5.183   5.366  17.080  0.00  0.00    +0.000 NA
ATOM     31  C   UNL     1       5.470   5.016  15.655  0.00  0.00    +0.000 C 
ATOM     32  C   UNL     1       6.596   3.982  15.538  0.00  0.00    +0.000 C 
ATOM     33  O   UNL     1       7.790   4.450  16.179  0.00  0.00    +0.000 OA
ATOM     34  C   UNL     1       7.555   4.670  17.576  0.00  0.00    +0.000 C 
ATOM     35  C   UNL     1       6.453   5.712  17.800  0.00  0.00    +0.000 C 
ENDBRANCH  27  30
ENDBRANCH   6  27
TORSDOF 8
ENDMDL
MODEL 6
REMARK VINA RESULT:      -7.8      2.295      3.244
REMARK  Name = 
REMARK  11 active torsions:
REMARK  status: ('A' for Active; 'I' for Inactive)
REMARK    1  A    between atoms: C_1  and  O_2
REMARK    2  A    between atoms: O_2  and  C_3
REMARK    3  A    between atoms: C_6  and  C_7
REMARK    4  A    between atoms: C_7  and  C_8
REMARK    5  A    between atoms: C_8  and  N_9
REMARK    6  A    between atoms: C_10  and  C_12
REMARK    7  A    between atoms: C_17  and  S_18
REMARK    8  A    between atoms: S_18  and  N_21
REMARK    9  A    between atoms: C_29  and  C_30
REMARK   10  A    between atoms: C_32  and  O_33
REMARK   11  A    between atoms: O_33  and  C_34
REMARK                            x       y       z     vdW  Elec       q    Type
REMARK                         _______ _______ _______ _____ _____    ______ ____
ROOT
ATOM      1  C   UNL     1       1.572   8.188  20.269  0.00  0.00    +0.000 A 
ATOM      2  O   UNL     1       1.198   8.166  21.584  0.00  0.00    +0.000 OA
ATOM      3  C   UNL     1       0.409   9.244  21.804  0.00  0.00    +0.000 A 
ATOM      4  C   UNL     1      -0.141   9.571  23.043  0.00  0.00    +0.000 A 
ATOM      5  C   UNL     1      -0.986  10.680  23.091  0.00  0.00    +0.000 A 
ATOM      6  C   UNL     1      -1.271  11.410  21.931  0.00  0.00    +0.000 A 
ATOM      7  C   UNL     1      -0.665  11.090  20.690  0.00  0.00    +0.000 A 
ATOM      8  C   UNL     1       0.211   9.972  20.635  0.00  0.00    +0.000 A 
ATOM      9  C   UNL     1       1.050   9.329  19.654  0.00  0.00    +0.000 A 
ATOM     10  C   UNL     1       1.340   9.763  18.262  0.00  0.00    +0.000 C 
ENDROOT
BRANCH   1  12
ATOM     11  N   UNL     1       2.391   5.952  20.559  0.00  0.00    +0.000 N 
ATOM     12  C   UNL     1       2.399   7.094  19.770  0.00  0.00    +0.000 C 
ATOM     13  O   UNL     1       3.042   7.152  18.724  0.00  0.00    +0.000 OA
ATOM     14  H   UNL     1       1.798   5.962  21.381  0.00  0.00    +0.000 HD
BRANCH  11  15
ATOM     15  C   UNL     1       3.121   4.751  20.179  0.00  0.00    +0.000 C 
BRANCH  15  16
ATOM     16  C   UNL     1       2.832   4.273  18.747  0.00  0.00    +0.000 C 
BRANCH  16  20
ATOM     17  C   UNL     1       6.414   4.485  16.305  0.00  0.00    +0.000 A 
ATOM     18  C   UNL     1       5.161   4.228  15.723  0.00  0.00    +0.000 A 
ATOM     19  C   UNL     1       4.006   4.138  16.507  0.00  0.00    +0.000 A 
ATOM     20  C   UNL     1       4.082   4.263  17.893  0.00  0.00    +0.000 A 
ATOM     21  C   UNL     1       5.347   4.422  18.477  0.00  0.00    +0.000 A 
ATOM     22  C   UNL     1       6.518   4.525  17.702  0.00  0.00    +0.000 A 
BRANCH  17  24
ATOM     23  C   UNL     1       7.274   4.833  14.131  0.00  0.00    +0.000 C 
ATOM     24  O   UNL     1       7.526   4.670  15.526  0.00  0.00    +0.000 OA
ENDBRANCH  17  24
BRANCH  22  25
ATOM     25  O   UNL     1       7.634   4.681  18.482  0.00  0.00    +0.000 OA
ATOM     26  C   UNL     1       7.758   5.833  19.300  0.00  0.00    +0.000 C 
ENDBRANCH  22  25
ENDBRANCH  16  20
ENDBRANCH  15  16
ENDBRANCH  11  15
ENDBRANCH   1  12
BRANCH   6  27
ATOM     27  S   UNL     1      -2.426  12.776  22.088  0.00  0.00    +0.000 S 
ATOM     28  O   UNL     1      -3.478  12.539  21.125  0.00  0.00    +0.000 OA
ATOM     29  O   UNL     1      -2.709  12.966  23.493  0.00  0.00    +0.000 OA
BRANCH  27  30
ATOM     30  N   UNL     1      -1.518  14.122  21.559  0.00  0.00    +0.000 NA
ATOM     31  C   UNL     1      -0.326  14.515  22.372  0.00  0.00    +0.000 C 
ATOM     32  C   UNL     1      -0.699  15.482  23.501  0.00  0.00    +0.000 C 
ATOM     33  O   UNL     1      -1.346  16.651  22.982  0.00  0.00    +0.000 OA
ATOM     34  C   UNL     1      -2.560  16.293  22.307  0.00  0.00    +0.000 C 
ATOM     35  C   UNL     1      -2.289  15.338  21.138  0.00  0.00    +0.000 C 
ENDBRANCH  27  30
ENDBRANCH   6  27
TORSDOF 8
ENDMDL
MODEL 7
REMARK VINA RESULT:      -7.8      1.893      2.793
REMARK  Name = 
REMARK  11 active torsions:
REMARK  status: ('A' for Active; 'I' for Inactive)
REMARK    1  A    between atoms: C_1  and  O_2
REMARK    2  A    between atoms: O_2  and  C_3
REMARK    3  A    between atoms: C_6  and  C_7
REMARK    4  A    between atoms: C_7  and  C_8
REMARK    5  A    between atoms: C_8  and  N_9
REMARK    6  A    between atoms: C_10  and  C_12
REMARK    7  A    between atoms: C_17  and  S_18
REMARK    8  A    between atoms: S_18  and  N_21
REMARK    9  A    between atoms: C_29  and  C_30
REMARK   10  A    between atoms: C_32  and  O_33
REMARK   11  A    between atoms: O_33  and  C_34
REMARK                            x       y       z     vdW  Elec       q    Type
REMARK                         _______ _______ _______ _____ _____    ______ ____
ROOT
ATOM      1  C   UNL     1       1.765   7.857  19.821  0.00  0.00    +0.000 A 
ATOM      2  O   UNL     1       1.354   7.807  21.125  0.00  0.00    +0.000 OA
ATOM      3  C   UNL     1       0.765   8.990  21.414  0.00  0.00    +0.000 A 
ATOM      4  C   UNL     1       0.246   9.320  22.667  0.00  0.00    +0.000 A 
ATOM      5  C   UNL     1      -0.388  10.556  22.788  0.00  0.00    +0.000 A 
ATOM      6  C   UNL     1      -0.504  11.409  21.682  0.00  0.00    +0.000 A 
ATOM      7  C   UNL     1       0.071  11.076  20.430  0.00  0.00    +0.000 A 
ATOM      8  C   UNL     1       0.734   9.826  20.303  0.00  0.00    +0.000 A 
ATOM      9  C   UNL     1       1.473   9.115  19.288  0.00  0.00    +0.000 A 
ATOM     10  C   UNL     1       1.876   9.590  17.938  0.00  0.00    +0.000 C 
ENDROOT
BRANCH   1  12
ATOM     11  N   UNL     1       2.793   5.720  20.183  0.00  0.00    +0.000 N 
ATOM     12  C   UNL     1       2.397   6.671  19.253  0.00  0.00    +0.000 C 
ATOM     13  O   UNL     1       2.555   6.499  18.046  0.00  0.00    +0.000 OA
ATOM     14  H   UNL     1       2.586   5.911  21.156  0.00  0.00    +0.000 HD
BRANCH  11  15
ATOM     15  C   UNL     1       3.394   4.456  19.780  0.00  0.00    +0.000 C 
BRANCH  15  16
ATOM     16  C   UNL     1       4.929   4.485  19.725  0.00  0.00    +0.000 C 
BRANCH  16  20
ATOM     17  C   UNL     1       6.242   5.222  15.654  0.00  0.00    +0.000 A 
ATOM     18  C   UNL     1       5.325   4.197  15.939  0.00  0.00    +0.000 A 
ATOM     19  C   UNL     1       4.913   3.941  17.251  0.00  0.00    +0.000 A 
ATOM     20  C   UNL     1       5.438   4.676  18.313  0.00  0.00    +0.000 A 
ATOM     21  C   UNL     1       6.426   5.631  18.033  0.00  0.00    +0.000 A 
ATOM     22  C   UNL     1       6.844   5.909  16.717  0.00  0.00    +0.000 A 
BRANCH  17  24
ATOM     23  C   UNL     1       6.893   4.422  13.527  0.00  0.00    +0.000 C 
ATOM     24  O   UNL     1       6.568   5.534  14.361  0.00  0.00    +0.000 OA
ENDBRANCH  17  24
BRANCH  22  25
ATOM     25  O   UNL     1       7.812   6.878  16.684  0.00  0.00    +0.000 OA
ATOM     26  C   UNL     1       7.646   8.057  17.456  0.00  0.00    +0.000 C 
ENDBRANCH  22  25
ENDBRANCH  16  20
ENDBRANCH  15  16
ENDBRANCH  11  15
ENDBRANCH   1  12
BRANCH   6  27
ATOM     27  S   UNL     1      -1.400  12.946  21.927  0.00  0.00    +0.000 S 
ATOM     28  O   UNL     1      -1.708  13.457  20.610  0.00  0.00    +0.000 OA
ATOM     29  O   UNL     1      -2.430  12.713  22.914  0.00  0.00    +0.000 OA
BRANCH  27  30
ATOM     30  N   UNL     1      -0.233  13.973  22.634  0.00  0.00    +0.000 NA
ATOM     31  C   UNL     1      -0.725  15.189  23.351  0.00  0.00    +0.000 C 
ATOM     32  C   UNL     1      -0.890  16.383  22.403  0.00  0.00    +0.000 C 
ATOM     33  O   UNL     1       0.342  16.675  21.729  0.00  0.00    +0.000 OA
ATOM     34  C   UNL     1       0.756  15.554  20.937  0.00  0.00    +0.000 C 
ATOM     35  C   UNL     1       0.970  14.307  21.802  0.00  0.00    +0.000 C 
ENDBRANCH  27  30
ENDBRANCH   6  27
TORSDOF 8
ENDMDL
MODEL 8
REMARK VINA RESULT:      -7.8      3.808     10.458
REMARK  Name = 
REMARK  11 active torsions:
REMARK  status: ('A' for Active; 'I' for Inactive)
REMARK    1  A    between atoms: C_1  and  O_2
REMARK    2  A    between atoms: O_2  and  C_3
REMARK    3  A    between atoms: C_6  and  C_7
REMARK    4  A    between atoms: C_7  and  C_8
REMARK    5  A    between atoms: C_8  and  N_9
REMARK    6  A    between atoms: C_10  and  C_12
REMARK    7  A    between atoms: C_17  and  S_18
REMARK    8  A    between atoms: S_18  and  N_21
REMARK    9  A    between atoms: C_29  and  C_30
REMARK   10  A    between atoms: C_32  and  O_33
REMARK   11  A    between atoms: O_33  and  C_34
REMARK                            x       y       z     vdW  Elec       q    Type
REMARK                         _______ _______ _______ _____ _____    ______ ____
ROOT
ATOM      1  C   UNL     1       1.005   8.961  20.737  0.00  0.00    +0.000 A 
ATOM      2  O   UNL     1       1.060   7.784  21.430  0.00  0.00    +0.000 OA
ATOM      3  C   UNL     1       1.684   6.875  20.644  0.00  0.00    +0.000 A 
ATOM      4  C   UNL     1       1.898   5.545  21.006  0.00  0.00    +0.000 A 
ATOM      5  C   UNL     1       2.614   4.749  20.111  0.00  0.00    +0.000 A 
ATOM      6  C   UNL     1       3.102   5.287  18.914  0.00  0.00    +0.000 A 
ATOM      7  C   UNL     1       2.834   6.628  18.542  0.00  0.00    +0.000 A 
ATOM      8  C   UNL     1       2.090   7.440  19.440  0.00  0.00    +0.000 A 
ATOM      9  C   UNL     1       1.561   8.782  19.467  0.00  0.00    +0.000 A 
ATOM     10  C   UNL     1       1.572   9.799  18.383  0.00  0.00    +0.000 C 
ENDROOT
BRANCH   1  12
ATOM     11  N   UNL     1      -0.414  10.890  20.585  0.00  0.00    +0.000 N 
ATOM     12  C   UNL     1       0.412  10.121  21.394  0.00  0.00    +0.000 C 
ATOM     13  O   UNL     1       0.597  10.398  22.577  0.00  0.00    +0.000 OA
ATOM     14  H   UNL     1      -0.556  10.570  19.634  0.00  0.00    +0.000 HD
BRANCH  11  15
ATOM     15  C   UNL     1      -1.125  12.052  21.098  0.00  0.00    +0.000 C 
BRANCH  15  16
ATOM     16  C   UNL     1      -1.716  12.954  20.004  0.00  0.00    +0.000 C 
BRANCH  16  20
ATOM     17  C   UNL     1      -5.729  11.577  19.086  0.00  0.00    +0.000 A 
ATOM     18  C   UNL     1      -4.631  11.155  18.318  0.00  0.00    +0.000 A 
ATOM     19  C   UNL     1      -3.338  11.611  18.595  0.00  0.00    +0.000 A 
ATOM     20  C   UNL     1      -3.118  12.530  19.621  0.00  0.00    +0.000 A 
ATOM     21  C   UNL     1      -4.229  13.021  20.321  0.00  0.00    +0.000 A 
ATOM     22  C   UNL     1      -5.536  12.565  20.061  0.00  0.00    +0.000 A 
BRANCH  17  24
ATOM     23  C   UNL     1      -7.097   9.649  19.097  0.00  0.00    +0.000 C 
ATOM     24  O   UNL     1      -6.978  11.054  18.875  0.00  0.00    +0.000 OA
ENDBRANCH  17  24
BRANCH  22  25
ATOM     25  O   UNL     1      -6.459  13.179  20.866  0.00  0.00    +0.000 OA
ATOM     26  C   UNL     1      -6.819  12.578  22.099  0.00  0.00    +0.000 C 
ENDBRANCH  22  25
ENDBRANCH  16  20
ENDBRANCH  15  16
ENDBRANCH  11  15
ENDBRANCH   1  12
BRANCH   6  27
ATOM     27  S   UNL     1       4.071   4.196  17.865  0.00  0.00    +0.000 S 
ATOM     28  O   UNL     1       4.864   3.372  18.750  0.00  0.00    +0.000 OA
ATOM     29  O   UNL     1       3.187   3.621  16.876  0.00  0.00    +0.000 OA
BRANCH  27  30
ATOM     30  N   UNL     1       5.125   5.267  17.053  0.00  0.00    +0.000 NA
ATOM     31  C   UNL     1       5.377   5.020  15.600  0.00  0.00    +0.000 C 
ATOM     32  C   UNL     1       6.541   4.047  15.380  0.00  0.00    +0.000 C 
ATOM     33  O   UNL     1       7.736   4.527  16.011  0.00  0.00    +0.000 OA
ATOM     34  C   UNL     1       7.540   4.647  17.427  0.00  0.00    +0.000 C 
ATOM     35  C   UNL     1       6.403   5.622  17.753  0.00  0.00    +0.000 C 
ENDBRANCH  27  30
ENDBRANCH   6  27
TORSDOF 8
ENDMDL
MODEL 9
REMARK VINA RESULT:      -7.7      3.463     10.618
REMARK  Name = 
REMARK  11 active torsions:
REMARK  status: ('A' for Active; 'I' for Inactive)
REMARK    1  A    between atoms: C_1  and  O_2
REMARK    2  A    between atoms: O_2  and  C_3
REMARK    3  A    between atoms: C_6  and  C_7
REMARK    4  A    between atoms: C_7  and  C_8
REMARK    5  A    between atoms: C_8  and  N_9
REMARK    6  A    between atoms: C_10  and  C_12
REMARK    7  A    between atoms: C_17  and  S_18
REMARK    8  A    between atoms: S_18  and  N_21
REMARK    9  A    between atoms: C_29  and  C_30
REMARK   10  A    between atoms: C_32  and  O_33
REMARK   11  A    between atoms: O_33  and  C_34
REMARK                            x       y       z     vdW  Elec       q    Type
REMARK                         _______ _______ _______ _____ _____    ______ ____
ROOT
ATOM      1  C   UNL     1       0.914   9.201  20.513  0.00  0.00    +0.000 A 
ATOM      2  O   UNL     1       0.924   8.038  21.232  0.00  0.00    +0.000 OA
ATOM      3  C   UNL     1       1.593   7.112  20.506  0.00  0.00    +0.000 A 
ATOM      4  C   UNL     1       1.783   5.790  20.908  0.00  0.00    +0.000 A 
ATOM      5  C   UNL     1       2.550   4.976  20.075  0.00  0.00    +0.000 A 
ATOM      6  C   UNL     1       3.112   5.487  18.899  0.00  0.00    +0.000 A 
ATOM      7  C   UNL     1       2.869   6.820  18.484  0.00  0.00    +0.000 A 
ATOM      8  C   UNL     1       2.073   7.652  19.317  0.00  0.00    +0.000 A 
ATOM      9  C   UNL     1       1.546   8.994  19.283  0.00  0.00    +0.000 A 
ATOM     10  C   UNL     1       1.625   9.988  18.181  0.00  0.00    +0.000 C 
ENDROOT
BRANCH   1  12
ATOM     11  N   UNL     1       0.887  11.583  20.791  0.00  0.00    +0.000 N 
ATOM     12  C   UNL     1       0.283  10.374  21.108  0.00  0.00    +0.000 C 
ATOM     13  O   UNL     1      -0.719  10.319  21.818  0.00  0.00    +0.000 OA
ATOM     14  H   UNL     1       1.680  11.552  20.161  0.00  0.00    +0.000 HD
BRANCH  11  15
ATOM     15  C   UNL     1       0.354  12.854  21.261  0.00  0.00    +0.000 C 
BRANCH  15  16
ATOM     16  C   UNL     1      -0.725  13.453  20.346  0.00  0.00    +0.000 C 
BRANCH  16  20
ATOM     17  C   UNL     1      -4.644  12.718  22.059  0.00  0.00    +0.000 A 
ATOM     18  C   UNL     1      -4.439  12.637  20.672  0.00  0.00    +0.000 A 
ATOM     19  C   UNL     1      -3.184  12.893  20.111  0.00  0.00    +0.000 A 
ATOM     20  C   UNL     1      -2.114  13.275  20.919  0.00  0.00    +0.000 A 
ATOM     21  C   UNL     1      -2.348  13.448  22.292  0.00  0.00    +0.000 A 
ATOM     22  C   UNL     1      -3.603  13.185  22.873  0.00  0.00    +0.000 A 
BRANCH  17  24
ATOM     23  C   UNL     1      -6.866  13.370  22.536  0.00  0.00    +0.000 C 
ATOM     24  O   UNL     1      -5.848  12.372  22.614  0.00  0.00    +0.000 OA
ENDBRANCH  17  24
BRANCH  22  25
ATOM     25  O   UNL     1      -3.598  13.419  24.223  0.00  0.00    +0.000 OA
ATOM     26  C   UNL     1      -3.075  14.641  24.718  0.00  0.00    +0.000 C 
ENDBRANCH  22  25
ENDBRANCH  16  20
ENDBRANCH  15  16
ENDBRANCH  11  15
ENDBRANCH   1  12
BRANCH   6  27
ATOM     27  S   UNL     1       4.141   4.375  17.935  0.00  0.00    +0.000 S 
ATOM     28  O   UNL     1       4.853   3.547  18.883  0.00  0.00    +0.000 OA
ATOM     29  O   UNL     1       3.326   3.803  16.887  0.00  0.00    +0.000 OA
BRANCH  27  30
ATOM     30  N   UNL     1       5.269   5.423  17.196  0.00  0.00    +0.000 NA
ATOM     31  C   UNL     1       5.494   5.272  15.726  0.00  0.00    +0.000 C 
ATOM     32  C   UNL     1       6.581   4.235  15.420  0.00  0.00    +0.000 C 
ATOM     33  O   UNL     1       7.812   4.575  16.073  0.00  0.00    +0.000 OA
ATOM     34  C   UNL     1       7.632   4.599  17.496  0.00  0.00    +0.000 C 
ATOM     35  C   UNL     1       6.573   5.628  17.908  0.00  0.00    +0.000 C 
ENDBRANCH  27  30
ENDBRANCH   6  27
TORSDOF 8
ENDMDL
