MODEL 1
REMARK VINA RESULT:      -8.4      0.000      0.000
REMARK  Name = 
REMARK  12 active torsions:
REMARK  status: ('A' for Active; 'I' for Inactive)
REMARK    1  A    between atoms: C_1  and  O_2
REMARK    2  A    between atoms: O_2  and  C_3
REMARK    3  A    between atoms: C_6  and  C_7
REMARK    4  A    between atoms: C_13  and  C_14
REMARK    5  A    between atoms: C_18  and  C_19
REMARK    6  A    between atoms: N_21  and  C_22
REMARK    7  A    between atoms: C_22  and  C_23
REMARK    8  A    between atoms: C_23  and  N_24
REMARK    9  A    between atoms: N_24  and  C_25
REMARK   10  A    between atoms: N_24  and  C_26
REMARK   11  A    between atoms: C_31  and  O_32
REMARK   12  A    between atoms: O_32  and  C_33
REMARK                            x       y       z     vdW  Elec       q    Type
REMARK                         _______ _______ _______ _____ _____    ______ ____
ROOT
ATOM      1  C   UNL     1       2.103   6.425  20.112  0.00  0.00    +0.000 A 
ATOM      2  C   UNL     1       1.182   5.558  20.907  0.00  0.00    +0.000 A 
ATOM      3  C   UNL     1       1.479   4.256  20.998  0.00  0.00    +0.000 A 
ATOM      4  C   UNL     1       2.640   3.761  20.368  0.00  0.00    +0.000 A 
ATOM      5  N   UNL     1       3.134   2.545  20.324  0.00  0.00    +0.000 NA
ATOM      6  C   UNL     1       4.296   2.667  19.608  0.00  0.00    +0.000 A 
ATOM      7  C   UNL     1       4.524   3.970  19.189  0.00  0.00    +0.000 A 
ATOM      8  N   UNL     1       3.437   4.671  19.691  0.00  0.00    +0.000 N 
ATOM      9  N   UNL     1       3.199   6.012  19.548  0.00  0.00    +0.000 NA
ENDROOT
BRANCH   1  13
ATOM     10  C   UNL     1       0.863  10.522  19.619  0.00  0.00    +0.000 A 
ATOM     11  C   UNL     1       1.398   9.792  18.546  0.00  0.00    +0.000 A 
ATOM     12  C   UNL     1       1.805   8.465  18.711  0.00  0.00    +0.000 A 
ATOM     13  C   UNL     1       1.725   7.863  19.966  0.00  0.00    +0.000 A 
ATOM     14  C   UNL     1       1.243   8.606  21.047  0.00  0.00    +0.000 A 
ATOM     15  C   UNL     1       0.828   9.937  20.894  0.00  0.00    +0.000 A 
BRANCH  10  17
ATOM     16  C   UNL     1       1.388  12.789  19.194  0.00  0.00    +0.000 C 
ATOM     17  O   UNL     1       0.395  11.796  19.446  0.00  0.00    +0.000 OA
ENDBRANCH  10  17
BRANCH  15  18
ATOM     18  O   UNL     1       0.406  10.470  22.081  0.00  0.00    +0.000 OA
ATOM     19  C   UNL     1      -0.215   9.632  23.042  0.00  0.00    +0.000 C 
ENDBRANCH  15  18
ENDBRANCH   1  13
BRANCH   7  20
ATOM     20  C   UNL     1       5.658   4.546  18.456  0.00  0.00    +0.000 A 
ATOM     21  C   UNL     1       6.571   5.371  19.128  0.00  0.00    +0.000 A 
ATOM     22  C   UNL     1       7.625   5.978  18.445  0.00  0.00    +0.000 A 
ATOM     23  C   UNL     1       7.773   5.770  17.075  0.00  0.00    +0.000 A 
ATOM     24  C   UNL     1       6.890   4.935  16.377  0.00  0.00    +0.000 A 
ATOM     25  C   UNL     1       5.848   4.312  17.082  0.00  0.00    +0.000 A 
BRANCH  24  26
ATOM     26  C   UNL     1       7.088   4.798  14.901  0.00  0.00    +0.000 C 
ATOM     27  O   UNL     1       7.802   5.607  14.313  0.00  0.00    +0.000 OA
ATOM     28  N   UNL     1       6.441   3.774  14.242  0.00  0.00    +0.000 N 
ATOM     29  H   UNL     1       5.930   3.055  14.736  0.00  0.00    +0.000 HD
BRANCH  28  30
ATOM     30  C   UNL     1       6.556   3.592  12.807  0.00  0.00    +0.000 C 
BRANCH  30  31
ATOM     31  C   UNL     1       5.225   3.866  12.085  0.00  0.00    +0.000 C 
BRANCH  31  32
ATOM     32  N   UNL     1       4.884   2.901  11.011  0.00  0.00    +0.000 NA
ATOM     33  C   UNL     1       5.453   1.576  11.263  0.00  0.00    +0.000 C 
ATOM     34  C   UNL     1       3.424   2.795  10.909  0.00  0.00    +0.000 C 
ENDBRANCH  31  32
ENDBRANCH  30  31
ENDBRANCH  28  30
ENDBRANCH  24  26
ENDBRANCH   7  20
TORSDOF 8
ENDMDL
MODEL 2
REMARK VINA RESULT:      -8.2      2.663      9.587
REMARK  Name = 
REMARK  12 active torsions:
REMARK  status: ('A' for Active; 'I' for Inactive)
REMARK    1  A    between atoms: C_1  and  O_2
REMARK    2  A    between atoms: O_2  and  C_3
REMARK    3  A    between atoms: C_6  and  C_7
REMARK    4  A    between atoms: C_13  and  C_14
REMARK    5  A    between atoms: C_18  and  C_19
REMARK    6  A    between atoms: N_21  and  C_22
REMARK    7  A    between atoms: C_22  and  C_23
REMARK    8  A    between atoms: C_23  and  N_24
REMARK    9  A    between atoms: N_24  and  C_25
REMARK   10  A    between atoms: N_24  and  C_26
REMARK   11  A    between atoms: C_31  and  O_32
REMARK   12  A    between atoms: O_32  and  C_33
REMARK                            x       y       z     vdW  Elec       q    Type
REMARK                         _______ _______ _______ _____ _____    ______ ____
ROOT
ATOM      1  C   UNL     1       4.226   3.806  17.713  0.00  0.00    +0.000 A 
ATOM      2  C   UNL     1       4.051   2.343  17.961  0.00  0.00    +0.000 A 
ATOM      3  C   UNL     1       3.173   1.974  18.901  0.00  0.00    +0.000 A 
ATOM      4  C   UNL     1       2.442   2.959  19.598  0.00  0.00    +0.000 A 
ATOM      5  N   UNL     1       1.535   2.842  20.540  0.00  0.00    +0.000 NA
ATOM      6  C   UNL     1       1.143   4.127  20.808  0.00  0.00    +0.000 A 
ATOM      7  C   UNL     1       1.821   5.059  20.034  0.00  0.00    +0.000 A 
ATOM      8  N   UNL     1       2.664   4.283  19.251  0.00  0.00    +0.000 N 
ATOM      9  N   UNL     1       3.546   4.740  18.309  0.00  0.00    +0.000 NA
ENDROOT
BRANCH   1  13
ATOM     10  C   UNL     1       7.071   5.039  14.722  0.00  0.00    +0.000 A 
ATOM     11  C   UNL     1       6.237   3.929  14.515  0.00  0.00    +0.000 A 
ATOM     12  C   UNL     1       5.320   3.528  15.490  0.00  0.00    +0.000 A 
ATOM     13  C   UNL     1       5.255   4.206  16.707  0.00  0.00    +0.000 A 
ATOM     14  C   UNL     1       6.123   5.277  16.935  0.00  0.00    +0.000 A 
ATOM     15  C   UNL     1       7.046   5.692  15.963  0.00  0.00    +0.000 A 
BRANCH  10  17
ATOM     16  C   UNL     1       7.650   4.993  12.428  0.00  0.00    +0.000 C 
ATOM     17  O   UNL     1       7.918   5.481  13.742  0.00  0.00    +0.000 OA
ENDBRANCH  10  17
BRANCH  15  18
ATOM     18  O   UNL     1       7.798   6.746  16.404  0.00  0.00    +0.000 OA
ATOM     19  C   UNL     1       7.379   7.474  17.548  0.00  0.00    +0.000 C 
ENDBRANCH  15  18
ENDBRANCH   1  13
BRANCH   7  20
ATOM     20  C   UNL     1       1.674   6.518  19.960  0.00  0.00    +0.000 A 
ATOM     21  C   UNL     1       2.091   7.199  18.808  0.00  0.00    +0.000 A 
ATOM     22  C   UNL     1       2.017   8.590  18.733  0.00  0.00    +0.000 A 
ATOM     23  C   UNL     1       1.529   9.317  19.816  0.00  0.00    +0.000 A 
ATOM     24  C   UNL     1       1.085   8.666  20.975  0.00  0.00    +0.000 A 
ATOM     25  C   UNL     1       1.143   7.264  21.028  0.00  0.00    +0.000 A 
BRANCH  24  26
ATOM     26  C   UNL     1       0.617   9.517  22.111  0.00  0.00    +0.000 C 
ATOM     27  O   UNL     1       1.297   9.582  23.134  0.00  0.00    +0.000 OA
ATOM     28  N   UNL     1      -0.580  10.189  21.982  0.00  0.00    +0.000 N 
ATOM     29  H   UNL     1      -1.093  10.212  21.110  0.00  0.00    +0.000 HD
BRANCH  28  30
ATOM     30  C   UNL     1      -1.118  11.010  23.050  0.00  0.00    +0.000 C 
BRANCH  30  31
ATOM     31  C   UNL     1      -1.098  12.506  22.690  0.00  0.00    +0.000 C 
BRANCH  31  32
ATOM     32  N   UNL     1      -2.300  13.268  23.107  0.00  0.00    +0.000 NA
ATOM     33  C   UNL     1      -3.333  12.398  23.672  0.00  0.00    +0.000 C 
ATOM     34  C   UNL     1      -1.909  14.273  24.102  0.00  0.00    +0.000 C 
ENDBRANCH  31  32
ENDBRANCH  30  31
ENDBRANCH  28  30
ENDBRANCH  24  26
ENDBRANCH   7  20
TORSDOF 8
ENDMDL
MODEL 3
REMARK VINA RESULT:      -7.9      2.440      9.274
REMARK  Name = 
REMARK  12 active torsions:
REMARK  status: ('A' for Active; 'I' for Inactive)
REMARK    1  A    between atoms: C_1  and  O_2
REMARK    2  A    between atoms: O_2  and  C_3
REMARK    3  A    between atoms: C_6  and  C_7
REMARK    4  A    between atoms: C_13  and  C_14
REMARK    5  A    between atoms: C_18  and  C_19
REMARK    6  A    between atoms: N_21  and  C_22
REMARK    7  A    between atoms: C_22  and  C_23
REMARK    8  A    between atoms: C_23  and  N_24
REMARK    9  A    between atoms: N_24  and  C_25
REMARK   10  A    between atoms: N_24  and  C_26
REMARK   11  A    between atoms: C_31  and  O_32
REMARK   12  A    between atoms: O_32  and  C_33
REMARK                            x       y       z     vdW  Elec       q    Type
REMARK                         _______ _______ _______ _____ _____    ______ ____
ROOT
ATOM      1  C   UNL     1       4.396   3.809  17.830  0.00  0.00    +0.000 A 
ATOM      2  C   UNL     1       4.289   2.352  18.138  0.00  0.00    +0.000 A 
ATOM      3  C   UNL     1       3.441   1.982  19.105  0.00  0.00    +0.000 A 
ATOM      4  C   UNL     1       2.678   2.960  19.775  0.00  0.00    +0.000 A 
ATOM      5  N   UNL     1       1.790   2.841  20.735  0.00  0.00    +0.000 NA
ATOM      6  C   UNL     1       1.346   4.118  20.959  0.00  0.00    +0.000 A 
ATOM      7  C   UNL     1       1.971   5.047  20.139  0.00  0.00    +0.000 A 
ATOM      8  N   UNL     1       2.836   4.278  19.374  0.00  0.00    +0.000 N 
ATOM      9  N   UNL     1       3.684   4.736  18.400  0.00  0.00    +0.000 NA
ENDROOT
BRANCH   1  13
ATOM     10  C   UNL     1       7.141   5.052  14.752  0.00  0.00    +0.000 A 
ATOM     11  C   UNL     1       6.326   3.922  14.583  0.00  0.00    +0.000 A 
ATOM     12  C   UNL     1       5.442   3.518  15.587  0.00  0.00    +0.000 A 
ATOM     13  C   UNL     1       5.392   4.214  16.794  0.00  0.00    +0.000 A 
ATOM     14  C   UNL     1       6.243   5.306  16.984  0.00  0.00    +0.000 A 
ATOM     15  C   UNL     1       7.133   5.724  15.983  0.00  0.00    +0.000 A 
BRANCH  10  17
ATOM     16  C   UNL     1       7.628   5.028  12.436  0.00  0.00    +0.000 C 
ATOM     17  O   UNL     1       7.956   5.494  13.745  0.00  0.00    +0.000 OA
ENDBRANCH  10  17
BRANCH  15  18
ATOM     18  O   UNL     1       7.873   6.801  16.388  0.00  0.00    +0.000 OA
ATOM     19  C   UNL     1       7.550   7.451  17.607  0.00  0.00    +0.000 C 
ENDBRANCH  15  18
ENDBRANCH   1  13
BRANCH   7  20
ATOM     20  C   UNL     1       1.758   6.494  20.011  0.00  0.00    +0.000 A 
ATOM     21  C   UNL     1       2.139   7.148  18.831  0.00  0.00    +0.000 A 
ATOM     22  C   UNL     1       2.002   8.531  18.703  0.00  0.00    +0.000 A 
ATOM     23  C   UNL     1       1.488   9.276  19.762  0.00  0.00    +0.000 A 
ATOM     24  C   UNL     1       1.079   8.651  20.948  0.00  0.00    +0.000 A 
ATOM     25  C   UNL     1       1.200   7.255  21.053  0.00  0.00    +0.000 A 
BRANCH  24  26
ATOM     26  C   UNL     1       0.579   9.523  22.054  0.00  0.00    +0.000 C 
ATOM     27  O   UNL     1       1.029   9.372  23.189  0.00  0.00    +0.000 OA
ATOM     28  N   UNL     1      -0.391  10.460  21.768  0.00  0.00    +0.000 N 
ATOM     29  H   UNL     1      -0.693  10.649  20.821  0.00  0.00    +0.000 HD
BRANCH  28  30
ATOM     30  C   UNL     1      -0.950  11.323  22.791  0.00  0.00    +0.000 C 
BRANCH  30  31
ATOM     31  C   UNL     1      -1.096  12.775  22.300  0.00  0.00    +0.000 C 
BRANCH  31  32
ATOM     32  N   UNL     1       0.181  13.470  22.009  0.00  0.00    +0.000 NA
ATOM     33  C   UNL     1       0.493  13.468  20.578  0.00  0.00    +0.000 C 
ATOM     34  C   UNL     1       0.092  14.855  22.488  0.00  0.00    +0.000 C 
ENDBRANCH  31  32
ENDBRANCH  30  31
ENDBRANCH  28  30
ENDBRANCH  24  26
ENDBRANCH   7  20
TORSDOF 8
ENDMDL
MODEL 4
REMARK VINA RESULT:      -7.8      1.052      1.912
REMARK  Name = 
REMARK  12 active torsions:
REMARK  status: ('A' for Active; 'I' for Inactive)
REMARK    1  A    between atoms: C_1  and  O_2
REMARK    2  A    between atoms: O_2  and  C_3
REMARK    3  A    between atoms: C_6  and  C_7
REMARK    4  A    between atoms: C_13  and  C_14
REMARK    5  A    between atoms: C_18  and  C_19
REMARK    6  A    between atoms: N_21  and  C_22
REMARK    7  A    between atoms: C_22  and  C_23
REMARK    8  A    between atoms: C_23  and  N_24
REMARK    9  A    between atoms: N_24  and  C_25
REMARK   10  A    between atoms: N_24  and  C_26
REMARK   11  A    between atoms: C_31  and  O_32
REMARK   12  A    between atoms: O_32  and  C_33
REMARK                            x       y       z     vdW  Elec       q    Type
REMARK                         _______ _______ _______ _____ _____    ______ ____
ROOT
ATOM      1  C   UNL     1       2.129   6.106  20.160  0.00  0.00    +0.000 A 
ATOM      2  C   UNL     1       1.354   5.138  20.994  0.00  0.00    +0.000 A 
ATOM      3  C   UNL     1       1.737   3.856  20.975  0.00  0.00    +0.000 A 
ATOM      4  C   UNL     1       2.850   3.473  20.197  0.00  0.00    +0.000 A 
ATOM      5  N   UNL     1       3.409   2.297  20.029  0.00  0.00    +0.000 NA
ATOM      6  C   UNL     1       4.476   2.534  19.202  0.00  0.00    +0.000 A 
ATOM      7  C   UNL     1       4.578   3.870  18.841  0.00  0.00    +0.000 A 
ATOM      8  N   UNL     1       3.512   4.469  19.496  0.00  0.00    +0.000 N 
ATOM      9  N   UNL     1       3.179   5.797  19.460  0.00  0.00    +0.000 NA
ENDROOT
BRANCH   1  13
ATOM     10  C   UNL     1       0.880  10.229  20.214  0.00  0.00    +0.000 A 
ATOM     11  C   UNL     1       0.538   9.354  21.258  0.00  0.00    +0.000 A 
ATOM     12  C   UNL     1       0.939   8.016  21.233  0.00  0.00    +0.000 A 
ATOM     13  C   UNL     1       1.651   7.521  20.141  0.00  0.00    +0.000 A 
ATOM     14  C   UNL     1       1.944   8.377  19.077  0.00  0.00    +0.000 A 
ATOM     15  C   UNL     1       1.550   9.723  19.090  0.00  0.00    +0.000 A 
BRANCH  10  17
ATOM     16  C   UNL     1      -0.386  11.921  21.278  0.00  0.00    +0.000 C 
ATOM     17  O   UNL     1       0.553  11.556  20.267  0.00  0.00    +0.000 OA
ENDBRANCH  10  17
BRANCH  15  18
ATOM     18  O   UNL     1       1.931  10.369  17.945  0.00  0.00    +0.000 OA
ATOM     19  C   UNL     1       2.374  11.715  18.017  0.00  0.00    +0.000 C 
ENDBRANCH  15  18
ENDBRANCH   1  13
BRANCH   7  20
ATOM     20  C   UNL     1       5.589   4.558  18.027  0.00  0.00    +0.000 A 
ATOM     21  C   UNL     1       6.385   5.554  18.609  0.00  0.00    +0.000 A 
ATOM     22  C   UNL     1       7.312   6.265  17.847  0.00  0.00    +0.000 A 
ATOM     23  C   UNL     1       7.449   5.988  16.488  0.00  0.00    +0.000 A 
ATOM     24  C   UNL     1       6.683   4.984  15.880  0.00  0.00    +0.000 A 
ATOM     25  C   UNL     1       5.770   4.261  16.665  0.00  0.00    +0.000 A 
BRANCH  24  26
ATOM     26  C   UNL     1       6.855   4.777  14.409  0.00  0.00    +0.000 C 
ATOM     27  O   UNL     1       7.766   5.359  13.823  0.00  0.00    +0.000 OA
ATOM     28  N   UNL     1       5.968   3.951  13.752  0.00  0.00    +0.000 N 
ATOM     29  H   UNL     1       5.278   3.400  14.246  0.00  0.00    +0.000 HD
BRANCH  28  30
ATOM     30  C   UNL     1       6.048   3.724  12.321  0.00  0.00    +0.000 C 
BRANCH  30  31
ATOM     31  C   UNL     1       5.485   2.347  11.927  0.00  0.00    +0.000 C 
BRANCH  31  32
ATOM     32  N   UNL     1       6.330   1.570  10.987  0.00  0.00    +0.000 NA
ATOM     33  C   UNL     1       7.743   1.938  11.087  0.00  0.00    +0.000 C 
ATOM     34  C   UNL     1       6.175   0.139  11.274  0.00  0.00    +0.000 C 
ENDBRANCH  31  32
ENDBRANCH  30  31
ENDBRANCH  28  30
ENDBRANCH  24  26
ENDBRANCH   7  20
TORSDOF 8
ENDMDL
MODEL 5
REMARK VINA RESULT:      -7.7      3.057      5.260
REMARK  Name = 
REMARK  12 active torsions:
REMARK  status: ('A' for Active; 'I' for Inactive)
REMARK    1  A    between atoms: C_1  and  O_2
REMARK    2  A    between atoms: O_2  and  C_3
REMARK    3  A    between atoms: C_6  and  C_7
REMARK    4  A    between atoms: C_13  and  C_14
REMARK    5  A    between atoms: C_18  and  C_19
REMARK    6  A    between atoms: N_21  and  C_22
REMARK    7  A    between atoms: C_22  and  C_23
REMARK    8  A    between atoms: C_23  and  N_24
REMARK    9  A    between atoms: N_24  and  C_25
REMARK   10  A    between atoms: N_24  and  C_26
REMARK   11  A    between atoms: C_31  and  O_32
REMARK   12  A    between atoms: O_32  and  C_33
REMARK                            x       y       z     vdW  Elec       q    Type
REMARK                         _______ _______ _______ _____ _____    ______ ____
ROOT
ATOM      1  C   UNL     1       1.809   6.105  19.954  0.00  0.00    +0.000 A 
ATOM      2  C   UNL     1       0.960   5.055  20.594  0.00  0.00    +0.000 A 
ATOM      3  C   UNL     1       1.196   3.780  20.263  0.00  0.00    +0.000 A 
ATOM      4  C   UNL     1       2.230   3.476  19.354  0.00  0.00    +0.000 A 
ATOM      5  N   UNL     1       2.648   2.320  18.892  0.00  0.00    +0.000 NA
ATOM      6  C   UNL     1       3.705   2.631  18.077  0.00  0.00    +0.000 A 
ATOM      7  C   UNL     1       3.943   3.997  18.021  0.00  0.00    +0.000 A 
ATOM      8  N   UNL     1       2.975   4.534  18.857  0.00  0.00    +0.000 N 
ATOM      9  N   UNL     1       2.793   5.862  19.141  0.00  0.00    +0.000 NA
ENDROOT
BRANCH   1  13
ATOM     10  C   UNL     1       1.061  10.228  20.956  0.00  0.00    +0.000 A 
ATOM     11  C   UNL     1       1.070   9.232  21.945  0.00  0.00    +0.000 A 
ATOM     12  C   UNL     1       1.306   7.895  21.615  0.00  0.00    +0.000 A 
ATOM     13  C   UNL     1       1.492   7.528  20.283  0.00  0.00    +0.000 A 
ATOM     14  C   UNL     1       1.429   8.511  19.292  0.00  0.00    +0.000 A 
ATOM     15  C   UNL     1       1.196   9.857  19.610  0.00  0.00    +0.000 A 
BRANCH  10  17
ATOM     16  C   UNL     1      -0.373  11.904  21.813  0.00  0.00    +0.000 C 
ATOM     17  O   UNL     1       0.903  11.548  21.282  0.00  0.00    +0.000 OA
ENDBRANCH  10  17
BRANCH  15  18
ATOM     18  O   UNL     1       1.164  10.639  18.488  0.00  0.00    +0.000 OA
ATOM     19  C   UNL     1       2.295  11.428  18.153  0.00  0.00    +0.000 C 
ENDBRANCH  15  18
ENDBRANCH   1  13
BRANCH   7  20
ATOM     20  C   UNL     1       4.996   4.748  17.324  0.00  0.00    +0.000 A 
ATOM     21  C   UNL     1       5.241   4.499  15.966  0.00  0.00    +0.000 A 
ATOM     22  C   UNL     1       6.273   5.155  15.294  0.00  0.00    +0.000 A 
ATOM     23  C   UNL     1       7.076   6.065  15.977  0.00  0.00    +0.000 A 
ATOM     24  C   UNL     1       6.844   6.352  17.329  0.00  0.00    +0.000 A 
ATOM     25  C   UNL     1       5.788   5.702  17.987  0.00  0.00    +0.000 A 
BRANCH  24  26
ATOM     26  C   UNL     1       7.777   7.306  18.004  0.00  0.00    +0.000 C 
ATOM     27  O   UNL     1       8.470   6.909  18.939  0.00  0.00    +0.000 OA
ATOM     28  N   UNL     1       7.814   8.613  17.567  0.00  0.00    +0.000 N 
ATOM     29  H   UNL     1       7.316   8.917  16.740  0.00  0.00    +0.000 HD
BRANCH  28  30
ATOM     30  C   UNL     1       8.668   9.607  18.189  0.00  0.00    +0.000 C 
BRANCH  30  31
ATOM     31  C   UNL     1       8.292  11.036  17.760  0.00  0.00    +0.000 C 
BRANCH  31  32
ATOM     32  N   UNL     1       9.380  12.036  17.886  0.00  0.00    +0.000 NA
ATOM     33  C   UNL     1       8.862  13.389  18.097  0.00  0.00    +0.000 C 
ATOM     34  C   UNL     1      10.245  11.662  19.012  0.00  0.00    +0.000 C 
ENDBRANCH  31  32
ENDBRANCH  30  31
ENDBRANCH  28  30
ENDBRANCH  24  26
ENDBRANCH   7  20
TORSDOF 8
ENDMDL
MODEL 6
REMARK VINA RESULT:      -7.5      2.718      5.039
REMARK  Name = 
REMARK  12 active torsions:
REMARK  status: ('A' for Active; 'I' for Inactive)
REMARK    1  A    between atoms: C_1  and  O_2
REMARK    2  A    between atoms: O_2  and  C_3
REMARK    3  A    between atoms: C_6  and  C_7
REMARK    4  A    between atoms: C_13  and  C_14
REMARK    5  A    between atoms: C_18  and  C_19
REMARK    6  A    between atoms: N_21  and  C_22
REMARK    7  A    between atoms: C_22  and  C_23
REMARK    8  A    between atoms: C_23  and  N_24
REMARK    9  A    between atoms: N_24  and  C_25
REMARK   10  A    between atoms: N_24  and  C_26
REMARK   11  A    between atoms: C_31  and  O_32
REMARK   12  A    between atoms: O_32  and  C_33
REMARK                            x       y       z     vdW  Elec       q    Type
REMARK                         _______ _______ _______ _____ _____    ______ ____
ROOT
ATOM      1  C   UNL     1       2.014   6.355  20.064  0.00  0.00    +0.000 A 
ATOM      2  C   UNL     1       1.184   5.406  20.864  0.00  0.00    +0.000 A 
ATOM      3  C   UNL     1       1.443   4.099  20.740  0.00  0.00    +0.000 A 
ATOM      4  C   UNL     1       2.484   3.672  19.890  0.00  0.00    +0.000 A 
ATOM      5  N   UNL     1       2.922   2.464  19.617  0.00  0.00    +0.000 NA
ATOM      6  C   UNL     1       3.974   2.661  18.762  0.00  0.00    +0.000 A 
ATOM      7  C   UNL     1       4.189   4.004  18.488  0.00  0.00    +0.000 A 
ATOM      8  N   UNL     1       3.210   4.650  19.229  0.00  0.00    +0.000 N 
ATOM      9  N   UNL     1       3.004   6.003  19.298  0.00  0.00    +0.000 NA
ENDROOT
BRANCH   1  13
ATOM     10  C   UNL     1       0.873  10.504  20.280  0.00  0.00    +0.000 A 
ATOM     11  C   UNL     1       1.319   9.937  19.076  0.00  0.00    +0.000 A 
ATOM     12  C   UNL     1       1.695   8.592  19.011  0.00  0.00    +0.000 A 
ATOM     13  C   UNL     1       1.673   7.806  20.162  0.00  0.00    +0.000 A 
ATOM     14  C   UNL     1       1.281   8.384  21.373  0.00  0.00    +0.000 A 
ATOM     15  C   UNL     1       0.899   9.732  21.450  0.00  0.00    +0.000 A 
BRANCH  10  17
ATOM     16  C   UNL     1       1.418  12.796  20.050  0.00  0.00    +0.000 C 
ATOM     17  O   UNL     1       0.435  11.799  20.333  0.00  0.00    +0.000 OA
ENDBRANCH  10  17
BRANCH  15  18
ATOM     18  O   UNL     1       0.567  10.086  22.730  0.00  0.00    +0.000 OA
ATOM     19  C   UNL     1      -0.797  10.282  23.069  0.00  0.00    +0.000 C 
ENDBRANCH  15  18
ENDBRANCH   1  13
BRANCH   7  20
ATOM     20  C   UNL     1       5.229   4.653  17.679  0.00  0.00    +0.000 A 
ATOM     21  C   UNL     1       5.526   4.154  16.403  0.00  0.00    +0.000 A 
ATOM     22  C   UNL     1       6.549   4.713  15.637  0.00  0.00    +0.000 A 
ATOM     23  C   UNL     1       7.292   5.777  16.144  0.00  0.00    +0.000 A 
ATOM     24  C   UNL     1       7.007   6.313  17.407  0.00  0.00    +0.000 A 
ATOM     25  C   UNL     1       5.959   5.755  18.158  0.00  0.00    +0.000 A 
BRANCH  24  26
ATOM     26  C   UNL     1       7.877   7.424  17.900  0.00  0.00    +0.000 C 
ATOM     27  O   UNL     1       8.581   7.243  18.891  0.00  0.00    +0.000 OA
ATOM     28  N   UNL     1       7.845   8.631  17.234  0.00  0.00    +0.000 N 
ATOM     29  H   UNL     1       7.340   8.754  16.366  0.00  0.00    +0.000 HD
BRANCH  28  30
ATOM     30  C   UNL     1       8.635   9.768  17.667  0.00  0.00    +0.000 C 
BRANCH  30  31
ATOM     31  C   UNL     1       8.782   9.815  19.198  0.00  0.00    +0.000 C 
BRANCH  31  32
ATOM     32  N   UNL     1       9.259  11.109  19.744  0.00  0.00    +0.000 NA
ATOM     33  C   UNL     1       9.251  11.124  21.208  0.00  0.00    +0.000 C 
ATOM     34  C   UNL     1      10.621  11.360  19.259  0.00  0.00    +0.000 C 
ENDBRANCH  31  32
ENDBRANCH  30  31
ENDBRANCH  28  30
ENDBRANCH  24  26
ENDBRANCH   7  20
TORSDOF 8
ENDMDL
MODEL 7
REMARK VINA RESULT:      -7.5      2.653      9.506
REMARK  Name = 
REMARK  12 active torsions:
REMARK  status: ('A' for Active; 'I' for Inactive)
REMARK    1  A    between atoms: C_1  and  O_2
REMARK    2  A    between atoms: O_2  and  C_3
REMARK    3  A    between atoms: C_6  and  C_7
REMARK    4  A    between atoms: C_13  and  C_14
REMARK    5  A    between atoms: C_18  and  C_19
REMARK    6  A    between atoms: N_21  and  C_22
REMARK    7  A    between atoms: C_22  and  C_23
REMARK    8  A    between atoms: C_23  and  N_24
REMARK    9  A    between atoms: N_24  and  C_25
REMARK   10  A    between atoms: N_24  and  C_26
REMARK   11  A    between atoms: C_31  and  O_32
REMARK   12  A    between atoms: O_32  and  C_33
REMARK                            x       y       z     vdW  Elec       q    Type
REMARK                         _______ _______ _______ _____ _____    ______ ____
ROOT
ATOM      1  C   UNL     1       4.388   4.292  18.111  0.00  0.00    +0.000 A 
ATOM      2  C   UNL     1       4.292   2.897  18.635  0.00  0.00    +0.000 A 
ATOM      3  C   UNL     1       3.426   2.666  19.629  0.00  0.00    +0.000 A 
ATOM      4  C   UNL     1       2.635   3.724  20.125  0.00  0.00    +0.000 A 
ATOM      5  N   UNL     1       1.727   3.740  21.072  0.00  0.00    +0.000 NA
ATOM      6  C   UNL     1       1.263   5.029  21.089  0.00  0.00    +0.000 A 
ATOM      7  C   UNL     1       1.896   5.830  20.150  0.00  0.00    +0.000 A 
ATOM      8  N   UNL     1       2.787   4.967  19.530  0.00  0.00    +0.000 N 
ATOM      9  N   UNL     1       3.653   5.284  18.517  0.00  0.00    +0.000 NA
ENDROOT
BRANCH   1  13
ATOM     10  C   UNL     1       7.193   5.104  14.943  0.00  0.00    +0.000 A 
ATOM     11  C   UNL     1       6.333   3.996  14.883  0.00  0.00    +0.000 A 
ATOM     12  C   UNL     1       5.429   3.732  15.916  0.00  0.00    +0.000 A 
ATOM     13  C   UNL     1       5.404   4.549  17.046  0.00  0.00    +0.000 A 
ATOM     14  C   UNL     1       6.298   5.619  17.131  0.00  0.00    +0.000 A 
ATOM     15  C   UNL     1       7.208   5.897  16.100  0.00  0.00    +0.000 A 
BRANCH  10  17
ATOM     16  C   UNL     1       7.567   5.025  12.607  0.00  0.00    +0.000 C 
ATOM     17  O   UNL     1       8.028   5.409  13.902  0.00  0.00    +0.000 OA
ENDBRANCH  10  17
BRANCH  15  18
ATOM     18  O   UNL     1       7.990   6.979  16.399  0.00  0.00    +0.000 OA
ATOM     19  C   UNL     1       7.739   7.715  17.585  0.00  0.00    +0.000 C 
ENDBRANCH  15  18
ENDBRANCH   1  13
BRANCH   7  20
ATOM     20  C   UNL     1       1.669   7.238  19.798  0.00  0.00    +0.000 A 
ATOM     21  C   UNL     1       2.009   7.695  18.517  0.00  0.00    +0.000 A 
ATOM     22  C   UNL     1       1.859   9.038  18.173  0.00  0.00    +0.000 A 
ATOM     23  C   UNL     1       1.372   9.943  19.113  0.00  0.00    +0.000 A 
ATOM     24  C   UNL     1       1.004   9.516  20.396  0.00  0.00    +0.000 A 
ATOM     25  C   UNL     1       1.138   8.156  20.721  0.00  0.00    +0.000 A 
BRANCH  24  26
ATOM     26  C   UNL     1       0.532  10.554  21.363  0.00  0.00    +0.000 C 
ATOM     27  O   UNL     1       1.209  11.566  21.537  0.00  0.00    +0.000 OA
ATOM     28  N   UNL     1      -0.644  10.332  22.048  0.00  0.00    +0.000 N 
ATOM     29  H   UNL     1      -1.248   9.547  21.838  0.00  0.00    +0.000 HD
BRANCH  28  30
ATOM     30  C   UNL     1      -1.153  11.275  23.025  0.00  0.00    +0.000 C 
BRANCH  30  31
ATOM     31  C   UNL     1      -2.332  12.095  22.471  0.00  0.00    +0.000 C 
BRANCH  31  32
ATOM     32  N   UNL     1      -2.301  13.540  22.804  0.00  0.00    +0.000 NA
ATOM     33  C   UNL     1      -0.952  13.997  23.144  0.00  0.00    +0.000 C 
ATOM     34  C   UNL     1      -2.801  14.306  21.656  0.00  0.00    +0.000 C 
ENDBRANCH  31  32
ENDBRANCH  30  31
ENDBRANCH  28  30
ENDBRANCH  24  26
ENDBRANCH   7  20
TORSDOF 8
ENDMDL
MODEL 8
REMARK VINA RESULT:      -7.5      2.414      4.630
REMARK  Name = 
REMARK  12 active torsions:
REMARK  status: ('A' for Active; 'I' for Inactive)
REMARK    1  A    between atoms: C_1  and  O_2
REMARK    2  A    between atoms: O_2  and  C_3
REMARK    3  A    between atoms: C_6  and  C_7
REMARK    4  A    between atoms: C_13  and  C_14
REMARK    5  A    between atoms: C_18  and  C_19
REMARK    6  A    between atoms: N_21  and  C_22
REMARK    7  A    between atoms: C_22  and  C_23
REMARK    8  A    between atoms: C_23  and  N_24
REMARK    9  A    between atoms: N_24  and  C_25
REMARK   10  A    between atoms: N_24  and  C_26
REMARK   11  A    between atoms: C_31  and  O_32
REMARK   12  A    between atoms: O_32  and  C_33
REMARK                            x       y       z     vdW  Elec       q    Type
REMARK                         _______ _______ _______ _____ _____    ______ ____
ROOT
ATOM      1  C   UNL     1       2.000   6.148  19.871  0.00  0.00    +0.000 A 
ATOM      2  C   UNL     1       1.213   5.305  20.820  0.00  0.00    +0.000 A 
ATOM      3  C   UNL     1       1.392   3.980  20.767  0.00  0.00    +0.000 A 
ATOM      4  C   UNL     1       2.314   3.436  19.849  0.00  0.00    +0.000 A 
ATOM      5  N   UNL     1       2.661   2.190  19.623  0.00  0.00    +0.000 NA
ATOM      6  C   UNL     1       3.625   2.267  18.653  0.00  0.00    +0.000 A 
ATOM      7  C   UNL     1       3.876   3.574  18.260  0.00  0.00    +0.000 A 
ATOM      8  N   UNL     1       3.015   4.324  19.047  0.00  0.00    +0.000 N 
ATOM      9  N   UNL     1       2.885   5.688  19.037  0.00  0.00    +0.000 NA
ENDROOT
BRANCH   1  13
ATOM     10  C   UNL     1       1.103  10.362  19.878  0.00  0.00    +0.000 A 
ATOM     11  C   UNL     1       1.513   9.710  18.704  0.00  0.00    +0.000 A 
ATOM     12  C   UNL     1       1.810   8.344  18.707  0.00  0.00    +0.000 A 
ATOM     13  C   UNL     1       1.744   7.619  19.896  0.00  0.00    +0.000 A 
ATOM     14  C   UNL     1       1.389   8.279  21.076  0.00  0.00    +0.000 A 
ATOM     15  C   UNL     1       1.085   9.649  21.086  0.00  0.00    +0.000 A 
BRANCH  10  17
ATOM     16  C   UNL     1       1.711  12.583  19.334  0.00  0.00    +0.000 C 
ATOM     17  O   UNL     1       0.741  11.681  19.865  0.00  0.00    +0.000 OA
ENDBRANCH  10  17
BRANCH  15  18
ATOM     18  O   UNL     1       0.777  10.085  22.345  0.00  0.00    +0.000 OA
ATOM     19  C   UNL     1      -0.362   9.559  23.008  0.00  0.00    +0.000 C 
ENDBRANCH  15  18
ENDBRANCH   1  13
BRANCH   7  20
ATOM     20  C   UNL     1       4.856   4.105  17.303  0.00  0.00    +0.000 A 
ATOM     21  C   UNL     1       5.009   3.488  16.054  0.00  0.00    +0.000 A 
ATOM     22  C   UNL     1       5.972   3.935  15.149  0.00  0.00    +0.000 A 
ATOM     23  C   UNL     1       6.799   5.004  15.488  0.00  0.00    +0.000 A 
ATOM     24  C   UNL     1       6.658   5.656  16.721  0.00  0.00    +0.000 A 
ATOM     25  C   UNL     1       5.668   5.211  17.612  0.00  0.00    +0.000 A 
BRANCH  24  26
ATOM     26  C   UNL     1       7.611   6.765  17.030  0.00  0.00    +0.000 C 
ATOM     27  O   UNL     1       8.313   7.223  16.130  0.00  0.00    +0.000 OA
ATOM     28  N   UNL     1       7.689   7.226  18.327  0.00  0.00    +0.000 N 
ATOM     29  H   UNL     1       7.049   6.916  19.047  0.00  0.00    +0.000 HD
BRANCH  28  30
ATOM     30  C   UNL     1       8.610   8.276  18.715  0.00  0.00    +0.000 C 
BRANCH  30  31
ATOM     31  C   UNL     1       8.232   9.631  18.090  0.00  0.00    +0.000 C 
BRANCH  31  32
ATOM     32  N   UNL     1       9.233  10.709  18.276  0.00  0.00    +0.000 NA
ATOM     33  C   UNL     1       8.735  12.007  17.815  0.00  0.00    +0.000 C 
ATOM     34  C   UNL     1       9.584  10.796  19.698  0.00  0.00    +0.000 C 
ENDBRANCH  31  32
ENDBRANCH  30  31
ENDBRANCH  28  30
ENDBRANCH  24  26
ENDBRANCH   7  20
TORSDOF 8
ENDMDL
MODEL 9
REMARK VINA RESULT:      -7.4      3.801      6.084
REMARK  Name = 
REMARK  12 active torsions:
REMARK  status: ('A' for Active; 'I' for Inactive)
REMARK    1  A    between atoms: C_1  and  O_2
REMARK    2  A    between atoms: O_2  and  C_3
REMARK    3  A    between atoms: C_6  and  C_7
REMARK    4  A    between atoms: C_13  and  C_14
REMARK    5  A    between atoms: C_18  and  C_19
REMARK    6  A    between atoms: N_21  and  C_22
REMARK    7  A    between atoms: C_22  and  C_23
REMARK    8  A    between atoms: C_23  and  N_24
REMARK    9  A    between atoms: N_24  and  C_25
REMARK   10  A    between atoms: N_24  and  C_26
REMARK   11  A    between atoms: C_31  and  O_32
REMARK   12  A    between atoms: O_32  and  C_33
REMARK                            x       y       z     vdW  Elec       q    Type
REMARK                         _______ _______ _______ _____ _____    ______ ____
ROOT
ATOM      1  C   UNL     1      -1.339  10.520  19.392  0.00  0.00    +0.000 A 
ATOM      2  C   UNL     1      -1.606  11.613  20.374  0.00  0.00    +0.000 A 
ATOM      3  C   UNL     1      -0.990  11.545  21.560  0.00  0.00    +0.000 A 
ATOM      4  C   UNL     1      -0.112  10.475  21.830  0.00  0.00    +0.000 A 
ATOM      5  N   UNL     1       0.601  10.204  22.898  0.00  0.00    +0.000 NA
ATOM      6  C   UNL     1       1.293   9.066  22.576  0.00  0.00    +0.000 A 
ATOM      7  C   UNL     1       1.002   8.615  21.297  0.00  0.00    +0.000 A 
ATOM      8  N   UNL     1       0.085   9.542  20.823  0.00  0.00    +0.000 N 
ATOM      9  N   UNL     1      -0.510   9.538  19.590  0.00  0.00    +0.000 NA
ENDROOT
BRANCH   1  13
ATOM     10  C   UNL     1      -3.546  10.518  15.692  0.00  0.00    +0.000 A 
ATOM     11  C   UNL     1      -2.323   9.839  15.806  0.00  0.00    +0.000 A 
ATOM     12  C   UNL     1      -1.607   9.848  17.006  0.00  0.00    +0.000 A 
ATOM     13  C   UNL     1      -2.082  10.574  18.097  0.00  0.00    +0.000 A 
ATOM     14  C   UNL     1      -3.272  11.295  17.967  0.00  0.00    +0.000 A 
ATOM     15  C   UNL     1      -4.003  11.292  16.769  0.00  0.00    +0.000 A 
BRANCH  10  17
ATOM     16  C   UNL     1      -3.639   9.851  13.423  0.00  0.00    +0.000 C 
ATOM     17  O   UNL     1      -4.288  10.453  14.543  0.00  0.00    +0.000 OA
ENDBRANCH  10  17
BRANCH  15  18
ATOM     18  O   UNL     1      -5.123  12.072  16.863  0.00  0.00    +0.000 OA
ATOM     19  C   UNL     1      -5.636  12.406  18.143  0.00  0.00    +0.000 C 
ENDBRANCH  15  18
ENDBRANCH   1  13
BRANCH   7  20
ATOM     20  C   UNL     1       1.553   7.482  20.542  0.00  0.00    +0.000 A 
ATOM     21  C   UNL     1       1.155   6.177  20.864  0.00  0.00    +0.000 A 
ATOM     22  C   UNL     1       1.706   5.078  20.204  0.00  0.00    +0.000 A 
ATOM     23  C   UNL     1       2.668   5.275  19.216  0.00  0.00    +0.000 A 
ATOM     24  C   UNL     1       3.073   6.567  18.856  0.00  0.00    +0.000 A 
ATOM     25  C   UNL     1       2.493   7.665  19.513  0.00  0.00    +0.000 A 
BRANCH  24  26
ATOM     26  C   UNL     1       4.142   6.694  17.819  0.00  0.00    +0.000 C 
ATOM     27  O   UNL     1       3.866   7.191  16.729  0.00  0.00    +0.000 OA
ATOM     28  N   UNL     1       5.406   6.227  18.114  0.00  0.00    +0.000 N 
ATOM     29  H   UNL     1       5.657   5.905  19.039  0.00  0.00    +0.000 HD
BRANCH  28  30
ATOM     30  C   UNL     1       6.489   6.285  17.151  0.00  0.00    +0.000 C 
BRANCH  30  31
ATOM     31  C   UNL     1       7.123   4.902  16.916  0.00  0.00    +0.000 C 
BRANCH  31  32
ATOM     32  N   UNL     1       6.504   4.106  15.828  0.00  0.00    +0.000 NA
ATOM     33  C   UNL     1       5.208   3.551  16.223  0.00  0.00    +0.000 C 
ATOM     34  C   UNL     1       6.331   4.961  14.648  0.00  0.00    +0.000 C 
ENDBRANCH  31  32
ENDBRANCH  30  31
ENDBRANCH  28  30
ENDBRANCH  24  26
ENDBRANCH   7  20
TORSDOF 8
ENDMDL
