MODEL 1
REMARK VINA RESULT:      -8.9      0.000      0.000
REMARK  Name = 
REMARK  8 active torsions:
REMARK  status: ('A' for Active; 'I' for Inactive)
REMARK    1  A    between atoms: C_1  and  C_2
REMARK    2  A    between atoms: N_7  and  C_8
REMARK    3  A    between atoms: C_8  and  C_9
REMARK    4  A    between atoms: C_14  and  N_15
REMARK    5  A    between atoms: C_16  and  C_18
REMARK    6  A    between atoms: C_20  and  C_21
REMARK    7  A    between atoms: C_21  and  C_22
REMARK    8  A    between atoms: C_26  and  C_27
REMARK                            x       y       z     vdW  Elec       q    Type
REMARK                         _______ _______ _______ _____ _____    ______ ____
ROOT
ATOM      1  C   UNL     1       3.612   4.549  19.664  0.00  0.00    +0.000 A 
ATOM      2  C   UNL     1       3.698   3.131  19.600  0.00  0.00    +0.000 A 
ATOM      3  C   UNL     1       2.628   2.303  19.923  0.00  0.00    +0.000 A 
ATOM      4  C   UNL     1       1.452   2.867  20.379  0.00  0.00    +0.000 A 
ATOM      5  C   UNL     1       1.363   4.251  20.534  0.00  0.00    +0.000 A 
ATOM      6  C   UNL     1       2.418   5.114  20.171  0.00  0.00    +0.000 A 
ENDROOT
BRANCH   6   7
ATOM      7  N   UNL     1       2.144   6.487  20.432  0.00  0.00    +0.000 N 
ATOM      8  C   UNL     1       1.892   7.474  19.494  0.00  0.00    +0.000 C 
ATOM      9  O   UNL     1       2.003   7.314  18.280  0.00  0.00    +0.000 OA
ATOM     10  H   UNL     1       1.707   6.687  21.327  0.00  0.00    +0.000 HD
BRANCH   8  11
ATOM     11  C   UNL     1       1.391   8.725  20.044  0.00  0.00    +0.000 A 
ATOM     12  O   UNL     1       0.798   8.796  21.296  0.00  0.00    +0.000 OA
ATOM     13  C   UNL     1       0.373  10.103  21.390  0.00  0.00    +0.000 A 
ATOM     14  N   UNL     1       0.692  10.850  20.356  0.00  0.00    +0.000 NA
ATOM     15  C   UNL     1       1.321   9.993  19.492  0.00  0.00    +0.000 A 
ATOM     16  C   UNL     1       1.764  10.484  18.171  0.00  0.00    +0.000 C 
BRANCH  13  17
ATOM     17  C   UNL     1      -0.337  10.574  22.617  0.00  0.00    +0.000 C 
BRANCH  17  18
ATOM     18  C   UNL     1      -0.983  11.930  22.606  0.00  0.00    +0.000 C 
ATOM     19  C   UNL     1      -2.158  12.282  21.732  0.00  0.00    +0.000 C 
ATOM     20  C   UNL     1      -2.367  12.054  23.202  0.00  0.00    +0.000 C 
ENDBRANCH  17  18
ENDBRANCH  13  17
ENDBRANCH   8  11
ENDBRANCH   6   7
BRANCH   1  21
ATOM     21  C   UNL     1       4.883   5.318  19.337  0.00  0.00    +0.000 C 
BRANCH  21  28
ATOM     22  C   UNL     1       6.228   3.916  13.736  0.00  0.00    +0.000 C 
ATOM     23  C   UNL     1       6.928   4.745  14.783  0.00  0.00    +0.000 C 
ATOM     24  O   UNL     1       7.768   5.573  14.425  0.00  0.00    +0.000 OA
ATOM     25  N   UNL     1       6.604   4.544  16.118  0.00  0.00    +0.000 N 
ATOM     26  C   UNL     1       7.234   5.403  17.125  0.00  0.00    +0.000 C 
ATOM     27  C   UNL     1       6.249   6.491  17.610  0.00  0.00    +0.000 C 
ATOM     28  N   UNL     1       4.898   6.009  18.017  0.00  0.00    +0.000 NA
ATOM     29  C   UNL     1       4.372   5.114  16.959  0.00  0.00    +0.000 C 
ATOM     30  C   UNL     1       5.342   3.974  16.577  0.00  0.00    +0.000 C 
ENDBRANCH  21  28
ENDBRANCH   1  21
TORSDOF 6
ENDMDL
MODEL 2
REMARK VINA RESULT:      -8.9      2.065      8.262
REMARK  Name = 
REMARK  8 active torsions:
REMARK  status: ('A' for Active; 'I' for Inactive)
REMARK    1  A    between atoms: C_1  and  C_2
REMARK    2  A    between atoms: N_7  and  C_8
REMARK    3  A    between atoms: C_8  and  C_9
REMARK    4  A    between atoms: C_14  and  N_15
REMARK    5  A    between atoms: C_16  and  C_18
REMARK    6  A    between atoms: C_20  and  C_21
REMARK    7  A    between atoms: C_21  and  C_22
REMARK    8  A    between atoms: C_26  and  C_27
REMARK                            x       y       z     vdW  Elec       q    Type
REMARK                         _______ _______ _______ _____ _____    ______ ____
ROOT
ATOM      1  C   UNL     1       2.015   4.891  19.806  0.00  0.00    +0.000 A 
ATOM      2  C   UNL     1       1.220   4.186  20.751  0.00  0.00    +0.000 A 
ATOM      3  C   UNL     1       1.567   2.926  21.226  0.00  0.00    +0.000 A 
ATOM      4  C   UNL     1       2.695   2.304  20.726  0.00  0.00    +0.000 A 
ATOM      5  C   UNL     1       3.451   2.932  19.735  0.00  0.00    +0.000 A 
ATOM      6  C   UNL     1       3.144   4.228  19.270  0.00  0.00    +0.000 A 
ENDROOT
BRANCH   6   7
ATOM      7  N   UNL     1       4.016   4.682  18.240  0.00  0.00    +0.000 N 
ATOM      8  C   UNL     1       5.400   4.636  18.245  0.00  0.00    +0.000 C 
ATOM      9  O   UNL     1       6.073   4.305  19.220  0.00  0.00    +0.000 OA
ATOM     10  H   UNL     1       3.634   4.661  17.299  0.00  0.00    +0.000 HD
BRANCH   8  11
ATOM     11  C   UNL     1       6.025   4.927  16.964  0.00  0.00    +0.000 A 
ATOM     12  O   UNL     1       5.801   4.149  15.839  0.00  0.00    +0.000 OA
ATOM     13  C   UNL     1       6.644   4.682  14.890  0.00  0.00    +0.000 A 
ATOM     14  N   UNL     1       7.318   5.736  15.298  0.00  0.00    +0.000 NA
ATOM     15  C   UNL     1       6.950   5.894  16.608  0.00  0.00    +0.000 A 
ATOM     16  C   UNL     1       7.575   6.962  17.417  0.00  0.00    +0.000 C 
BRANCH  13  17
ATOM     17  C   UNL     1       6.698   4.095  13.518  0.00  0.00    +0.000 C 
BRANCH  17  18
ATOM     18  C   UNL     1       5.530   3.288  13.027  0.00  0.00    +0.000 C 
ATOM     19  C   UNL     1       4.742   3.636  11.792  0.00  0.00    +0.000 C 
ATOM     20  C   UNL     1       5.712   2.489  11.757  0.00  0.00    +0.000 C 
ENDBRANCH  17  18
ENDBRANCH  13  17
ENDBRANCH   8  11
ENDBRANCH   6   7
BRANCH   1  21
ATOM     21  C   UNL     1       1.475   6.234  19.336  0.00  0.00    +0.000 C 
BRANCH  21  28
ATOM     22  C   UNL     1       0.874  12.039  20.377  0.00  0.00    +0.000 C 
ATOM     23  C   UNL     1       1.285  11.252  19.158  0.00  0.00    +0.000 C 
ATOM     24  O   UNL     1       1.927  11.817  18.271  0.00  0.00    +0.000 OA
ATOM     25  N   UNL     1       0.920   9.915  19.076  0.00  0.00    +0.000 N 
ATOM     26  C   UNL     1       1.385   9.136  17.923  0.00  0.00    +0.000 C 
ATOM     27  C   UNL     1       2.572   8.229  18.318  0.00  0.00    +0.000 C 
ATOM     28  N   UNL     1       2.377   7.401  19.542  0.00  0.00    +0.000 NA
ATOM     29  C   UNL     1       1.862   8.268  20.629  0.00  0.00    +0.000 C 
ATOM     30  C   UNL     1       0.609   9.078  20.229  0.00  0.00    +0.000 C 
ENDBRANCH  21  28
ENDBRANCH   1  21
TORSDOF 6
ENDMDL
MODEL 3
REMARK VINA RESULT:      -8.8      1.601      2.585
REMARK  Name = 
REMARK  8 active torsions:
REMARK  status: ('A' for Active; 'I' for Inactive)
REMARK    1  A    between atoms: C_1  and  C_2
REMARK    2  A    between atoms: N_7  and  C_8
REMARK    3  A    between atoms: C_8  and  C_9
REMARK    4  A    between atoms: C_14  and  N_15
REMARK    5  A    between atoms: C_16  and  C_18
REMARK    6  A    between atoms: C_20  and  C_21
REMARK    7  A    between atoms: C_21  and  C_22
REMARK    8  A    between atoms: C_26  and  C_27
REMARK                            x       y       z     vdW  Elec       q    Type
REMARK                         _______ _______ _______ _____ _____    ______ ____
ROOT
ATOM      1  C   UNL     1       3.579   4.698  19.742  0.00  0.00    +0.000 A 
ATOM      2  C   UNL     1       3.545   3.296  19.980  0.00  0.00    +0.000 A 
ATOM      3  C   UNL     1       2.398   2.640  20.413  0.00  0.00    +0.000 A 
ATOM      4  C   UNL     1       1.260   3.377  20.680  0.00  0.00    +0.000 A 
ATOM      5  C   UNL     1       1.284   4.765  20.538  0.00  0.00    +0.000 A 
ATOM      6  C   UNL     1       2.421   5.448  20.057  0.00  0.00    +0.000 A 
ENDROOT
BRANCH   6   7
ATOM      7  N   UNL     1       2.257   6.861  20.011  0.00  0.00    +0.000 N 
ATOM      8  C   UNL     1       1.963   7.625  18.894  0.00  0.00    +0.000 C 
ATOM      9  O   UNL     1       1.932   7.183  17.747  0.00  0.00    +0.000 OA
ATOM     10  H   UNL     1       1.932   7.296  20.870  0.00  0.00    +0.000 HD
BRANCH   8  11
ATOM     11  C   UNL     1       1.597   9.005  19.177  0.00  0.00    +0.000 A 
ATOM     12  O   UNL     1       1.908  10.043  18.312  0.00  0.00    +0.000 OA
ATOM     13  C   UNL     1       1.496  11.173  18.984  0.00  0.00    +0.000 A 
ATOM     14  N   UNL     1       0.918  10.932  20.141  0.00  0.00    +0.000 NA
ATOM     15  C   UNL     1       0.987   9.571  20.284  0.00  0.00    +0.000 A 
ATOM     16  C   UNL     1       0.484   8.941  21.523  0.00  0.00    +0.000 C 
BRANCH  13  17
ATOM     17  C   UNL     1       1.676  12.521  18.367  0.00  0.00    +0.000 C 
BRANCH  17  18
ATOM     18  C   UNL     1       2.569  13.519  19.048  0.00  0.00    +0.000 C 
ATOM     19  C   UNL     1       3.656  14.280  18.338  0.00  0.00    +0.000 C 
ATOM     20  C   UNL     1       2.379  14.979  18.708  0.00  0.00    +0.000 C 
ENDBRANCH  17  18
ENDBRANCH  13  17
ENDBRANCH   8  11
ENDBRANCH   6   7
BRANCH   1  21
ATOM     21  C   UNL     1       4.922   5.281  19.327  0.00  0.00    +0.000 C 
BRANCH  21  28
ATOM     22  C   UNL     1       6.175   3.878  13.706  0.00  0.00    +0.000 C 
ATOM     23  C   UNL     1       6.907   4.680  14.751  0.00  0.00    +0.000 C 
ATOM     24  O   UNL     1       7.767   5.487  14.390  0.00  0.00    +0.000 OA
ATOM     25  N   UNL     1       6.591   4.479  16.088  0.00  0.00    +0.000 N 
ATOM     26  C   UNL     1       7.254   5.314  17.094  0.00  0.00    +0.000 C 
ATOM     27  C   UNL     1       6.304   6.426  17.595  0.00  0.00    +0.000 C 
ATOM     28  N   UNL     1       4.944   5.979  18.012  0.00  0.00    +0.000 NA
ATOM     29  C   UNL     1       4.384   5.106  16.953  0.00  0.00    +0.000 C 
ATOM     30  C   UNL     1       5.317   3.942  16.555  0.00  0.00    +0.000 C 
ENDBRANCH  21  28
ENDBRANCH   1  21
TORSDOF 6
ENDMDL
MODEL 4
REMARK VINA RESULT:      -8.2      4.020      7.680
REMARK  Name = 
REMARK  8 active torsions:
REMARK  status: ('A' for Active; 'I' for Inactive)
REMARK    1  A    between atoms: C_1  and  C_2
REMARK    2  A    between atoms: N_7  and  C_8
REMARK    3  A    between atoms: C_8  and  C_9
REMARK    4  A    between atoms: C_14  and  N_15
REMARK    5  A    between atoms: C_16  and  C_18
REMARK    6  A    between atoms: C_20  and  C_21
REMARK    7  A    between atoms: C_21  and  C_22
REMARK    8  A    between atoms: C_26  and  C_27
REMARK                            x       y       z     vdW  Elec       q    Type
REMARK                         _______ _______ _______ _____ _____    ______ ____
ROOT
ATOM      1  C   UNL     1       6.036   3.874  15.110  0.00  0.00    +0.000 A 
ATOM      2  C   UNL     1       5.545   3.091  14.029  0.00  0.00    +0.000 A 
ATOM      3  C   UNL     1       5.983   3.266  12.721  0.00  0.00    +0.000 A 
ATOM      4  C   UNL     1       6.886   4.274  12.441  0.00  0.00    +0.000 A 
ATOM      5  C   UNL     1       7.323   5.116  13.465  0.00  0.00    +0.000 A 
ATOM      6  C   UNL     1       6.928   4.930  14.806  0.00  0.00    +0.000 A 
ENDROOT
BRANCH   6   7
ATOM      7  N   UNL     1       7.458   5.907  15.695  0.00  0.00    +0.000 N 
ATOM      8  C   UNL     1       6.758   6.926  16.320  0.00  0.00    +0.000 C 
ATOM      9  O   UNL     1       5.583   7.201  16.079  0.00  0.00    +0.000 OA
ATOM     10  H   UNL     1       8.277   5.624  16.225  0.00  0.00    +0.000 HD
BRANCH   8  11
ATOM     11  C   UNL     1       7.491   7.616  17.370  0.00  0.00    +0.000 A 
ATOM     12  O   UNL     1       7.825   8.959  17.276  0.00  0.00    +0.000 OA
ATOM     13  C   UNL     1       8.591   9.191  18.398  0.00  0.00    +0.000 A 
ATOM     14  N   UNL     1       8.714   8.150  19.192  0.00  0.00    +0.000 NA
ATOM     15  C   UNL     1       8.038   7.145  18.551  0.00  0.00    +0.000 A 
ATOM     16  C   UNL     1       8.023   5.787  19.135  0.00  0.00    +0.000 C 
BRANCH  13  17
ATOM     17  C   UNL     1       9.159  10.549  18.651  0.00  0.00    +0.000 C 
BRANCH  17  18
ATOM     18  C   UNL     1       9.927  10.790  19.920  0.00  0.00    +0.000 C 
ATOM     19  C   UNL     1      11.095  11.735  20.016  0.00  0.00    +0.000 C 
ATOM     20  C   UNL     1       9.767  12.133  20.594  0.00  0.00    +0.000 C 
ENDBRANCH  17  18
ENDBRANCH  13  17
ENDBRANCH   8  11
ENDBRANCH   6   7
BRANCH   1  21
ATOM     21  C   UNL     1       5.419   3.606  16.474  0.00  0.00    +0.000 C 
BRANCH  21  28
ATOM     22  C   UNL     1       1.704   5.379  20.740  0.00  0.00    +0.000 C 
ATOM     23  C   UNL     1       1.925   4.053  20.058  0.00  0.00    +0.000 C 
ATOM     24  O   UNL     1       1.028   3.207  20.091  0.00  0.00    +0.000 OA
ATOM     25  N   UNL     1       3.136   3.827  19.418  0.00  0.00    +0.000 N 
ATOM     26  C   UNL     1       3.318   2.565  18.695  0.00  0.00    +0.000 C 
ATOM     27  C   UNL     1       3.170   2.780  17.172  0.00  0.00    +0.000 C 
ATOM     28  N   UNL     1       3.964   3.903  16.595  0.00  0.00    +0.000 NA
ATOM     29  C   UNL     1       3.750   5.113  17.423  0.00  0.00    +0.000 C 
ATOM     30  C   UNL     1       4.013   4.885  18.928  0.00  0.00    +0.000 C 
ENDBRANCH  21  28
ENDBRANCH   1  21
TORSDOF 6
ENDMDL
MODEL 5
REMARK VINA RESULT:      -8.2      2.357      7.171
REMARK  Name = 
REMARK  8 active torsions:
REMARK  status: ('A' for Active; 'I' for Inactive)
REMARK    1  A    between atoms: C_1  and  C_2
REMARK    2  A    between atoms: N_7  and  C_8
REMARK    3  A    between atoms: C_8  and  C_9
REMARK    4  A    between atoms: C_14  and  N_15
REMARK    5  A    between atoms: C_16  and  C_18
REMARK    6  A    between atoms: C_20  and  C_21
REMARK    7  A    between atoms: C_21  and  C_22
REMARK    8  A    between atoms: C_26  and  C_27
REMARK                            x       y       z     vdW  Elec       q    Type
REMARK                         _______ _______ _______ _____ _____    ______ ____
ROOT
ATOM      1  C   UNL     1       2.028   4.847  19.869  0.00  0.00    +0.000 A 
ATOM      2  C   UNL     1       0.962   4.107  20.449  0.00  0.00    +0.000 A 
ATOM      3  C   UNL     1       1.162   2.896  21.103  0.00  0.00    +0.000 A 
ATOM      4  C   UNL     1       2.433   2.355  21.146  0.00  0.00    +0.000 A 
ATOM      5  C   UNL     1       3.488   3.014  20.513  0.00  0.00    +0.000 A 
ATOM      6  C   UNL     1       3.318   4.265  19.882  0.00  0.00    +0.000 A 
ENDROOT
BRANCH   6   7
ATOM      7  N   UNL     1       4.505   4.758  19.271  0.00  0.00    +0.000 N 
ATOM      8  C   UNL     1       4.759   4.854  17.913  0.00  0.00    +0.000 C 
ATOM      9  O   UNL     1       4.024   4.393  17.041  0.00  0.00    +0.000 OA
ATOM     10  H   UNL     1       5.025   5.446  19.808  0.00  0.00    +0.000 HD
BRANCH   8  11
ATOM     11  C   UNL     1       5.941   5.630  17.566  0.00  0.00    +0.000 A 
ATOM     12  O   UNL     1       6.589   6.438  18.487  0.00  0.00    +0.000 OA
ATOM     13  C   UNL     1       7.566   7.068  17.749  0.00  0.00    +0.000 A 
ATOM     14  N   UNL     1       7.620   6.690  16.490  0.00  0.00    +0.000 NA
ATOM     15  C   UNL     1       6.592   5.795  16.355  0.00  0.00    +0.000 A 
ATOM     16  C   UNL     1       6.307   5.205  15.030  0.00  0.00    +0.000 C 
BRANCH  13  17
ATOM     17  C   UNL     1       8.486   8.048  18.402  0.00  0.00    +0.000 C 
BRANCH  17  18
ATOM     18  C   UNL     1       8.289   9.514  18.140  0.00  0.00    +0.000 C 
ATOM     19  C   UNL     1       8.740  10.594  19.088  0.00  0.00    +0.000 C 
ATOM     20  C   UNL     1       9.513  10.343  17.825  0.00  0.00    +0.000 C 
ENDBRANCH  17  18
ENDBRANCH  13  17
ENDBRANCH   8  11
ENDBRANCH   6   7
BRANCH   1  21
ATOM     21  C   UNL     1       1.645   6.124  19.136  0.00  0.00    +0.000 C 
BRANCH  21  28
ATOM     22  C   UNL     1       0.768  11.839  20.444  0.00  0.00    +0.000 C 
ATOM     23  C   UNL     1       1.248  11.132  19.201  0.00  0.00    +0.000 C 
ATOM     24  O   UNL     1       1.892  11.768  18.364  0.00  0.00    +0.000 OA
ATOM     25  N   UNL     1       0.943   9.788  19.041  0.00  0.00    +0.000 N 
ATOM     26  C   UNL     1       1.474   9.088  17.866  0.00  0.00    +0.000 C 
ATOM     27  C   UNL     1       2.687   8.212  18.254  0.00  0.00    +0.000 C 
ATOM     28  N   UNL     1       2.491   7.315  19.428  0.00  0.00    +0.000 NA
ATOM     29  C   UNL     1       1.907   8.104  20.539  0.00  0.00    +0.000 C 
ATOM     30  C   UNL     1       0.634   8.881  20.141  0.00  0.00    +0.000 C 
ENDBRANCH  21  28
ENDBRANCH   1  21
TORSDOF 6
ENDMDL
MODEL 6
REMARK VINA RESULT:      -8.0      2.017      2.360
REMARK  Name = 
REMARK  8 active torsions:
REMARK  status: ('A' for Active; 'I' for Inactive)
REMARK    1  A    between atoms: C_1  and  C_2
REMARK    2  A    between atoms: N_7  and  C_8
REMARK    3  A    between atoms: C_8  and  C_9
REMARK    4  A    between atoms: C_14  and  N_15
REMARK    5  A    between atoms: C_16  and  C_18
REMARK    6  A    between atoms: C_20  and  C_21
REMARK    7  A    between atoms: C_21  and  C_22
REMARK    8  A    between atoms: C_26  and  C_27
REMARK                            x       y       z     vdW  Elec       q    Type
REMARK                         _______ _______ _______ _____ _____    ______ ____
ROOT
ATOM      1  C   UNL     1       3.481   4.198  19.846  0.00  0.00    +0.000 A 
ATOM      2  C   UNL     1       3.515   2.943  20.512  0.00  0.00    +0.000 A 
ATOM      3  C   UNL     1       2.377   2.354  21.054  0.00  0.00    +0.000 A 
ATOM      4  C   UNL     1       1.175   3.032  20.998  0.00  0.00    +0.000 A 
ATOM      5  C   UNL     1       1.123   4.304  20.426  0.00  0.00    +0.000 A 
ATOM      6  C   UNL     1       2.253   4.902  19.830  0.00  0.00    +0.000 A 
ENDROOT
BRANCH   6   7
ATOM      7  N   UNL     1       2.004   6.211  19.328  0.00  0.00    +0.000 N 
ATOM      8  C   UNL     1       1.744   7.349  20.074  0.00  0.00    +0.000 C 
ATOM      9  O   UNL     1       1.564   7.348  21.291  0.00  0.00    +0.000 OA
ATOM     10  H   UNL     1       2.430   6.428  18.432  0.00  0.00    +0.000 HD
BRANCH   8  11
ATOM     11  C   UNL     1       1.783   8.594  19.322  0.00  0.00    +0.000 A 
ATOM     12  O   UNL     1       1.190   9.757  19.789  0.00  0.00    +0.000 OA
ATOM     13  C   UNL     1       1.354  10.653  18.756  0.00  0.00    +0.000 A 
ATOM     14  N   UNL     1       2.031  10.179  17.732  0.00  0.00    +0.000 NA
ATOM     15  C   UNL     1       2.296   8.877  18.067  0.00  0.00    +0.000 A 
ATOM     16  C   UNL     1       2.997   8.004  17.103  0.00  0.00    +0.000 C 
BRANCH  13  17
ATOM     17  C   UNL     1       0.827  12.046  18.878  0.00  0.00    +0.000 C 
BRANCH  17  18
ATOM     18  C   UNL     1       1.774  13.151  19.250  0.00  0.00    +0.000 C 
ATOM     19  C   UNL     1       2.462  14.029  18.238  0.00  0.00    +0.000 C 
ATOM     20  C   UNL     1       1.312  14.574  19.037  0.00  0.00    +0.000 C 
ENDBRANCH  17  18
ENDBRANCH  13  17
ENDBRANCH   8  11
ENDBRANCH   6   7
BRANCH   1  21
ATOM     21  C   UNL     1       4.815   4.741  19.358  0.00  0.00    +0.000 C 
BRANCH  21  28
ATOM     22  C   UNL     1       6.227   3.830  13.673  0.00  0.00    +0.000 C 
ATOM     23  C   UNL     1       6.869   4.636  14.773  0.00  0.00    +0.000 C 
ATOM     24  O   UNL     1       7.642   5.548  14.472  0.00  0.00    +0.000 OA
ATOM     25  N   UNL     1       6.570   4.320  16.091  0.00  0.00    +0.000 N 
ATOM     26  C   UNL     1       7.140   5.154  17.154  0.00  0.00    +0.000 C 
ATOM     27  C   UNL     1       6.079   6.129  17.714  0.00  0.00    +0.000 C 
ATOM     28  N   UNL     1       4.770   5.519  18.088  0.00  0.00    +0.000 NA
ATOM     29  C   UNL     1       4.307   4.661  16.972  0.00  0.00    +0.000 C 
ATOM     30  C   UNL     1       5.357   3.626  16.512  0.00  0.00    +0.000 C 
ENDBRANCH  21  28
ENDBRANCH   1  21
TORSDOF 6
ENDMDL
MODEL 7
REMARK VINA RESULT:      -8.0      4.717      7.689
REMARK  Name = 
REMARK  8 active torsions:
REMARK  status: ('A' for Active; 'I' for Inactive)
REMARK    1  A    between atoms: C_1  and  C_2
REMARK    2  A    between atoms: N_7  and  C_8
REMARK    3  A    between atoms: C_8  and  C_9
REMARK    4  A    between atoms: C_14  and  N_15
REMARK    5  A    between atoms: C_16  and  C_18
REMARK    6  A    between atoms: C_20  and  C_21
REMARK    7  A    between atoms: C_21  and  C_22
REMARK    8  A    between atoms: C_26  and  C_27
REMARK                            x       y       z     vdW  Elec       q    Type
REMARK                         _______ _______ _______ _____ _____    ______ ____
ROOT
ATOM      1  C   UNL     1       6.158   3.928  15.011  0.00  0.00    +0.000 A 
ATOM      2  C   UNL     1       5.665   3.213  13.885  0.00  0.00    +0.000 A 
ATOM      3  C   UNL     1       6.067   3.498  12.584  0.00  0.00    +0.000 A 
ATOM      4  C   UNL     1       6.933   4.551  12.362  0.00  0.00    +0.000 A 
ATOM      5  C   UNL     1       7.370   5.327  13.437  0.00  0.00    +0.000 A 
ATOM      6  C   UNL     1       7.012   5.030  14.768  0.00  0.00    +0.000 A 
ENDROOT
BRANCH   6   7
ATOM      7  N   UNL     1       7.534   5.955  15.716  0.00  0.00    +0.000 N 
ATOM      8  C   UNL     1       6.844   6.979  16.341  0.00  0.00    +0.000 C 
ATOM      9  O   UNL     1       5.694   7.310  16.053  0.00  0.00    +0.000 OA
ATOM     10  H   UNL     1       8.314   5.620  16.275  0.00  0.00    +0.000 HD
BRANCH   8  11
ATOM     11  C   UNL     1       7.549   7.603  17.451  0.00  0.00    +0.000 A 
ATOM     12  O   UNL     1       7.886   8.948  17.448  0.00  0.00    +0.000 OA
ATOM     13  C   UNL     1       8.623   9.110  18.600  0.00  0.00    +0.000 A 
ATOM     14  N   UNL     1       8.724   8.023  19.333  0.00  0.00    +0.000 NA
ATOM     15  C   UNL     1       8.065   7.060  18.615  0.00  0.00    +0.000 A 
ATOM     16  C   UNL     1       8.035   5.669  19.115  0.00  0.00    +0.000 C 
BRANCH  13  17
ATOM     17  C   UNL     1       9.184  10.449  18.951  0.00  0.00    +0.000 C 
BRANCH  17  18
ATOM     18  C   UNL     1       9.536  11.402  17.844  0.00  0.00    +0.000 C 
ATOM     19  C   UNL     1       8.897  12.755  17.678  0.00  0.00    +0.000 C 
ATOM     20  C   UNL     1      10.299  12.655  18.210  0.00  0.00    +0.000 C 
ENDBRANCH  17  18
ENDBRANCH  13  17
ENDBRANCH   8  11
ENDBRANCH   6   7
BRANCH   1  21
ATOM     21  C   UNL     1       5.581   3.540  16.364  0.00  0.00    +0.000 C 
BRANCH  21  28
ATOM     22  C   UNL     1       2.271   3.934  21.265  0.00  0.00    +0.000 C 
ATOM     23  C   UNL     1       1.999   3.392  19.884  0.00  0.00    +0.000 C 
ATOM     24  O   UNL     1       0.831   3.275  19.507  0.00  0.00    +0.000 OA
ATOM     25  N   UNL     1       3.078   3.038  19.085  0.00  0.00    +0.000 N 
ATOM     26  C   UNL     1       2.811   2.581  17.718  0.00  0.00    +0.000 C 
ATOM     27  C   UNL     1       3.114   3.701  16.697  0.00  0.00    +0.000 C 
ATOM     28  N   UNL     1       4.440   4.369  16.841  0.00  0.00    +0.000 NA
ATOM     29  C   UNL     1       4.632   4.746  18.261  0.00  0.00    +0.000 C 
ATOM     30  C   UNL     1       4.426   3.573  19.244  0.00  0.00    +0.000 C 
ENDBRANCH  21  28
ENDBRANCH   1  21
TORSDOF 6
ENDMDL
MODEL 8
REMARK VINA RESULT:      -8.0      1.064      1.242
REMARK  Name = 
REMARK  8 active torsions:
REMARK  status: ('A' for Active; 'I' for Inactive)
REMARK    1  A    between atoms: C_1  and  C_2
REMARK    2  A    between atoms: N_7  and  C_8
REMARK    3  A    between atoms: C_8  and  C_9
REMARK    4  A    between atoms: C_14  and  N_15
REMARK    5  A    between atoms: C_16  and  C_18
REMARK    6  A    between atoms: C_20  and  C_21
REMARK    7  A    between atoms: C_21  and  C_22
REMARK    8  A    between atoms: C_26  and  C_27
REMARK                            x       y       z     vdW  Elec       q    Type
REMARK                         _______ _______ _______ _____ _____    ______ ____
ROOT
ATOM      1  C   UNL     1       3.479   4.717  19.687  0.00  0.00    +0.000 A 
ATOM      2  C   UNL     1       3.623   3.359  20.085  0.00  0.00    +0.000 A 
ATOM      3  C   UNL     1       2.550   2.592  20.526  0.00  0.00    +0.000 A 
ATOM      4  C   UNL     1       1.304   3.179  20.640  0.00  0.00    +0.000 A 
ATOM      5  C   UNL     1       1.146   4.532  20.339  0.00  0.00    +0.000 A 
ATOM      6  C   UNL     1       2.208   5.318  19.847  0.00  0.00    +0.000 A 
ENDROOT
BRANCH   6   7
ATOM      7  N   UNL     1       1.853   6.680  19.627  0.00  0.00    +0.000 N 
ATOM      8  C   UNL     1       1.387   7.577  20.573  0.00  0.00    +0.000 C 
ATOM      9  O   UNL     1       1.091   7.269  21.727  0.00  0.00    +0.000 OA
ATOM     10  H   UNL     1       2.335   7.143  18.863  0.00  0.00    +0.000 HD
BRANCH   8  11
ATOM     11  C   UNL     1       1.349   8.963  20.133  0.00  0.00    +0.000 A 
ATOM     12  O   UNL     1       1.011  10.001  20.989  0.00  0.00    +0.000 OA
ATOM     13  C   UNL     1       0.987  11.111  20.174  0.00  0.00    +0.000 A 
ATOM     14  N   UNL     1       1.327  10.873  18.926  0.00  0.00    +0.000 NA
ATOM     15  C   UNL     1       1.544   9.521  18.880  0.00  0.00    +0.000 A 
ATOM     16  C   UNL     1       1.885   8.880  17.593  0.00  0.00    +0.000 C 
BRANCH  13  17
ATOM     17  C   UNL     1       0.645  12.451  20.740  0.00  0.00    +0.000 C 
BRANCH  17  18
ATOM     18  C   UNL     1      -0.700  12.647  21.380  0.00  0.00    +0.000 C 
ATOM     19  C   UNL     1      -1.047  12.136  22.754  0.00  0.00    +0.000 C 
ATOM     20  C   UNL     1      -0.790  13.602  22.549  0.00  0.00    +0.000 C 
ENDBRANCH  17  18
ENDBRANCH  13  17
ENDBRANCH   8  11
ENDBRANCH   6   7
BRANCH   1  21
ATOM     21  C   UNL     1       4.754   5.442  19.284  0.00  0.00    +0.000 C 
BRANCH  21  28
ATOM     22  C   UNL     1       6.210   3.822  13.771  0.00  0.00    +0.000 C 
ATOM     23  C   UNL     1       6.859   4.740  14.776  0.00  0.00    +0.000 C 
ATOM     24  O   UNL     1       7.659   5.590  14.380  0.00  0.00    +0.000 OA
ATOM     25  N   UNL     1       6.536   4.591  16.118  0.00  0.00    +0.000 N 
ATOM     26  C   UNL     1       7.114   5.533  17.082  0.00  0.00    +0.000 C 
ATOM     27  C   UNL     1       6.071   6.592  17.505  0.00  0.00    +0.000 C 
ATOM     28  N   UNL     1       4.744   6.063  17.930  0.00  0.00    +0.000 NA
ATOM     29  C   UNL     1       4.273   5.088  16.918  0.00  0.00    +0.000 C 
ATOM     30  C   UNL     1       5.302   3.981  16.601  0.00  0.00    +0.000 C 
ENDBRANCH  21  28
ENDBRANCH   1  21
TORSDOF 6
ENDMDL
MODEL 9
REMARK VINA RESULT:      -7.9      2.780      7.291
REMARK  Name = 
REMARK  8 active torsions:
REMARK  status: ('A' for Active; 'I' for Inactive)
REMARK    1  A    between atoms: C_1  and  C_2
REMARK    2  A    between atoms: N_7  and  C_8
REMARK    3  A    between atoms: C_8  and  C_9
REMARK    4  A    between atoms: C_14  and  N_15
REMARK    5  A    between atoms: C_16  and  C_18
REMARK    6  A    between atoms: C_20  and  C_21
REMARK    7  A    between atoms: C_21  and  C_22
REMARK    8  A    between atoms: C_26  and  C_27
REMARK                            x       y       z     vdW  Elec       q    Type
REMARK                         _______ _______ _______ _____ _____    ______ ____
ROOT
ATOM      1  C   UNL     1       2.402   4.685  18.269  0.00  0.00    +0.000 A 
ATOM      2  C   UNL     1       1.395   3.689  18.146  0.00  0.00    +0.000 A 
ATOM      3  C   UNL     1       1.648   2.340  18.370  0.00  0.00    +0.000 A 
ATOM      4  C   UNL     1       2.935   1.935  18.669  0.00  0.00    +0.000 A 
ATOM      5  C   UNL     1       3.964   2.878  18.714  0.00  0.00    +0.000 A 
ATOM      6  C   UNL     1       3.725   4.256  18.535  0.00  0.00    +0.000 A 
ENDROOT
BRANCH   6   7
ATOM      7  N   UNL     1       4.905   5.049  18.590  0.00  0.00    +0.000 N 
ATOM      8  C   UNL     1       5.610   5.562  17.513  0.00  0.00    +0.000 C 
ATOM      9  O   UNL     1       5.371   5.283  16.339  0.00  0.00    +0.000 OA
ATOM     10  H   UNL     1       5.020   5.613  19.427  0.00  0.00    +0.000 HD
BRANCH   8  11
ATOM     11  C   UNL     1       6.623   6.547  17.860  0.00  0.00    +0.000 A 
ATOM     12  O   UNL     1       6.660   7.804  17.277  0.00  0.00    +0.000 OA
ATOM     13  C   UNL     1       7.808   8.373  17.784  0.00  0.00    +0.000 A 
ATOM     14  N   UNL     1       8.445   7.620  18.654  0.00  0.00    +0.000 NA
ATOM     15  C   UNL     1       7.719   6.459  18.702  0.00  0.00    +0.000 A 
ATOM     16  C   UNL     1       8.189   5.339  19.544  0.00  0.00    +0.000 C 
BRANCH  13  17
ATOM     17  C   UNL     1       8.206   9.754  17.374  0.00  0.00    +0.000 C 
BRANCH  17  18
ATOM     18  C   UNL     1       8.859  10.651  18.386  0.00  0.00    +0.000 C 
ATOM     19  C   UNL     1      10.314  11.038  18.336  0.00  0.00    +0.000 C 
ATOM     20  C   UNL     1       9.265  12.037  17.938  0.00  0.00    +0.000 C 
ENDBRANCH  17  18
ENDBRANCH  13  17
ENDBRANCH   8  11
ENDBRANCH   6   7
BRANCH   1  21
ATOM     21  C   UNL     1       1.988   6.110  17.935  0.00  0.00    +0.000 C 
BRANCH  21  28
ATOM     22  C   UNL     1       0.730  10.784  21.358  0.00  0.00    +0.000 C 
ATOM     23  C   UNL     1       1.178  10.652  19.924  0.00  0.00    +0.000 C 
ATOM     24  O   UNL     1       1.704  11.621  19.372  0.00  0.00    +0.000 OA
ATOM     25  N   UNL     1       0.976   9.444  19.272  0.00  0.00    +0.000 N 
ATOM     26  C   UNL     1       1.479   9.299  17.902  0.00  0.00    +0.000 C 
ATOM     27  C   UNL     1       2.786   8.474  17.883  0.00  0.00    +0.000 C 
ATOM     28  N   UNL     1       2.750   7.184  18.631  0.00  0.00    +0.000 NA
ATOM     29  C   UNL     1       2.183   7.430  19.979  0.00  0.00    +0.000 C 
ATOM     30  C   UNL     1       0.823   8.162  19.952  0.00  0.00    +0.000 C 
ENDBRANCH  21  28
ENDBRANCH   1  21
TORSDOF 6
ENDMDL
