MODEL 1
REMARK VINA RESULT:      -7.9      0.000      0.000
REMARK  Name = 
REMARK  8 active torsions:
REMARK  status: ('A' for Active; 'I' for Inactive)
REMARK    1  A    between atoms: C_1  and  C_2
REMARK    2  A    between atoms: C_2  and  O_3
REMARK    3  A    between atoms: O_3  and  C_4
REMARK    4  A    between atoms: C_4  and  C_6
REMARK    5  A    between atoms: C_10  and  O_11
REMARK    6  A    between atoms: C_12  and  C_13
REMARK    7  A    between atoms: C_13  and  C_14
REMARK    8  A    between atoms: C_19  and  C_20
REMARK                            x       y       z     vdW  Elec       q    Type
REMARK                         _______ _______ _______ _____ _____    ______ ____
ROOT
ATOM      1  C   UNL     1       3.614   5.467  19.356  0.00  0.00    +0.000 A 
ATOM      2  O   UNL     1       2.624   5.767  20.290  0.00  0.00    +0.000 OA
ATOM      3  C   UNL     1       1.951   6.953  20.190  0.00  0.00    +0.000 A 
ATOM      4  C   UNL     1       1.014   7.242  21.184  0.00  0.00    +0.000 A 
ATOM      5  C   UNL     1       0.311   8.448  21.141  0.00  0.00    +0.000 A 
ATOM      6  C   UNL     1       0.511   9.370  20.107  0.00  0.00    +0.000 A 
ATOM      7  C   UNL     1       1.462   9.065  19.118  0.00  0.00    +0.000 A 
ATOM      8  C   UNL     1       2.170   7.857  19.164  0.00  0.00    +0.000 A 
ATOM      9  C   UNL     1       3.149   7.513  18.121  0.00  0.00    +0.000 A 
ATOM     10  O   UNL     1       3.323   8.264  17.169  0.00  0.00    +0.000 OA
ATOM     11  C   UNL     1       3.903   6.236  18.285  0.00  0.00    +0.000 A 
ENDROOT
BRANCH  11  12
ATOM     12  C   UNL     1       4.908   5.893  17.258  0.00  0.00    +0.000 A 
ATOM     13  C   UNL     1       6.220   6.406  17.374  0.00  0.00    +0.000 A 
ATOM     14  C   UNL     1       7.191   6.119  16.410  0.00  0.00    +0.000 A 
ATOM     15  C   UNL     1       6.817   5.335  15.341  0.00  0.00    +0.000 A 
ATOM     16  C   UNL     1       5.545   4.823  15.225  0.00  0.00    +0.000 A 
ATOM     17  C   UNL     1       4.569   5.075  16.169  0.00  0.00    +0.000 A 
ATOM     18  O   UNL     1       5.390   4.081  14.095  0.00  0.00    +0.000 OA
ATOM     19  C   UNL     1       6.684   4.250  13.480  0.00  0.00    +0.000 C 
ATOM     20  O   UNL     1       7.617   4.983  14.299  0.00  0.00    +0.000 OA
ENDBRANCH  11  12
BRANCH   1  21
ATOM     21  C   UNL     1       4.334   4.169  19.582  0.00  0.00    +0.000 C 
ATOM     22  O   UNL     1       5.544   4.022  19.645  0.00  0.00    +0.000 OA
BRANCH  21  23
ATOM     23  O   UNL     1       3.418   3.165  19.629  0.00  0.00    +0.000 OA
BRANCH  23  25
ATOM     24  C   UNL     1       2.432   2.303  17.648  0.00  0.00    +0.000 C 
ATOM     25  C   UNL     1       3.590   2.164  18.619  0.00  0.00    +0.000 C 
ENDBRANCH  23  25
ENDBRANCH  21  23
ENDBRANCH   1  21
BRANCH   5  26
ATOM     26  O   UNL     1      -0.599   8.740  22.119  0.00  0.00    +0.000 OA
ATOM     27  H   UNL     1      -1.446   8.315  21.908  0.00  0.00    +0.000 HD
ENDBRANCH   5  26
BRANCH   6  28
ATOM     28  C   UNL     1      -0.270  10.661  20.017  0.00  0.00    +0.000 C 
ATOM     29  C   UNL     1      -1.322  10.664  18.919  0.00  0.00    +0.000 C 
ENDBRANCH   6  28
TORSDOF 6
ENDMDL
MODEL 2
REMARK VINA RESULT:      -7.6      1.539      2.181
REMARK  Name = 
REMARK  8 active torsions:
REMARK  status: ('A' for Active; 'I' for Inactive)
REMARK    1  A    between atoms: C_1  and  C_2
REMARK    2  A    between atoms: C_2  and  O_3
REMARK    3  A    between atoms: O_3  and  C_4
REMARK    4  A    between atoms: C_4  and  C_6
REMARK    5  A    between atoms: C_10  and  O_11
REMARK    6  A    between atoms: C_12  and  C_13
REMARK    7  A    between atoms: C_13  and  C_14
REMARK    8  A    between atoms: C_19  and  C_20
REMARK                            x       y       z     vdW  Elec       q    Type
REMARK                         _______ _______ _______ _____ _____    ______ ____
ROOT
ATOM      1  C   UNL     1       2.223   6.370  19.994  0.00  0.00    +0.000 A 
ATOM      2  O   UNL     1       1.395   7.120  20.826  0.00  0.00    +0.000 OA
ATOM      3  C   UNL     1       1.068   8.398  20.465  0.00  0.00    +0.000 A 
ATOM      4  C   UNL     1       0.289   9.135  21.359  0.00  0.00    +0.000 A 
ATOM      5  C   UNL     1      -0.058  10.452  21.049  0.00  0.00    +0.000 A 
ATOM      6  C   UNL     1       0.341  11.045  19.846  0.00  0.00    +0.000 A 
ATOM      7  C   UNL     1       1.130  10.290  18.960  0.00  0.00    +0.000 A 
ATOM      8  C   UNL     1       1.481   8.970  19.274  0.00  0.00    +0.000 A 
ATOM      9  C   UNL     1       2.283   8.160  18.345  0.00  0.00    +0.000 A 
ATOM     10  O   UNL     1       2.615   8.617  17.258  0.00  0.00    +0.000 OA
ATOM     11  C   UNL     1       2.665   6.787  18.788  0.00  0.00    +0.000 A 
ENDROOT
BRANCH  11  12
ATOM     12  C   UNL     1       3.493   5.974  17.875  0.00  0.00    +0.000 A 
ATOM     13  C   UNL     1       3.034   4.699  17.474  0.00  0.00    +0.000 A 
ATOM     14  C   UNL     1       3.801   3.893  16.627  0.00  0.00    +0.000 A 
ATOM     15  C   UNL     1       5.021   4.382  16.214  0.00  0.00    +0.000 A 
ATOM     16  C   UNL     1       5.472   5.625  16.592  0.00  0.00    +0.000 A 
ATOM     17  C   UNL     1       4.730   6.451  17.414  0.00  0.00    +0.000 A 
ATOM     18  O   UNL     1       6.699   5.906  16.076  0.00  0.00    +0.000 OA
ATOM     19  C   UNL     1       6.998   4.669  15.398  0.00  0.00    +0.000 C 
ATOM     20  O   UNL     1       5.909   3.725  15.419  0.00  0.00    +0.000 OA
ENDBRANCH  11  12
BRANCH   1  21
ATOM     21  C   UNL     1       2.570   5.001  20.503  0.00  0.00    +0.000 C 
ATOM     22  O   UNL     1       3.695   4.533  20.596  0.00  0.00    +0.000 OA
BRANCH  21  23
ATOM     23  O   UNL     1       1.418   4.331  20.773  0.00  0.00    +0.000 OA
BRANCH  23  25
ATOM     24  C   UNL     1       0.765   2.622  19.258  0.00  0.00    +0.000 C 
ATOM     25  C   UNL     1       1.494   2.918  20.556  0.00  0.00    +0.000 C 
ENDBRANCH  23  25
ENDBRANCH  21  23
ENDBRANCH   1  21
BRANCH   5  26
ATOM     26  O   UNL     1      -0.811  11.181  21.927  0.00  0.00    +0.000 OA
ATOM     27  H   UNL     1      -1.633  10.703  22.123  0.00  0.00    +0.000 HD
ENDBRANCH   5  26
BRANCH   6  28
ATOM     28  C   UNL     1      -0.060  12.454  19.470  0.00  0.00    +0.000 C 
ATOM     29  C   UNL     1      -1.097  12.519  18.361  0.00  0.00    +0.000 C 
ENDBRANCH   6  28
TORSDOF 6
ENDMDL
MODEL 3
REMARK VINA RESULT:      -7.5      2.156      7.717
REMARK  Name = 
REMARK  8 active torsions:
REMARK  status: ('A' for Active; 'I' for Inactive)
REMARK    1  A    between atoms: C_1  and  C_2
REMARK    2  A    between atoms: C_2  and  O_3
REMARK    3  A    between atoms: O_3  and  C_4
REMARK    4  A    between atoms: C_4  and  C_6
REMARK    5  A    between atoms: C_10  and  O_11
REMARK    6  A    between atoms: C_12  and  C_13
REMARK    7  A    between atoms: C_13  and  C_14
REMARK    8  A    between atoms: C_19  and  C_20
REMARK                            x       y       z     vdW  Elec       q    Type
REMARK                         _______ _______ _______ _____ _____    ______ ____
ROOT
ATOM      1  C   UNL     1       1.291   7.875  20.328  0.00  0.00    +0.000 A 
ATOM      2  O   UNL     1       1.977   6.675  20.510  0.00  0.00    +0.000 OA
ATOM      3  C   UNL     1       2.810   6.227  19.522  0.00  0.00    +0.000 A 
ATOM      4  C   UNL     1       3.426   4.990  19.718  0.00  0.00    +0.000 A 
ATOM      5  C   UNL     1       4.272   4.476  18.732  0.00  0.00    +0.000 A 
ATOM      6  C   UNL     1       4.535   5.187  17.556  0.00  0.00    +0.000 A 
ATOM      7  C   UNL     1       3.902   6.429  17.373  0.00  0.00    +0.000 A 
ATOM      8  C   UNL     1       3.050   6.942  18.360  0.00  0.00    +0.000 A 
ATOM      9  C   UNL     1       2.402   8.252  18.195  0.00  0.00    +0.000 A 
ATOM     10  O   UNL     1       2.639   8.935  17.206  0.00  0.00    +0.000 OA
ATOM     11  C   UNL     1       1.460   8.690  19.265  0.00  0.00    +0.000 A 
ENDROOT
BRANCH  11  12
ATOM     12  C   UNL     1       0.783   9.992  19.097  0.00  0.00    +0.000 A 
ATOM     13  C   UNL     1      -0.505  10.033  18.516  0.00  0.00    +0.000 A 
ATOM     14  C   UNL     1      -1.167  11.249  18.322  0.00  0.00    +0.000 A 
ATOM     15  C   UNL     1      -0.512  12.399  18.703  0.00  0.00    +0.000 A 
ATOM     16  C   UNL     1       0.737  12.368  19.278  0.00  0.00    +0.000 A 
ATOM     17  C   UNL     1       1.409  11.183  19.497  0.00  0.00    +0.000 A 
ATOM     18  O   UNL     1       1.199  13.614  19.572  0.00  0.00    +0.000 OA
ATOM     19  C   UNL     1       0.132  14.430  19.046  0.00  0.00    +0.000 C 
ATOM     20  O   UNL     1      -0.989  13.666  18.560  0.00  0.00    +0.000 OA
ENDBRANCH  11  12
BRANCH   1  21
ATOM     21  C   UNL     1       0.359   8.253  21.442  0.00  0.00    +0.000 C 
ATOM     22  O   UNL     1      -0.811   7.918  21.543  0.00  0.00    +0.000 OA
BRANCH  21  23
ATOM     23  O   UNL     1       1.009   9.098  22.287  0.00  0.00    +0.000 OA
BRANCH  23  25
ATOM     24  C   UNL     1      -0.538  10.861  22.658  0.00  0.00    +0.000 C 
ATOM     25  C   UNL     1       0.174   9.681  23.293  0.00  0.00    +0.000 C 
ENDBRANCH  23  25
ENDBRANCH  21  23
ENDBRANCH   1  21
BRANCH   5  26
ATOM     26  O   UNL     1       4.868   3.259  18.914  0.00  0.00    +0.000 OA
ATOM     27  H   UNL     1       4.886   3.047  19.862  0.00  0.00    +0.000 HD
ENDBRANCH   5  26
BRANCH   6  28
ATOM     28  C   UNL     1       5.481   4.671  16.496  0.00  0.00    +0.000 C 
ATOM     29  C   UNL     1       5.536   5.540  15.250  0.00  0.00    +0.000 C 
ENDBRANCH   6  28
TORSDOF 6
ENDMDL
MODEL 4
REMARK VINA RESULT:      -7.2      2.507      7.829
REMARK  Name = 
REMARK  8 active torsions:
REMARK  status: ('A' for Active; 'I' for Inactive)
REMARK    1  A    between atoms: C_1  and  C_2
REMARK    2  A    between atoms: C_2  and  O_3
REMARK    3  A    between atoms: O_3  and  C_4
REMARK    4  A    between atoms: C_4  and  C_6
REMARK    5  A    between atoms: C_10  and  O_11
REMARK    6  A    between atoms: C_12  and  C_13
REMARK    7  A    between atoms: C_13  and  C_14
REMARK    8  A    between atoms: C_19  and  C_20
REMARK                            x       y       z     vdW  Elec       q    Type
REMARK                         _______ _______ _______ _____ _____    ______ ____
ROOT
ATOM      1  C   UNL     1       1.317   8.573  20.874  0.00  0.00    +0.000 A 
ATOM      2  O   UNL     1       1.807   7.294  21.128  0.00  0.00    +0.000 OA
ATOM      3  C   UNL     1       2.254   6.532  20.084  0.00  0.00    +0.000 A 
ATOM      4  C   UNL     1       2.675   5.233  20.375  0.00  0.00    +0.000 A 
ATOM      5  C   UNL     1       3.123   4.405  19.344  0.00  0.00    +0.000 A 
ATOM      6  C   UNL     1       3.180   4.857  18.020  0.00  0.00    +0.000 A 
ATOM      7  C   UNL     1       2.746   6.165  17.745  0.00  0.00    +0.000 A 
ATOM      8  C   UNL     1       2.293   6.994  18.780  0.00  0.00    +0.000 A 
ATOM      9  C   UNL     1       1.861   8.374  18.510  0.00  0.00    +0.000 A 
ATOM     10  O   UNL     1       1.939   8.833  17.376  0.00  0.00    +0.000 OA
ATOM     11  C   UNL     1       1.333   9.164  19.660  0.00  0.00    +0.000 A 
ENDROOT
BRANCH  11  12
ATOM     12  C   UNL     1       0.871  10.542  19.396  0.00  0.00    +0.000 A 
ATOM     13  C   UNL     1      -0.410  10.748  18.838  0.00  0.00    +0.000 A 
ATOM     14  C   UNL     1      -0.872  12.038  18.555  0.00  0.00    +0.000 A 
ATOM     15  C   UNL     1      -0.027  13.091  18.827  0.00  0.00    +0.000 A 
ATOM     16  C   UNL     1       1.219  12.900  19.379  0.00  0.00    +0.000 A 
ATOM     17  C   UNL     1       1.695  11.641  19.685  0.00  0.00    +0.000 A 
ATOM     18  O   UNL     1       1.887  14.072  19.561  0.00  0.00    +0.000 OA
ATOM     19  C   UNL     1       0.950  15.009  18.988  0.00  0.00    +0.000 C 
ATOM     20  O   UNL     1      -0.295  14.403  18.588  0.00  0.00    +0.000 OA
ENDBRANCH  11  12
BRANCH   1  21
ATOM     21  C   UNL     1       0.799   9.309  22.076  0.00  0.00    +0.000 C 
ATOM     22  O   UNL     1       1.456   9.653  23.046  0.00  0.00    +0.000 OA
BRANCH  21  23
ATOM     23  O   UNL     1      -0.546   9.464  21.945  0.00  0.00    +0.000 OA
BRANCH  23  25
ATOM     24  C   UNL     1      -1.127  11.736  22.322  0.00  0.00    +0.000 C 
ATOM     25  C   UNL     1      -1.135  10.338  22.914  0.00  0.00    +0.000 C 
ENDBRANCH  23  25
ENDBRANCH  21  23
ENDBRANCH   1  21
BRANCH   5  26
ATOM     26  O   UNL     1       3.526   3.128  19.623  0.00  0.00    +0.000 OA
ATOM     27  H   UNL     1       4.280   2.896  19.056  0.00  0.00    +0.000 HD
ENDBRANCH   5  26
BRANCH   6  28
ATOM     28  C   UNL     1       3.702   3.993  16.895  0.00  0.00    +0.000 C 
ATOM     29  C   UNL     1       5.002   4.497  16.290  0.00  0.00    +0.000 C 
ENDBRANCH   6  28
TORSDOF 6
ENDMDL
MODEL 5
REMARK VINA RESULT:      -7.0      1.026      1.130
REMARK  Name = 
REMARK  8 active torsions:
REMARK  status: ('A' for Active; 'I' for Inactive)
REMARK    1  A    between atoms: C_1  and  C_2
REMARK    2  A    between atoms: C_2  and  O_3
REMARK    3  A    between atoms: O_3  and  C_4
REMARK    4  A    between atoms: C_4  and  C_6
REMARK    5  A    between atoms: C_10  and  O_11
REMARK    6  A    between atoms: C_12  and  C_13
REMARK    7  A    between atoms: C_13  and  C_14
REMARK    8  A    between atoms: C_19  and  C_20
REMARK                            x       y       z     vdW  Elec       q    Type
REMARK                         _______ _______ _______ _____ _____    ______ ____
ROOT
ATOM      1  C   UNL     1       3.364   6.112  19.394  0.00  0.00    +0.000 A 
ATOM      2  O   UNL     1       2.358   6.575  20.241  0.00  0.00    +0.000 OA
ATOM      3  C   UNL     1       1.746   7.766  19.960  0.00  0.00    +0.000 A 
ATOM      4  C   UNL     1       0.790   8.222  20.869  0.00  0.00    +0.000 A 
ATOM      5  C   UNL     1       0.148   9.442  20.642  0.00  0.00    +0.000 A 
ATOM      6  C   UNL     1       0.427  10.210  19.507  0.00  0.00    +0.000 A 
ATOM      7  C   UNL     1       1.397   9.738  18.605  0.00  0.00    +0.000 A 
ATOM      8  C   UNL     1       2.044   8.516  18.836  0.00  0.00    +0.000 A 
ATOM      9  C   UNL     1       3.041   7.997  17.887  0.00  0.00    +0.000 A 
ATOM     10  O   UNL     1       3.284   8.609  16.854  0.00  0.00    +0.000 OA
ATOM     11  C   UNL     1       3.727   6.721  18.245  0.00  0.00    +0.000 A 
ENDROOT
BRANCH  11  12
ATOM     12  C   UNL     1       4.749   6.204  17.313  0.00  0.00    +0.000 A 
ATOM     13  C   UNL     1       6.101   6.571  17.494  0.00  0.00    +0.000 A 
ATOM     14  C   UNL     1       7.093   6.117  16.619  0.00  0.00    +0.000 A 
ATOM     15  C   UNL     1       6.699   5.316  15.571  0.00  0.00    +0.000 A 
ATOM     16  C   UNL     1       5.387   4.945  15.392  0.00  0.00    +0.000 A 
ATOM     17  C   UNL     1       4.388   5.364  16.248  0.00  0.00    +0.000 A 
ATOM     18  O   UNL     1       5.220   4.157  14.295  0.00  0.00    +0.000 OA
ATOM     19  C   UNL     1       6.562   4.140  13.766  0.00  0.00    +0.000 C 
ATOM     20  O   UNL     1       7.519   4.812  14.609  0.00  0.00    +0.000 OA
ENDBRANCH  11  12
BRANCH   1  21
ATOM     21  C   UNL     1       4.012   4.826  19.815  0.00  0.00    +0.000 C 
ATOM     22  O   UNL     1       5.187   4.679  20.116  0.00  0.00    +0.000 OA
BRANCH  21  23
ATOM     23  O   UNL     1       3.093   3.827  19.733  0.00  0.00    +0.000 OA
BRANCH  23  25
ATOM     24  C   UNL     1       1.687   2.972  21.445  0.00  0.00    +0.000 C 
ATOM     25  C   UNL     1       3.086   2.940  20.857  0.00  0.00    +0.000 C 
ENDBRANCH  23  25
ENDBRANCH  21  23
ENDBRANCH   1  21
BRANCH   5  26
ATOM     26  O   UNL     1      -0.780   9.898  21.536  0.00  0.00    +0.000 OA
ATOM     27  H   UNL     1      -1.661   9.580  21.278  0.00  0.00    +0.000 HD
ENDBRANCH   5  26
BRANCH   6  28
ATOM     28  C   UNL     1      -0.287  11.511  19.218  0.00  0.00    +0.000 C 
ATOM     29  C   UNL     1      -1.348  11.399  18.135  0.00  0.00    +0.000 C 
ENDBRANCH   6  28
TORSDOF 6
ENDMDL
MODEL 6
REMARK VINA RESULT:      -6.7      1.937      7.655
REMARK  Name = 
REMARK  8 active torsions:
REMARK  status: ('A' for Active; 'I' for Inactive)
REMARK    1  A    between atoms: C_1  and  C_2
REMARK    2  A    between atoms: C_2  and  O_3
REMARK    3  A    between atoms: O_3  and  C_4
REMARK    4  A    between atoms: C_4  and  C_6
REMARK    5  A    between atoms: C_10  and  O_11
REMARK    6  A    between atoms: C_12  and  C_13
REMARK    7  A    between atoms: C_13  and  C_14
REMARK    8  A    between atoms: C_19  and  C_20
REMARK                            x       y       z     vdW  Elec       q    Type
REMARK                         _______ _______ _______ _____ _____    ______ ____
ROOT
ATOM      1  C   UNL     1       1.482   7.742  20.325  0.00  0.00    +0.000 A 
ATOM      2  O   UNL     1       2.298   6.627  20.504  0.00  0.00    +0.000 OA
ATOM      3  C   UNL     1       3.139   6.248  19.494  0.00  0.00    +0.000 A 
ATOM      4  C   UNL     1       3.891   5.088  19.690  0.00  0.00    +0.000 A 
ATOM      5  C   UNL     1       4.751   4.644  18.683  0.00  0.00    +0.000 A 
ATOM      6  C   UNL     1       4.894   5.352  17.484  0.00  0.00    +0.000 A 
ATOM      7  C   UNL     1       4.125   6.514  17.302  0.00  0.00    +0.000 A 
ATOM      8  C   UNL     1       3.258   6.957  18.310  0.00  0.00    +0.000 A 
ATOM      9  C   UNL     1       2.468   8.186  18.144  0.00  0.00    +0.000 A 
ATOM     10  O   UNL     1       2.595   8.867  17.134  0.00  0.00    +0.000 OA
ATOM     11  C   UNL     1       1.523   8.546  19.241  0.00  0.00    +0.000 A 
ENDROOT
BRANCH  11  12
ATOM     12  C   UNL     1       0.704   9.764  19.073  0.00  0.00    +0.000 A 
ATOM     13  C   UNL     1       1.303  11.031  19.249  0.00  0.00    +0.000 A 
ATOM     14  C   UNL     1       0.554  12.204  19.118  0.00  0.00    +0.000 A 
ATOM     15  C   UNL     1      -0.786  12.076  18.828  0.00  0.00    +0.000 A 
ATOM     16  C   UNL     1      -1.376  10.846  18.645  0.00  0.00    +0.000 A 
ATOM     17  C   UNL     1      -0.659   9.671  18.751  0.00  0.00    +0.000 A 
ATOM     18  O   UNL     1      -2.705  10.948  18.371  0.00  0.00    +0.000 OA
ATOM     19  C   UNL     1      -2.895  12.374  18.480  0.00  0.00    +0.000 C 
ATOM     20  O   UNL     1      -1.670  13.102  18.697  0.00  0.00    +0.000 OA
ENDBRANCH  11  12
BRANCH   1  21
ATOM     21  C   UNL     1       0.555   8.045  21.466  0.00  0.00    +0.000 C 
ATOM     22  O   UNL     1      -0.570   7.593  21.616  0.00  0.00    +0.000 OA
BRANCH  21  23
ATOM     23  O   UNL     1       1.142   8.970  22.272  0.00  0.00    +0.000 OA
BRANCH  23  25
ATOM     24  C   UNL     1      -0.417  10.737  22.572  0.00  0.00    +0.000 C 
ATOM     25  C   UNL     1       0.261   9.553  23.238  0.00  0.00    +0.000 C 
ENDBRANCH  23  25
ENDBRANCH  21  23
ENDBRANCH   1  21
BRANCH   5  26
ATOM     26  O   UNL     1       5.481   3.502  18.866  0.00  0.00    +0.000 OA
ATOM     27  H   UNL     1       5.730   3.425  19.802  0.00  0.00    +0.000 HD
ENDBRANCH   5  26
BRANCH   6  28
ATOM     28  C   UNL     1       5.852   4.915  16.400  0.00  0.00    +0.000 C 
ATOM     29  C   UNL     1       5.515   5.471  15.026  0.00  0.00    +0.000 C 
ENDBRANCH   6  28
TORSDOF 6
ENDMDL
MODEL 7
REMARK VINA RESULT:      -6.7      1.714      2.616
REMARK  Name = 
REMARK  8 active torsions:
REMARK  status: ('A' for Active; 'I' for Inactive)
REMARK    1  A    between atoms: C_1  and  C_2
REMARK    2  A    between atoms: C_2  and  O_3
REMARK    3  A    between atoms: O_3  and  C_4
REMARK    4  A    between atoms: C_4  and  C_6
REMARK    5  A    between atoms: C_10  and  O_11
REMARK    6  A    between atoms: C_12  and  C_13
REMARK    7  A    between atoms: C_13  and  C_14
REMARK    8  A    between atoms: C_19  and  C_20
REMARK                            x       y       z     vdW  Elec       q    Type
REMARK                         _______ _______ _______ _____ _____    ______ ____
ROOT
ATOM      1  C   UNL     1       1.583   5.972  20.373  0.00  0.00    +0.000 A 
ATOM      2  O   UNL     1       0.750   6.695  21.225  0.00  0.00    +0.000 OA
ATOM      3  C   UNL     1       0.666   8.053  21.080  0.00  0.00    +0.000 A 
ATOM      4  C   UNL     1      -0.129   8.745  21.995  0.00  0.00    +0.000 A 
ATOM      5  C   UNL     1      -0.235  10.135  21.906  0.00  0.00    +0.000 A 
ATOM      6  C   UNL     1       0.424  10.851  20.900  0.00  0.00    +0.000 A 
ATOM      7  C   UNL     1       1.225  10.139  19.990  0.00  0.00    +0.000 A 
ATOM      8  C   UNL     1       1.334   8.745  20.084  0.00  0.00    +0.000 A 
ATOM      9  C   UNL     1       2.147   7.983  19.123  0.00  0.00    +0.000 A 
ATOM     10  O   UNL     1       2.703   8.559  18.195  0.00  0.00    +0.000 OA
ATOM     11  C   UNL     1       2.259   6.511  19.336  0.00  0.00    +0.000 A 
ENDROOT
BRANCH  11  12
ATOM     12  C   UNL     1       3.095   5.740  18.393  0.00  0.00    +0.000 A 
ATOM     13  C   UNL     1       2.511   4.689  17.651  0.00  0.00    +0.000 A 
ATOM     14  C   UNL     1       3.276   3.924  16.764  0.00  0.00    +0.000 A 
ATOM     15  C   UNL     1       4.616   4.225  16.656  0.00  0.00    +0.000 A 
ATOM     16  C   UNL     1       5.190   5.252  17.368  0.00  0.00    +0.000 A 
ATOM     17  C   UNL     1       4.458   6.035  18.237  0.00  0.00    +0.000 A 
ATOM     18  O   UNL     1       6.522   5.373  17.114  0.00  0.00    +0.000 OA
ATOM     19  C   UNL     1       6.730   4.256  16.224  0.00  0.00    +0.000 C 
ATOM     20  O   UNL     1       5.513   3.569  15.872  0.00  0.00    +0.000 OA
ENDBRANCH  11  12
BRANCH   1  21
ATOM     21  C   UNL     1       1.651   4.498  20.646  0.00  0.00    +0.000 C 
ATOM     22  O   UNL     1       0.744   3.695  20.486  0.00  0.00    +0.000 OA
BRANCH  21  23
ATOM     23  O   UNL     1       2.868   4.209  21.179  0.00  0.00    +0.000 OA
BRANCH  23  25
ATOM     24  C   UNL     1       4.135   2.514  20.100  0.00  0.00    +0.000 C 
ATOM     25  C   UNL     1       3.170   2.810  21.234  0.00  0.00    +0.000 C 
ENDBRANCH  23  25
ENDBRANCH  21  23
ENDBRANCH   1  21
BRANCH   5  26
ATOM     26  O   UNL     1      -1.003  10.818  22.807  0.00  0.00    +0.000 OA
ATOM     27  H   UNL     1      -0.805  11.767  22.746  0.00  0.00    +0.000 HD
ENDBRANCH   5  26
BRANCH   6  28
ATOM     28  C   UNL     1       0.289  12.350  20.757  0.00  0.00    +0.000 C 
ATOM     29  C   UNL     1      -0.652  12.775  19.641  0.00  0.00    +0.000 C 
ENDBRANCH   6  28
TORSDOF 6
ENDMDL
MODEL 8
REMARK VINA RESULT:      -6.6      1.180      1.416
REMARK  Name = 
REMARK  8 active torsions:
REMARK  status: ('A' for Active; 'I' for Inactive)
REMARK    1  A    between atoms: C_1  and  C_2
REMARK    2  A    between atoms: C_2  and  O_3
REMARK    3  A    between atoms: O_3  and  C_4
REMARK    4  A    between atoms: C_4  and  C_6
REMARK    5  A    between atoms: C_10  and  O_11
REMARK    6  A    between atoms: C_12  and  C_13
REMARK    7  A    between atoms: C_13  and  C_14
REMARK    8  A    between atoms: C_19  and  C_20
REMARK                            x       y       z     vdW  Elec       q    Type
REMARK                         _______ _______ _______ _____ _____    ______ ____
ROOT
ATOM      1  C   UNL     1       3.724   4.764  18.503  0.00  0.00    +0.000 A 
ATOM      2  O   UNL     1       2.817   5.124  19.498  0.00  0.00    +0.000 OA
ATOM      3  C   UNL     1       2.349   6.409  19.540  0.00  0.00    +0.000 A 
ATOM      4  C   UNL     1       1.493   6.743  20.591  0.00  0.00    +0.000 A 
ATOM      5  C   UNL     1       1.001   8.046  20.693  0.00  0.00    +0.000 A 
ATOM      6  C   UNL     1       1.331   9.025  19.749  0.00  0.00    +0.000 A 
ATOM      7  C   UNL     1       2.199   8.673  18.701  0.00  0.00    +0.000 A 
ATOM      8  C   UNL     1       2.696   7.366  18.601  0.00  0.00    +0.000 A 
ATOM      9  C   UNL     1       3.583   6.976  17.495  0.00  0.00    +0.000 A 
ATOM     10  O   UNL     1       3.862   7.783  16.615  0.00  0.00    +0.000 OA
ATOM     11  C   UNL     1       4.116   5.582  17.503  0.00  0.00    +0.000 A 
ENDROOT
BRANCH  11  12
ATOM     12  C   UNL     1       5.030   5.188  16.412  0.00  0.00    +0.000 A 
ATOM     13  C   UNL     1       6.412   5.453  16.535  0.00  0.00    +0.000 A 
ATOM     14  C   UNL     1       7.303   5.112  15.512  0.00  0.00    +0.000 A 
ATOM     15  C   UNL     1       6.781   4.525  14.382  0.00  0.00    +0.000 A 
ATOM     16  C   UNL     1       5.438   4.254  14.257  0.00  0.00    +0.000 A 
ATOM     17  C   UNL     1       4.537   4.563  15.255  0.00  0.00    +0.000 A 
ATOM     18  O   UNL     1       5.138   3.677  13.061  0.00  0.00    +0.000 OA
ATOM     19  C   UNL     1       6.432   3.689  12.422  0.00  0.00    +0.000 C 
ATOM     20  O   UNL     1       7.491   4.158  13.281  0.00  0.00    +0.000 OA
ENDBRANCH  11  12
BRANCH   1  21
ATOM     21  C   UNL     1       4.221   3.350  18.573  0.00  0.00    +0.000 C 
ATOM     22  O   UNL     1       3.978   2.463  17.771  0.00  0.00    +0.000 OA
BRANCH  21  23
ATOM     23  O   UNL     1       4.928   3.193  19.725  0.00  0.00    +0.000 OA
BRANCH  23  25
ATOM     24  C   UNL     1       3.246   2.370  21.185  0.00  0.00    +0.000 C 
ATOM     25  C   UNL     1       4.556   2.043  20.492  0.00  0.00    +0.000 C 
ENDBRANCH  23  25
ENDBRANCH  21  23
ENDBRANCH   1  21
BRANCH   5  26
ATOM     26  O   UNL     1       0.172   8.381  21.727  0.00  0.00    +0.000 OA
ATOM     27  H   UNL     1      -0.390   9.127  21.463  0.00  0.00    +0.000 HD
ENDBRANCH   5  26
BRANCH   6  28
ATOM     28  C   UNL     1       0.776  10.429  19.815  0.00  0.00    +0.000 C 
ATOM     29  C   UNL     1      -0.589  10.579  19.162  0.00  0.00    +0.000 C 
ENDBRANCH   6  28
TORSDOF 6
ENDMDL
MODEL 9
REMARK VINA RESULT:      -6.6      3.611     10.012
REMARK  Name = 
REMARK  8 active torsions:
REMARK  status: ('A' for Active; 'I' for Inactive)
REMARK    1  A    between atoms: C_1  and  C_2
REMARK    2  A    between atoms: C_2  and  O_3
REMARK    3  A    between atoms: O_3  and  C_4
REMARK    4  A    between atoms: C_4  and  C_6
REMARK    5  A    between atoms: C_10  and  O_11
REMARK    6  A    between atoms: C_12  and  C_13
REMARK    7  A    between atoms: C_13  and  C_14
REMARK    8  A    between atoms: C_19  and  C_20
REMARK                            x       y       z     vdW  Elec       q    Type
REMARK                         _______ _______ _______ _____ _____    ______ ____
ROOT
ATOM      1  C   UNL     1       0.395  11.452  19.278  0.00  0.00    +0.000 A 
ATOM      2  O   UNL     1       1.115  10.543  18.505  0.00  0.00    +0.000 OA
ATOM      3  C   UNL     1       1.404   9.310  19.022  0.00  0.00    +0.000 A 
ATOM      4  C   UNL     1       2.183   8.455  18.240  0.00  0.00    +0.000 A 
ATOM      5  C   UNL     1       2.524   7.192  18.727  0.00  0.00    +0.000 A 
ATOM      6  C   UNL     1       2.083   6.752  19.980  0.00  0.00    +0.000 A 
ATOM      7  C   UNL     1       1.305   7.628  20.757  0.00  0.00    +0.000 A 
ATOM      8  C   UNL     1       0.966   8.897  20.270  0.00  0.00    +0.000 A 
ATOM      9  C   UNL     1       0.131   9.814  21.060  0.00  0.00    +0.000 A 
ATOM     10  O   UNL     1      -0.321   9.457  22.141  0.00  0.00    +0.000 OA
ATOM     11  C   UNL     1      -0.126  11.169  20.492  0.00  0.00    +0.000 A 
ENDROOT
BRANCH  11  12
ATOM     12  C   UNL     1      -0.941  12.108  21.289  0.00  0.00    +0.000 A 
ATOM     13  C   UNL     1      -2.320  12.240  21.007  0.00  0.00    +0.000 A 
ATOM     14  C   UNL     1      -3.118  13.134  21.728  0.00  0.00    +0.000 A 
ATOM     15  C   UNL     1      -2.508  13.887  22.706  0.00  0.00    +0.000 A 
ATOM     16  C   UNL     1      -1.169  13.758  22.994  0.00  0.00    +0.000 A 
ATOM     17  C   UNL     1      -0.359  12.872  22.312  0.00  0.00    +0.000 A 
ATOM     18  O   UNL     1      -0.773  14.597  23.990  0.00  0.00    +0.000 OA
ATOM     19  C   UNL     1      -1.997  15.319  24.238  0.00  0.00    +0.000 C 
ATOM     20  O   UNL     1      -3.119  14.824  23.480  0.00  0.00    +0.000 OA
ENDBRANCH  11  12
BRANCH   1  21
ATOM     21  C   UNL     1       0.177  12.795  18.647  0.00  0.00    +0.000 C 
ATOM     22  O   UNL     1      -0.760  13.107  17.928  0.00  0.00    +0.000 OA
BRANCH  21  23
ATOM     23  O   UNL     1       1.238  13.594  18.942  0.00  0.00    +0.000 OA
BRANCH  23  25
ATOM     24  C   UNL     1       1.646  15.366  20.469  0.00  0.00    +0.000 C 
ATOM     25  C   UNL     1       0.891  14.955  19.218  0.00  0.00    +0.000 C 
ENDBRANCH  23  25
ENDBRANCH  21  23
ENDBRANCH   1  21
BRANCH   5  26
ATOM     26  O   UNL     1       3.296   6.356  17.969  0.00  0.00    +0.000 OA
ATOM     27  H   UNL     1       3.247   6.628  17.038  0.00  0.00    +0.000 HD
ENDBRANCH   5  26
BRANCH   6  28
ATOM     28  C   UNL     1       2.403   5.372  20.509  0.00  0.00    +0.000 C 
ATOM     29  C   UNL     1       1.216   4.422  20.497  0.00  0.00    +0.000 C 
ENDBRANCH   6  28
TORSDOF 6
ENDMDL
