MODEL 1
REMARK VINA RESULT:      -6.5      0.000      0.000
REMARK  Name = 
REMARK  3 active torsions:
REMARK  status: ('A' for Active; 'I' for Inactive)
REMARK    1  A    between atoms: C_1  and  N_2
REMARK    2  A    between atoms: C_6  and  C_7
REMARK    3  A    between atoms: N_12  and  C_13
REMARK                            x       y       z     vdW  Elec       q    Type
REMARK                         _______ _______ _______ _____ _____    ______ ____
ROOT
ATOM      1  C   UNL     1       1.069   9.764  18.418  0.00  0.00    +0.000 C 
ATOM      2  N   UNL     1       1.573   8.696  19.254  0.00  0.00    +0.000 N 
ATOM      3  C   UNL     1       2.480   7.767  18.786  0.00  0.00    +0.000 C 
ATOM      4  O   UNL     1       3.103   7.786  17.741  0.00  0.00    +0.000 OA
ATOM      5  C   UNL     1       2.531   6.715  19.858  0.00  0.00    +0.000 C 
ATOM      6  C   UNL     1       3.125   5.520  19.829  0.00  0.00    +0.000 C 
ATOM      7  N   UNL     1       1.755   7.174  20.887  0.00  0.00    +0.000 N 
ATOM      8  C   UNL     1       1.146   8.367  20.525  0.00  0.00    +0.000 C 
ATOM      9  S   UNL     1       0.075   9.163  21.508  0.00  0.00    +0.000 S 
ATOM     10  H   UNL     1       1.566   6.689  21.754  0.00  0.00    +0.000 HD
ENDROOT
BRANCH   6  11
ATOM     11  C   UNL     1       3.884   4.970  18.717  0.00  0.00    +0.000 A 
ATOM     12  C   UNL     1       3.242   4.310  17.591  0.00  0.00    +0.000 A 
ATOM     13  C   UNL     1       3.953   3.834  16.561  0.00  0.00    +0.000 A 
ATOM     14  C   UNL     1       5.434   3.966  16.543  0.00  0.00    +0.000 A 
ATOM     15  O   UNL     1       6.060   3.525  15.585  0.00  0.00    +0.000 OA
ATOM     16  N   UNL     1       5.997   4.589  17.653  0.00  0.00    +0.000 N 
ATOM     17  C   UNL     1       7.433   4.807  17.701  0.00  0.00    +0.000 C 
ATOM     18  C   UNL     1       5.226   5.074  18.699  0.00  0.00    +0.000 A 
ENDBRANCH   6  11
TORSDOF 1
ENDMDL
MODEL 2
REMARK VINA RESULT:      -6.1      2.249      2.711
REMARK  Name = 
REMARK  3 active torsions:
REMARK  status: ('A' for Active; 'I' for Inactive)
REMARK    1  A    between atoms: C_1  and  N_2
REMARK    2  A    between atoms: C_6  and  C_7
REMARK    3  A    between atoms: N_12  and  C_13
REMARK                            x       y       z     vdW  Elec       q    Type
REMARK                         _______ _______ _______ _____ _____    ______ ____
ROOT
ATOM      1  C   UNL     1       0.645  10.219  21.481  0.00  0.00    +0.000 C 
ATOM      2  N   UNL     1       0.921   9.798  20.125  0.00  0.00    +0.000 N 
ATOM      3  C   UNL     1       1.475   8.566  19.841  0.00  0.00    +0.000 C 
ATOM      4  O   UNL     1       1.644   7.627  20.595  0.00  0.00    +0.000 OA
ATOM      5  C   UNL     1       1.829   8.638  18.382  0.00  0.00    +0.000 C 
ATOM      6  C   UNL     1       2.539   7.778  17.650  0.00  0.00    +0.000 C 
ATOM      7  N   UNL     1       1.351   9.837  17.928  0.00  0.00    +0.000 N 
ATOM      8  C   UNL     1       0.817  10.565  18.982  0.00  0.00    +0.000 C 
ATOM      9  S   UNL     1       0.217  12.099  18.801  0.00  0.00    +0.000 S 
ATOM     10  H   UNL     1       1.444  10.199  16.988  0.00  0.00    +0.000 HD
ENDROOT
BRANCH   6  11
ATOM     11  C   UNL     1       3.132   6.538  18.126  0.00  0.00    +0.000 A 
ATOM     12  C   UNL     1       2.378   5.296  18.200  0.00  0.00    +0.000 A 
ATOM     13  C   UNL     1       2.947   4.156  18.615  0.00  0.00    +0.000 A 
ATOM     14  C   UNL     1       4.378   4.132  19.019  0.00  0.00    +0.000 A 
ATOM     15  O   UNL     1       4.874   3.074  19.390  0.00  0.00    +0.000 OA
ATOM     16  N   UNL     1       5.045   5.351  18.946  0.00  0.00    +0.000 N 
ATOM     17  C   UNL     1       6.459   5.414  19.274  0.00  0.00    +0.000 C 
ATOM     18  C   UNL     1       4.423   6.510  18.506  0.00  0.00    +0.000 A 
ENDBRANCH   6  11
TORSDOF 1
ENDMDL
MODEL 3
REMARK VINA RESULT:      -6.1      2.296      3.069
REMARK  Name = 
REMARK  3 active torsions:
REMARK  status: ('A' for Active; 'I' for Inactive)
REMARK    1  A    between atoms: C_1  and  N_2
REMARK    2  A    between atoms: C_6  and  C_7
REMARK    3  A    between atoms: N_12  and  C_13
REMARK                            x       y       z     vdW  Elec       q    Type
REMARK                         _______ _______ _______ _____ _____    ______ ____
ROOT
ATOM      1  C   UNL     1       0.788   9.570  21.514  0.00  0.00    +0.000 C 
ATOM      2  N   UNL     1       1.171   9.189  20.172  0.00  0.00    +0.000 N 
ATOM      3  C   UNL     1       1.712   7.952  19.890  0.00  0.00    +0.000 C 
ATOM      4  O   UNL     1       1.787   6.981  20.618  0.00  0.00    +0.000 OA
ATOM      5  C   UNL     1       2.196   8.065  18.471  0.00  0.00    +0.000 C 
ATOM      6  C   UNL     1       2.943   7.210  17.771  0.00  0.00    +0.000 C 
ATOM      7  N   UNL     1       1.794   9.294  18.024  0.00  0.00    +0.000 N 
ATOM      8  C   UNL     1       1.191  10.000  19.055  0.00  0.00    +0.000 C 
ATOM      9  S   UNL     1       0.652  11.558  18.882  0.00  0.00    +0.000 S 
ATOM     10  H   UNL     1       1.981   9.687  17.110  0.00  0.00    +0.000 HD
ENDROOT
BRANCH   6  11
ATOM     11  C   UNL     1       3.456   5.935  18.249  0.00  0.00    +0.000 A 
ATOM     12  C   UNL     1       4.755   5.815  18.894  0.00  0.00    +0.000 A 
ATOM     13  C   UNL     1       5.201   4.638  19.354  0.00  0.00    +0.000 A 
ATOM     14  C   UNL     1       4.372   3.411  19.212  0.00  0.00    +0.000 A 
ATOM     15  O   UNL     1       4.803   2.348  19.647  0.00  0.00    +0.000 OA
ATOM     16  N   UNL     1       3.149   3.581  18.573  0.00  0.00    +0.000 N 
ATOM     17  C   UNL     1       2.250   2.447  18.433  0.00  0.00    +0.000 C 
ATOM     18  C   UNL     1       2.718   4.818  18.113  0.00  0.00    +0.000 A 
ENDBRANCH   6  11
TORSDOF 1
ENDMDL
MODEL 4
REMARK VINA RESULT:      -6.0      1.144      1.353
REMARK  Name = 
REMARK  3 active torsions:
REMARK  status: ('A' for Active; 'I' for Inactive)
REMARK    1  A    between atoms: C_1  and  N_2
REMARK    2  A    between atoms: C_6  and  C_7
REMARK    3  A    between atoms: N_12  and  C_13
REMARK                            x       y       z     vdW  Elec       q    Type
REMARK                         _______ _______ _______ _____ _____    ______ ____
ROOT
ATOM      1  C   UNL     1       0.737  10.616  18.592  0.00  0.00    +0.000 C 
ATOM      2  N   UNL     1       1.065   9.580  19.547  0.00  0.00    +0.000 N 
ATOM      3  C   UNL     1       1.823   8.480  19.202  0.00  0.00    +0.000 C 
ATOM      4  O   UNL     1       2.449   8.292  18.176  0.00  0.00    +0.000 OA
ATOM      5  C   UNL     1       1.705   7.553  20.380  0.00  0.00    +0.000 C 
ATOM      6  C   UNL     1       2.110   6.287  20.491  0.00  0.00    +0.000 C 
ATOM      7  N   UNL     1       1.001   8.233  21.336  0.00  0.00    +0.000 N 
ATOM      8  C   UNL     1       0.583   9.458  20.835  0.00  0.00    +0.000 C 
ATOM      9  S   UNL     1      -0.360  10.508  21.703  0.00  0.00    +0.000 S 
ATOM     10  H   UNL     1       0.734   7.878  22.244  0.00  0.00    +0.000 HD
ENDROOT
BRANCH   6  11
ATOM     11  C   UNL     1       2.784   5.512  19.462  0.00  0.00    +0.000 A 
ATOM     12  C   UNL     1       2.054   4.789  18.432  0.00  0.00    +0.000 A 
ATOM     13  C   UNL     1       2.690   4.102  17.474  0.00  0.00    +0.000 A 
ATOM     14  C   UNL     1       4.177   4.059  17.440  0.00  0.00    +0.000 A 
ATOM     15  O   UNL     1       4.734   3.427  16.549  0.00  0.00    +0.000 OA
ATOM     16  N   UNL     1       4.823   4.753  18.458  0.00  0.00    +0.000 N 
ATOM     17  C   UNL     1       6.275   4.808  18.477  0.00  0.00    +0.000 C 
ATOM     18  C   UNL     1       4.129   5.457  19.431  0.00  0.00    +0.000 A 
ENDBRANCH   6  11
TORSDOF 1
ENDMDL
MODEL 5
REMARK VINA RESULT:      -5.9      4.055      6.028
REMARK  Name = 
REMARK  3 active torsions:
REMARK  status: ('A' for Active; 'I' for Inactive)
REMARK    1  A    between atoms: C_1  and  N_2
REMARK    2  A    between atoms: C_6  and  C_7
REMARK    3  A    between atoms: N_12  and  C_13
REMARK                            x       y       z     vdW  Elec       q    Type
REMARK                         _______ _______ _______ _____ _____    ______ ____
ROOT
ATOM      1  C   UNL     1       7.428   6.645  16.974  0.00  0.00    +0.000 C 
ATOM      2  N   UNL     1       6.470   5.632  16.588  0.00  0.00    +0.000 N 
ATOM      3  C   UNL     1       5.525   5.147  17.468  0.00  0.00    +0.000 C 
ATOM      4  O   UNL     1       5.234   5.574  18.568  0.00  0.00    +0.000 OA
ATOM      5  C   UNL     1       4.927   3.960  16.764  0.00  0.00    +0.000 C 
ATOM      6  C   UNL     1       4.088   3.039  17.242  0.00  0.00    +0.000 C 
ATOM      7  N   UNL     1       5.482   3.933  15.514  0.00  0.00    +0.000 N 
ATOM      8  C   UNL     1       6.441   4.929  15.399  0.00  0.00    +0.000 C 
ATOM      9  S   UNL     1       7.366   5.134  14.040  0.00  0.00    +0.000 S 
ATOM     10  H   UNL     1       5.303   3.243  14.797  0.00  0.00    +0.000 HD
ENDROOT
BRANCH   6  11
ATOM     11  C   UNL     1       3.549   2.995  18.592  0.00  0.00    +0.000 A 
ATOM     12  C   UNL     1       4.188   2.238  19.658  0.00  0.00    +0.000 A 
ATOM     13  C   UNL     1       3.694   2.230  20.903  0.00  0.00    +0.000 A 
ATOM     14  C   UNL     1       2.464   3.000  21.230  0.00  0.00    +0.000 A 
ATOM     15  O   UNL     1       2.037   2.979  22.380  0.00  0.00    +0.000 OA
ATOM     16  N   UNL     1       1.885   3.690  20.170  0.00  0.00    +0.000 N 
ATOM     17  C   UNL     1       0.708   4.510  20.406  0.00  0.00    +0.000 C 
ATOM     18  C   UNL     1       2.429   3.678  18.894  0.00  0.00    +0.000 A 
ENDBRANCH   6  11
TORSDOF 1
ENDMDL
MODEL 6
REMARK VINA RESULT:      -5.9      2.480      2.498
REMARK  Name = 
REMARK  3 active torsions:
REMARK  status: ('A' for Active; 'I' for Inactive)
REMARK    1  A    between atoms: C_1  and  N_2
REMARK    2  A    between atoms: C_6  and  C_7
REMARK    3  A    between atoms: N_12  and  C_13
REMARK                            x       y       z     vdW  Elec       q    Type
REMARK                         _______ _______ _______ _____ _____    ______ ____
ROOT
ATOM      1  C   UNL     1       2.061   9.527  17.948  0.00  0.00    +0.000 C 
ATOM      2  N   UNL     1       1.883   8.680  19.108  0.00  0.00    +0.000 N 
ATOM      3  C   UNL     1       2.242   7.348  19.102  0.00  0.00    +0.000 C 
ATOM      4  O   UNL     1       2.882   6.746  18.261  0.00  0.00    +0.000 OA
ATOM      5  C   UNL     1       1.661   6.794  20.373  0.00  0.00    +0.000 C 
ATOM      6  C   UNL     1       1.576   5.523  20.770  0.00  0.00    +0.000 C 
ATOM      7  N   UNL     1       1.129   7.858  21.050  0.00  0.00    +0.000 N 
ATOM      8  C   UNL     1       1.235   9.009  20.282  0.00  0.00    +0.000 C 
ATOM      9  S   UNL     1       0.622  10.471  20.765  0.00  0.00    +0.000 S 
ATOM     10  H   UNL     1       0.645   7.819  21.937  0.00  0.00    +0.000 HD
ENDROOT
BRANCH   6  11
ATOM     11  C   UNL     1       2.056   4.365  20.033  0.00  0.00    +0.000 A 
ATOM     12  C   UNL     1       1.429   3.918  18.798  0.00  0.00    +0.000 A 
ATOM     13  C   UNL     1       1.900   2.866  18.116  0.00  0.00    +0.000 A 
ATOM     14  C   UNL     1       3.086   2.117  18.611  0.00  0.00    +0.000 A 
ATOM     15  O   UNL     1       3.499   1.161  17.963  0.00  0.00    +0.000 OA
ATOM     16  N   UNL     1       3.634   2.576  19.804  0.00  0.00    +0.000 N 
ATOM     17  C   UNL     1       4.825   1.938  20.339  0.00  0.00    +0.000 C 
ATOM     18  C   UNL     1       3.121   3.674  20.480  0.00  0.00    +0.000 A 
ENDBRANCH   6  11
TORSDOF 1
ENDMDL
MODEL 7
REMARK VINA RESULT:      -5.7      4.004      6.299
REMARK  Name = 
REMARK  3 active torsions:
REMARK  status: ('A' for Active; 'I' for Inactive)
REMARK    1  A    between atoms: C_1  and  N_2
REMARK    2  A    between atoms: C_6  and  C_7
REMARK    3  A    between atoms: N_12  and  C_13
REMARK                            x       y       z     vdW  Elec       q    Type
REMARK                         _______ _______ _______ _____ _____    ______ ____
ROOT
ATOM      1  C   UNL     1       5.573   3.611  13.042  0.00  0.00    +0.000 C 
ATOM      2  N   UNL     1       6.121   4.298  14.191  0.00  0.00    +0.000 N 
ATOM      3  C   UNL     1       5.475   4.311  15.411  0.00  0.00    +0.000 C 
ATOM      4  O   UNL     1       4.511   3.655  15.757  0.00  0.00    +0.000 OA
ATOM      5  C   UNL     1       6.228   5.325  16.227  0.00  0.00    +0.000 C 
ATOM      6  C   UNL     1       5.916   5.838  17.418  0.00  0.00    +0.000 C 
ATOM      7  N   UNL     1       7.296   5.716  15.466  0.00  0.00    +0.000 N 
ATOM      8  C   UNL     1       7.231   5.119  14.215  0.00  0.00    +0.000 C 
ATOM      9  S   UNL     1       8.327   5.431  13.013  0.00  0.00    +0.000 S 
ATOM     10  H   UNL     1       7.989   6.406  15.722  0.00  0.00    +0.000 HD
ENDROOT
BRANCH   6  11
ATOM     11  C   UNL     1       4.743   5.504  18.210  0.00  0.00    +0.000 A 
ATOM     12  C   UNL     1       3.559   6.350  18.238  0.00  0.00    +0.000 A 
ATOM     13  C   UNL     1       2.476   6.014  18.952  0.00  0.00    +0.000 A 
ATOM     14  C   UNL     1       2.457   4.757  19.745  0.00  0.00    +0.000 A 
ATOM     15  O   UNL     1       1.450   4.471  20.385  0.00  0.00    +0.000 OA
ATOM     16  N   UNL     1       3.621   3.996  19.697  0.00  0.00    +0.000 N 
ATOM     17  C   UNL     1       3.677   2.726  20.401  0.00  0.00    +0.000 C 
ATOM     18  C   UNL     1       4.722   4.374  18.942  0.00  0.00    +0.000 A 
ENDBRANCH   6  11
TORSDOF 1
ENDMDL
MODEL 8
REMARK VINA RESULT:      -5.7      3.786      6.185
REMARK  Name = 
REMARK  3 active torsions:
REMARK  status: ('A' for Active; 'I' for Inactive)
REMARK    1  A    between atoms: C_1  and  N_2
REMARK    2  A    between atoms: C_6  and  C_7
REMARK    3  A    between atoms: N_12  and  C_13
REMARK                            x       y       z     vdW  Elec       q    Type
REMARK                         _______ _______ _______ _____ _____    ______ ____
ROOT
ATOM      1  C   UNL     1       7.941   4.553  17.347  0.00  0.00    +0.000 C 
ATOM      2  N   UNL     1       6.611   4.543  16.779  0.00  0.00    +0.000 N 
ATOM      3  C   UNL     1       5.484   4.379  17.558  0.00  0.00    +0.000 C 
ATOM      4  O   UNL     1       5.401   4.397  18.771  0.00  0.00    +0.000 OA
ATOM      5  C   UNL     1       4.369   4.169  16.572  0.00  0.00    +0.000 C 
ATOM      6  C   UNL     1       3.108   3.800  16.801  0.00  0.00    +0.000 C 
ATOM      7  N   UNL     1       4.915   4.345  15.330  0.00  0.00    +0.000 N 
ATOM      8  C   UNL     1       6.283   4.549  15.437  0.00  0.00    +0.000 C 
ATOM      9  S   UNL     1       7.272   4.722  14.119  0.00  0.00    +0.000 S 
ATOM     10  H   UNL     1       4.430   4.252  14.447  0.00  0.00    +0.000 HD
ENDROOT
BRANCH   6  11
ATOM     11  C   UNL     1       2.523   3.524  18.104  0.00  0.00    +0.000 A 
ATOM     12  C   UNL     1       2.277   2.168  18.572  0.00  0.00    +0.000 A 
ATOM     13  C   UNL     1       1.763   1.929  19.786  0.00  0.00    +0.000 A 
ATOM     14  C   UNL     1       1.424   3.056  20.695  0.00  0.00    +0.000 A 
ATOM     15  O   UNL     1       0.961   2.809  21.803  0.00  0.00    +0.000 OA
ATOM     16  N   UNL     1       1.664   4.330  20.191  0.00  0.00    +0.000 N 
ATOM     17  C   UNL     1       1.410   5.492  21.027  0.00  0.00    +0.000 C 
ATOM     18  C   UNL     1       2.202   4.538  18.928  0.00  0.00    +0.000 A 
ENDBRANCH   6  11
TORSDOF 1
ENDMDL
MODEL 9
REMARK VINA RESULT:      -5.6      4.246      5.823
REMARK  Name = 
REMARK  3 active torsions:
REMARK  status: ('A' for Active; 'I' for Inactive)
REMARK    1  A    between atoms: C_1  and  N_2
REMARK    2  A    between atoms: C_6  and  C_7
REMARK    3  A    between atoms: N_12  and  C_13
REMARK                            x       y       z     vdW  Elec       q    Type
REMARK                         _______ _______ _______ _____ _____    ______ ____
ROOT
ATOM      1  C   UNL     1       7.309   6.454  17.192  0.00  0.00    +0.000 C 
ATOM      2  N   UNL     1       6.239   5.620  16.690  0.00  0.00    +0.000 N 
ATOM      3  C   UNL     1       5.196   5.206  17.494  0.00  0.00    +0.000 C 
ATOM      4  O   UNL     1       4.918   5.583  18.616  0.00  0.00    +0.000 OA
ATOM      5  C   UNL     1       4.472   4.175  16.673  0.00  0.00    +0.000 C 
ATOM      6  C   UNL     1       3.494   3.347  17.044  0.00  0.00    +0.000 C 
ATOM      7  N   UNL     1       5.075   4.167  15.445  0.00  0.00    +0.000 N 
ATOM      8  C   UNL     1       6.166   5.024  15.447  0.00  0.00    +0.000 C 
ATOM      9  S   UNL     1       7.171   5.201  14.141  0.00  0.00    +0.000 S 
ATOM     10  H   UNL     1       4.834   3.568  14.667  0.00  0.00    +0.000 HD
ENDROOT
BRANCH   6  11
ATOM     11  C   UNL     1       2.893   3.275  18.367  0.00  0.00    +0.000 A 
ATOM     12  C   UNL     1       1.601   3.873  18.666  0.00  0.00    +0.000 A 
ATOM     13  C   UNL     1       1.048   3.773  19.882  0.00  0.00    +0.000 A 
ATOM     14  C   UNL     1       1.751   3.043  20.971  0.00  0.00    +0.000 A 
ATOM     15  O   UNL     1       1.220   2.962  22.073  0.00  0.00    +0.000 OA
ATOM     16  N   UNL     1       2.990   2.507  20.635  0.00  0.00    +0.000 N 
ATOM     17  C   UNL     1       3.727   1.734  21.620  0.00  0.00    +0.000 C 
ATOM     18  C   UNL     1       3.528   2.627  19.361  0.00  0.00    +0.000 A 
ENDBRANCH   6  11
TORSDOF 1
ENDMDL
