MODEL 1
REMARK VINA RESULT:      -9.0      0.000      0.000
REMARK  Name = 
REMARK  6 active torsions:
REMARK  status: ('A' for Active; 'I' for Inactive)
REMARK    1  A    between atoms: C_1  and  C_2
REMARK    2  A    between atoms: C_9  and  C_10
REMARK    3  A    between atoms: C_10  and  N_11
REMARK    4  A    between atoms: N_11  and  C_12
REMARK    5  A    between atoms: C_12  and  C_13
REMARK    6  A    between atoms: C_18  and  C_20
REMARK                            x       y       z     vdW  Elec       q    Type
REMARK                         _______ _______ _______ _____ _____    ______ ____
ROOT
ATOM      1  N   UNL     1       4.299   4.771  17.258  0.00  0.00    +0.000 N 
ATOM      2  C   UNL     1       5.531   5.191  16.707  0.00  0.00    +0.000 C 
ATOM      3  O   UNL     1       6.333   5.848  17.381  0.00  0.00    +0.000 OA
ENDROOT
BRANCH   2   4
ATOM      4  C   UNL     1       6.014   4.812  15.335  0.00  0.00    +0.000 A 
ATOM      5  C   UNL     1       5.296   4.001  14.453  0.00  0.00    +0.000 A 
ATOM      6  C   UNL     1       5.760   3.611  13.207  0.00  0.00    +0.000 A 
ATOM      7  C   UNL     1       6.939   4.153  12.744  0.00  0.00    +0.000 A 
ATOM      8  F   UNL     1       7.360   3.839  11.514  0.00  0.00    +0.000 F 
ATOM      9  C   UNL     1       7.618   5.078  13.528  0.00  0.00    +0.000 A 
ATOM     10  F   UNL     1       8.709   5.692  13.031  0.00  0.00    +0.000 F 
ATOM     11  C   UNL     1       7.182   5.392  14.817  0.00  0.00    +0.000 A 
ENDBRANCH   2   4
BRANCH   1  12
ATOM     12  C   UNL     1       4.184   4.876  18.734  0.00  0.00    +0.000 C 
BRANCH  12  21
ATOM     13  C   UNL     1       0.814  11.668  18.455  0.00  0.00    +0.000 C 
ATOM     14  C   UNL     1       1.025  10.332  19.116  0.00  0.00    +0.000 A 
ATOM     15  C   UNL     1       0.417  10.059  20.342  0.00  0.00    +0.000 A 
ATOM     16  C   UNL     1       0.623   8.833  20.977  0.00  0.00    +0.000 A 
ATOM     17  C   UNL     1       1.436   7.868  20.378  0.00  0.00    +0.000 A 
ATOM     18  N   UNL     1       1.667   6.649  21.024  0.00  0.00    +0.000 N 
ATOM     19  C   UNL     1       2.472   5.657  20.531  0.00  0.00    +0.000 A 
ATOM     20  O   UNL     1       2.588   4.598  21.139  0.00  0.00    +0.000 OA
ATOM     21  C   UNL     1       3.180   5.909  19.235  0.00  0.00    +0.000 A 
ATOM     22  C   UNL     1       2.900   7.050  18.571  0.00  0.00    +0.000 A 
ATOM     23  C   UNL     1       2.038   8.106  19.140  0.00  0.00    +0.000 A 
ATOM     24  C   UNL     1       1.838   9.350  18.521  0.00  0.00    +0.000 A 
ATOM     25  H   UNL     1       1.237   6.461  21.915  0.00  0.00    +0.000 HD
ENDBRANCH  12  21
ENDBRANCH   1  12
BRANCH   1  26
ATOM     26  C   UNL     1       3.232   3.995  16.577  0.00  0.00    +0.000 C 
BRANCH  26  27
ATOM     27  C   UNL     1       2.532   3.003  17.478  0.00  0.00    +0.000 A 
ATOM     28  C   UNL     1       2.935   1.953  18.287  0.00  0.00    +0.000 A 
ATOM     29  C   UNL     1       1.896   1.761  19.251  0.00  0.00    +0.000 A 
ATOM     30  C   UNL     1       0.870   2.602  18.881  0.00  0.00    +0.000 A 
ATOM     31  O   UNL     1       1.223   3.325  17.785  0.00  0.00    +0.000 OA
ENDBRANCH  26  27
ENDBRANCH   1  26
TORSDOF 5
ENDMDL
MODEL 2
REMARK VINA RESULT:      -8.7      0.536      1.222
REMARK  Name = 
REMARK  6 active torsions:
REMARK  status: ('A' for Active; 'I' for Inactive)
REMARK    1  A    between atoms: C_1  and  C_2
REMARK    2  A    between atoms: C_9  and  C_10
REMARK    3  A    between atoms: C_10  and  N_11
REMARK    4  A    between atoms: N_11  and  C_12
REMARK    5  A    between atoms: C_12  and  C_13
REMARK    6  A    between atoms: C_18  and  C_20
REMARK                            x       y       z     vdW  Elec       q    Type
REMARK                         _______ _______ _______ _____ _____    ______ ____
ROOT
ATOM      1  N   UNL     1       4.199   4.717  17.268  0.00  0.00    +0.000 N 
ATOM      2  C   UNL     1       5.364   5.287  16.706  0.00  0.00    +0.000 C 
ATOM      3  O   UNL     1       6.073   6.055  17.367  0.00  0.00    +0.000 OA
ENDROOT
BRANCH   2   4
ATOM      4  C   UNL     1       5.890   4.954  15.337  0.00  0.00    +0.000 A 
ATOM      5  C   UNL     1       7.219   5.136  14.949  0.00  0.00    +0.000 A 
ATOM      6  C   UNL     1       7.696   4.875  13.674  0.00  0.00    +0.000 A 
ATOM      7  C   UNL     1       6.851   4.277  12.765  0.00  0.00    +0.000 A 
ATOM      8  F   UNL     1       7.321   3.955  11.555  0.00  0.00    +0.000 F 
ATOM      9  C   UNL     1       5.559   3.944  13.151  0.00  0.00    +0.000 A 
ATOM     10  F   UNL     1       4.769   3.259  12.302  0.00  0.00    +0.000 F 
ATOM     11  C   UNL     1       5.068   4.294  14.411  0.00  0.00    +0.000 A 
ENDBRANCH   2   4
BRANCH   1  12
ATOM     12  C   UNL     1       4.074   4.828  18.743  0.00  0.00    +0.000 C 
BRANCH  12  21
ATOM     13  C   UNL     1       0.910  11.714  18.362  0.00  0.00    +0.000 C 
ATOM     14  C   UNL     1       1.086  10.385  19.047  0.00  0.00    +0.000 A 
ATOM     15  C   UNL     1       0.482  10.155  20.284  0.00  0.00    +0.000 A 
ATOM     16  C   UNL     1       0.657   8.935  20.941  0.00  0.00    +0.000 A 
ATOM     17  C   UNL     1       1.435   7.934  20.353  0.00  0.00    +0.000 A 
ATOM     18  N   UNL     1       1.635   6.722  21.021  0.00  0.00    +0.000 N 
ATOM     19  C   UNL     1       2.404   5.696  20.540  0.00  0.00    +0.000 A 
ATOM     20  O   UNL     1       2.494   4.646  21.167  0.00  0.00    +0.000 OA
ATOM     21  C   UNL     1       3.106   5.902  19.233  0.00  0.00    +0.000 A 
ATOM     22  C   UNL     1       2.855   7.037  18.549  0.00  0.00    +0.000 A 
ATOM     23  C   UNL     1       2.031   8.130  19.106  0.00  0.00    +0.000 A 
ATOM     24  C   UNL     1       1.863   9.367  18.464  0.00  0.00    +0.000 A 
ATOM     25  H   UNL     1       1.208   6.564  21.919  0.00  0.00    +0.000 HD
ENDBRANCH  12  21
ENDBRANCH   1  12
BRANCH   1  26
ATOM     26  C   UNL     1       3.242   3.796  16.603  0.00  0.00    +0.000 C 
BRANCH  26  27
ATOM     27  C   UNL     1       2.497   2.896  17.563  0.00  0.00    +0.000 A 
ATOM     28  C   UNL     1       2.853   1.890  18.446  0.00  0.00    +0.000 A 
ATOM     29  C   UNL     1       1.800   1.805  19.410  0.00  0.00    +0.000 A 
ATOM     30  C   UNL     1       0.810   2.657  18.972  0.00  0.00    +0.000 A 
ATOM     31  O   UNL     1       1.199   3.288  17.833  0.00  0.00    +0.000 OA
ENDBRANCH  26  27
ENDBRANCH   1  26
TORSDOF 5
ENDMDL
MODEL 3
REMARK VINA RESULT:      -8.7      5.734      8.648
REMARK  Name = 
REMARK  6 active torsions:
REMARK  status: ('A' for Active; 'I' for Inactive)
REMARK    1  A    between atoms: C_1  and  C_2
REMARK    2  A    between atoms: C_9  and  C_10
REMARK    3  A    between atoms: C_10  and  N_11
REMARK    4  A    between atoms: N_11  and  C_12
REMARK    5  A    between atoms: C_12  and  C_13
REMARK    6  A    between atoms: C_18  and  C_20
REMARK                            x       y       z     vdW  Elec       q    Type
REMARK                         _______ _______ _______ _____ _____    ______ ____
ROOT
ATOM      1  N   UNL     1      -0.689  11.347  19.071  0.00  0.00    +0.000 N 
ATOM      2  C   UNL     1       0.699  11.084  19.142  0.00  0.00    +0.000 C 
ATOM      3  O   UNL     1       1.498  11.984  19.425  0.00  0.00    +0.000 OA
ENDROOT
BRANCH   2   4
ATOM      4  C   UNL     1       1.307   9.719  18.983  0.00  0.00    +0.000 A 
ATOM      5  C   UNL     1       2.063   9.328  17.875  0.00  0.00    +0.000 A 
ATOM      6  C   UNL     1       2.584   8.055  17.704  0.00  0.00    +0.000 A 
ATOM      7  C   UNL     1       2.470   7.152  18.739  0.00  0.00    +0.000 A 
ATOM      8  F   UNL     1       3.032   5.945  18.612  0.00  0.00    +0.000 F 
ATOM      9  C   UNL     1       1.851   7.542  19.919  0.00  0.00    +0.000 A 
ATOM     10  F   UNL     1       1.837   6.700  20.970  0.00  0.00    +0.000 F 
ATOM     11  C   UNL     1       1.254   8.799  20.041  0.00  0.00    +0.000 A 
ENDBRANCH   2   4
BRANCH   1  12
ATOM     12  C   UNL     1      -1.132  12.634  19.663  0.00  0.00    +0.000 C 
BRANCH  12  21
ATOM     13  C   UNL     1      -7.774  13.286  23.273  0.00  0.00    +0.000 C 
ATOM     14  C   UNL     1      -6.299  12.984  23.280  0.00  0.00    +0.000 A 
ATOM     15  C   UNL     1      -5.644  12.742  24.488  0.00  0.00    +0.000 A 
ATOM     16  C   UNL     1      -4.272  12.485  24.510  0.00  0.00    +0.000 A 
ATOM     17  C   UNL     1      -3.549  12.460  23.314  0.00  0.00    +0.000 A 
ATOM     18  N   UNL     1      -2.170  12.230  23.335  0.00  0.00    +0.000 N 
ATOM     19  C   UNL     1      -1.375  12.219  22.220  0.00  0.00    +0.000 A 
ATOM     20  O   UNL     1      -0.179  11.966  22.319  0.00  0.00    +0.000 OA
ATOM     21  C   UNL     1      -2.018  12.509  20.900  0.00  0.00    +0.000 A 
ATOM     22  C   UNL     1      -3.359  12.655  20.865  0.00  0.00    +0.000 A 
ATOM     23  C   UNL     1      -4.184  12.676  22.090  0.00  0.00    +0.000 A 
ATOM     24  C   UNL     1      -5.560  12.953  22.082  0.00  0.00    +0.000 A 
ATOM     25  H   UNL     1      -1.699  12.069  24.210  0.00  0.00    +0.000 HD
ENDBRANCH  12  21
ENDBRANCH   1  12
BRANCH   1  26
ATOM     26  C   UNL     1      -1.766  10.385  18.730  0.00  0.00    +0.000 C 
BRANCH  26  27
ATOM     27  C   UNL     1      -2.458  10.685  17.419  0.00  0.00    +0.000 A 
ATOM     28  C   UNL     1      -2.363  10.203  16.124  0.00  0.00    +0.000 A 
ATOM     29  C   UNL     1      -3.607  10.505  15.486  0.00  0.00    +0.000 A 
ATOM     30  C   UNL     1      -4.318  11.275  16.381  0.00  0.00    +0.000 A 
ATOM     31  O   UNL     1      -3.617  11.429  17.535  0.00  0.00    +0.000 OA
ENDBRANCH  26  27
ENDBRANCH   1  26
TORSDOF 5
ENDMDL
MODEL 4
REMARK VINA RESULT:      -8.6      3.428      7.378
REMARK  Name = 
REMARK  6 active torsions:
REMARK  status: ('A' for Active; 'I' for Inactive)
REMARK    1  A    between atoms: C_1  and  C_2
REMARK    2  A    between atoms: C_9  and  C_10
REMARK    3  A    between atoms: C_10  and  N_11
REMARK    4  A    between atoms: N_11  and  C_12
REMARK    5  A    between atoms: C_12  and  C_13
REMARK    6  A    between atoms: C_18  and  C_20
REMARK                            x       y       z     vdW  Elec       q    Type
REMARK                         _______ _______ _______ _____ _____    ______ ____
ROOT
ATOM      1  N   UNL     1       4.084   4.784  18.651  0.00  0.00    +0.000 N 
ATOM      2  C   UNL     1       4.298   6.173  18.803  0.00  0.00    +0.000 C 
ATOM      3  O   UNL     1       5.445   6.631  18.874  0.00  0.00    +0.000 OA
ENDROOT
BRANCH   2   4
ATOM      4  C   UNL     1       3.202   7.201  18.796  0.00  0.00    +0.000 A 
ATOM      5  C   UNL     1       2.842   7.947  17.671  0.00  0.00    +0.000 A 
ATOM      6  C   UNL     1       1.864   8.929  17.674  0.00  0.00    +0.000 A 
ATOM      7  C   UNL     1       1.105   9.098  18.810  0.00  0.00    +0.000 A 
ATOM      8  F   UNL     1       0.111   9.994  18.800  0.00  0.00    +0.000 F 
ATOM      9  C   UNL     1       1.330   8.280  19.910  0.00  0.00    +0.000 A 
ATOM     10  F   UNL     1       0.517   8.369  20.980  0.00  0.00    +0.000 F 
ATOM     11  C   UNL     1       2.378   7.356  19.920  0.00  0.00    +0.000 A 
ENDBRANCH   2   4
BRANCH   1  12
ATOM     12  C   UNL     1       5.274   3.987  18.260  0.00  0.00    +0.000 C 
BRANCH  12  21
ATOM     13  C   UNL     1       4.443   3.177  10.761  0.00  0.00    +0.000 C 
ATOM     14  C   UNL     1       5.254   3.607  11.955  0.00  0.00    +0.000 A 
ATOM     15  C   UNL     1       6.567   4.049  11.781  0.00  0.00    +0.000 A 
ATOM     16  C   UNL     1       7.337   4.429  12.882  0.00  0.00    +0.000 A 
ATOM     17  C   UNL     1       6.788   4.375  14.166  0.00  0.00    +0.000 A 
ATOM     18  N   UNL     1       7.566   4.729  15.274  0.00  0.00    +0.000 N 
ATOM     19  C   UNL     1       7.126   4.679  16.570  0.00  0.00    +0.000 A 
ATOM     20  O   UNL     1       7.857   5.048  17.483  0.00  0.00    +0.000 OA
ATOM     21  C   UNL     1       5.738   4.178  16.819  0.00  0.00    +0.000 A 
ATOM     22  C   UNL     1       4.958   3.909  15.750  0.00  0.00    +0.000 A 
ATOM     23  C   UNL     1       5.470   3.960  14.366  0.00  0.00    +0.000 A 
ATOM     24  C   UNL     1       4.712   3.562  13.253  0.00  0.00    +0.000 A 
ATOM     25  H   UNL     1       8.517   5.035  15.146  0.00  0.00    +0.000 HD
ENDBRANCH  12  21
ENDBRANCH   1  12
BRANCH   1  26
ATOM     26  C   UNL     1       2.778   4.083  18.569  0.00  0.00    +0.000 C 
BRANCH  26  27
ATOM     27  C   UNL     1       2.209   3.694  19.915  0.00  0.00    +0.000 A 
ATOM     28  C   UNL     1       0.937   3.495  20.426  0.00  0.00    +0.000 A 
ATOM     29  C   UNL     1       1.088   2.656  21.574  0.00  0.00    +0.000 A 
ATOM     30  C   UNL     1       2.444   2.519  21.772  0.00  0.00    +0.000 A 
ATOM     31  O   UNL     1       3.133   3.178  20.804  0.00  0.00    +0.000 OA
ENDBRANCH  26  27
ENDBRANCH   1  26
TORSDOF 5
ENDMDL
MODEL 5
REMARK VINA RESULT:      -8.5      3.507      7.994
REMARK  Name = 
REMARK  6 active torsions:
REMARK  status: ('A' for Active; 'I' for Inactive)
REMARK    1  A    between atoms: C_1  and  C_2
REMARK    2  A    between atoms: C_9  and  C_10
REMARK    3  A    between atoms: C_10  and  N_11
REMARK    4  A    between atoms: N_11  and  C_12
REMARK    5  A    between atoms: C_12  and  C_13
REMARK    6  A    between atoms: C_18  and  C_20
REMARK                            x       y       z     vdW  Elec       q    Type
REMARK                         _______ _______ _______ _____ _____    ______ ____
ROOT
ATOM      1  N   UNL     1       4.082   5.478  18.063  0.00  0.00    +0.000 N 
ATOM      2  C   UNL     1       4.366   4.454  18.994  0.00  0.00    +0.000 C 
ATOM      3  O   UNL     1       5.528   4.072  19.179  0.00  0.00    +0.000 OA
ENDROOT
BRANCH   2   4
ATOM      4  C   UNL     1       3.339   3.819  19.890  0.00  0.00    +0.000 A 
ATOM      5  C   UNL     1       3.038   4.276  21.175  0.00  0.00    +0.000 A 
ATOM      6  C   UNL     1       2.125   3.665  22.020  0.00  0.00    +0.000 A 
ATOM      7  C   UNL     1       1.369   2.623  21.529  0.00  0.00    +0.000 A 
ATOM      8  F   UNL     1       0.436   2.072  22.313  0.00  0.00    +0.000 F 
ATOM      9  C   UNL     1       1.532   2.225  20.208  0.00  0.00    +0.000 A 
ATOM     10  F   UNL     1       0.716   1.284  19.695  0.00  0.00    +0.000 F 
ATOM     11  C   UNL     1       2.517   2.794  19.398  0.00  0.00    +0.000 A 
ENDBRANCH   2   4
BRANCH   1  12
ATOM     12  C   UNL     1       5.250   6.262  17.591  0.00  0.00    +0.000 C 
BRANCH  12  21
ATOM     13  C   UNL     1       5.017   2.235  11.164  0.00  0.00    +0.000 C 
ATOM     14  C   UNL     1       5.726   3.178  12.098  0.00  0.00    +0.000 A 
ATOM     15  C   UNL     1       7.043   3.560  11.834  0.00  0.00    +0.000 A 
ATOM     16  C   UNL     1       7.720   4.415  12.705  0.00  0.00    +0.000 A 
ATOM     17  C   UNL     1       7.074   4.901  13.846  0.00  0.00    +0.000 A 
ATOM     18  N   UNL     1       7.758   5.736  14.735  0.00  0.00    +0.000 N 
ATOM     19  C   UNL     1       7.220   6.235  15.891  0.00  0.00    +0.000 A 
ATOM     20  O   UNL     1       7.873   6.997  16.596  0.00  0.00    +0.000 OA
ATOM     21  C   UNL     1       5.823   5.828  16.244  0.00  0.00    +0.000 A 
ATOM     22  C   UNL     1       5.132   5.087  15.353  0.00  0.00    +0.000 A 
ATOM     23  C   UNL     1       5.750   4.553  14.121  0.00  0.00    +0.000 A 
ATOM     24  C   UNL     1       5.086   3.677  13.248  0.00  0.00    +0.000 A 
ATOM     25  H   UNL     1       8.712   5.999  14.547  0.00  0.00    +0.000 HD
ENDBRANCH  12  21
ENDBRANCH   1  12
BRANCH   1  26
ATOM     26  C   UNL     1       2.748   6.031  17.719  0.00  0.00    +0.000 C 
BRANCH  26  27
ATOM     27  C   UNL     1       2.466   7.376  18.350  0.00  0.00    +0.000 A 
ATOM     28  C   UNL     1       2.137   8.636  17.877  0.00  0.00    +0.000 A 
ATOM     29  C   UNL     1       1.503   9.323  18.959  0.00  0.00    +0.000 A 
ATOM     30  C   UNL     1       1.618   8.498  20.056  0.00  0.00    +0.000 A 
ATOM     31  O   UNL     1       2.238   7.338  19.713  0.00  0.00    +0.000 OA
ENDBRANCH  26  27
ENDBRANCH   1  26
TORSDOF 5
ENDMDL
MODEL 6
REMARK VINA RESULT:      -8.3      3.860      7.611
REMARK  Name = 
REMARK  6 active torsions:
REMARK  status: ('A' for Active; 'I' for Inactive)
REMARK    1  A    between atoms: C_1  and  C_2
REMARK    2  A    between atoms: C_9  and  C_10
REMARK    3  A    between atoms: C_10  and  N_11
REMARK    4  A    between atoms: N_11  and  C_12
REMARK    5  A    between atoms: C_12  and  C_13
REMARK    6  A    between atoms: C_18  and  C_20
REMARK                            x       y       z     vdW  Elec       q    Type
REMARK                         _______ _______ _______ _____ _____    ______ ____
ROOT
ATOM      1  N   UNL     1       4.547   6.031  18.508  0.00  0.00    +0.000 N 
ATOM      2  C   UNL     1       3.206   6.098  18.953  0.00  0.00    +0.000 C 
ATOM      3  O   UNL     1       2.476   7.038  18.620  0.00  0.00    +0.000 OA
ENDROOT
BRANCH   2   4
ATOM      4  C   UNL     1       2.533   5.025  19.762  0.00  0.00    +0.000 A 
ATOM      5  C   UNL     1       2.750   4.829  21.128  0.00  0.00    +0.000 A 
ATOM      6  C   UNL     1       2.167   3.811  21.866  0.00  0.00    +0.000 A 
ATOM      7  C   UNL     1       1.216   3.020  21.260  0.00  0.00    +0.000 A 
ATOM      8  F   UNL     1       0.595   2.080  21.983  0.00  0.00    +0.000 F 
ATOM      9  C   UNL     1       0.861   3.269  19.940  0.00  0.00    +0.000 A 
ATOM     10  F   UNL     1      -0.146   2.571  19.381  0.00  0.00    +0.000 F 
ATOM     11  C   UNL     1       1.522   4.241  19.186  0.00  0.00    +0.000 A 
ENDBRANCH   2   4
BRANCH   1  12
ATOM     12  C   UNL     1       4.901   6.944  17.392  0.00  0.00    +0.000 C 
BRANCH  12  21
ATOM     13  C   UNL     1       4.805   2.486  11.253  0.00  0.00    +0.000 C 
ATOM     14  C   UNL     1       5.549   3.338  12.246  0.00  0.00    +0.000 A 
ATOM     15  C   UNL     1       6.943   3.405  12.200  0.00  0.00    +0.000 A 
ATOM     16  C   UNL     1       7.645   4.173  13.131  0.00  0.00    +0.000 A 
ATOM     17  C   UNL     1       6.950   4.887  14.110  0.00  0.00    +0.000 A 
ATOM     18  N   UNL     1       7.652   5.635  15.060  0.00  0.00    +0.000 N 
ATOM     19  C   UNL     1       7.061   6.341  16.074  0.00  0.00    +0.000 A 
ATOM     20  O   UNL     1       7.747   7.009  16.842  0.00  0.00    +0.000 OA
ATOM     21  C   UNL     1       5.570   6.276  16.195  0.00  0.00    +0.000 A 
ATOM     22  C   UNL     1       4.884   5.620  15.236  0.00  0.00    +0.000 A 
ATOM     23  C   UNL     1       5.555   4.857  14.164  0.00  0.00    +0.000 A 
ATOM     24  C   UNL     1       4.861   4.066  13.235  0.00  0.00    +0.000 A 
ATOM     25  H   UNL     1       8.659   5.671  15.031  0.00  0.00    +0.000 HD
ENDBRANCH  12  21
ENDBRANCH   1  12
BRANCH   1  26
ATOM     26  C   UNL     1       5.547   4.984  18.832  0.00  0.00    +0.000 C 
BRANCH  26  27
ATOM     27  C   UNL     1       5.034   3.574  18.646  0.00  0.00    +0.000 A 
ATOM     28  C   UNL     1       4.769   2.504  19.485  0.00  0.00    +0.000 A 
ATOM     29  C   UNL     1       3.836   1.668  18.795  0.00  0.00    +0.000 A 
ATOM     30  C   UNL     1       3.706   2.201  17.531  0.00  0.00    +0.000 A 
ATOM     31  O   UNL     1       4.459   3.326  17.413  0.00  0.00    +0.000 OA
ENDBRANCH  26  27
ENDBRANCH   1  26
TORSDOF 5
ENDMDL
MODEL 7
REMARK VINA RESULT:      -8.3      4.975      8.899
REMARK  Name = 
REMARK  6 active torsions:
REMARK  status: ('A' for Active; 'I' for Inactive)
REMARK    1  A    between atoms: C_1  and  C_2
REMARK    2  A    between atoms: C_9  and  C_10
REMARK    3  A    between atoms: C_10  and  N_11
REMARK    4  A    between atoms: N_11  and  C_12
REMARK    5  A    between atoms: C_12  and  C_13
REMARK    6  A    between atoms: C_18  and  C_20
REMARK                            x       y       z     vdW  Elec       q    Type
REMARK                         _______ _______ _______ _____ _____    ______ ____
ROOT
ATOM      1  N   UNL     1      -0.195  11.885  19.536  0.00  0.00    +0.000 N 
ATOM      2  C   UNL     1       0.801  12.668  20.164  0.00  0.00    +0.000 C 
ATOM      3  O   UNL     1       1.142  12.439  21.331  0.00  0.00    +0.000 OA
ENDROOT
BRANCH   2   4
ATOM      4  C   UNL     1       1.585  13.748  19.472  0.00  0.00    +0.000 A 
ATOM      5  C   UNL     1       2.767  13.519  18.763  0.00  0.00    +0.000 A 
ATOM      6  C   UNL     1       3.516  14.520  18.165  0.00  0.00    +0.000 A 
ATOM      7  C   UNL     1       3.010  15.801  18.149  0.00  0.00    +0.000 A 
ATOM      8  F   UNL     1       3.691  16.761  17.512  0.00  0.00    +0.000 F 
ATOM      9  C   UNL     1       1.768  16.051  18.717  0.00  0.00    +0.000 A 
ATOM     10  F   UNL     1       1.222  17.278  18.604  0.00  0.00    +0.000 F 
ATOM     11  C   UNL     1       1.067  15.049  19.392  0.00  0.00    +0.000 A 
ENDBRANCH   2   4
BRANCH   1  12
ATOM     12  C   UNL     1      -0.547  10.618  20.224  0.00  0.00    +0.000 C 
BRANCH  12  21
ATOM     13  C   UNL     1       4.618   6.630  16.352  0.00  0.00    +0.000 C 
ATOM     14  C   UNL     1       3.795   6.861  17.591  0.00  0.00    +0.000 A 
ATOM     15  C   UNL     1       3.828   5.931  18.632  0.00  0.00    +0.000 A 
ATOM     16  C   UNL     1       3.051   6.121  19.776  0.00  0.00    +0.000 A 
ATOM     17  C   UNL     1       2.240   7.254  19.886  0.00  0.00    +0.000 A 
ATOM     18  N   UNL     1       1.440   7.434  21.018  0.00  0.00    +0.000 N 
ATOM     19  C   UNL     1       0.592   8.493  21.201  0.00  0.00    +0.000 A 
ATOM     20  O   UNL     1      -0.045   8.600  22.244  0.00  0.00    +0.000 OA
ATOM     21  C   UNL     1       0.487   9.503  20.101  0.00  0.00    +0.000 A 
ATOM     22  C   UNL     1       1.314   9.376  19.042  0.00  0.00    +0.000 A 
ATOM     23  C   UNL     1       2.206   8.211  18.870  0.00  0.00    +0.000 A 
ATOM     24  C   UNL     1       2.977   7.999  17.716  0.00  0.00    +0.000 A 
ATOM     25  H   UNL     1       1.458   6.754  21.761  0.00  0.00    +0.000 HD
ENDBRANCH  12  21
ENDBRANCH   1  12
BRANCH   1  26
ATOM     26  C   UNL     1      -0.721  12.043  18.157  0.00  0.00    +0.000 C 
BRANCH  26  27
ATOM     27  C   UNL     1      -1.989  11.262  17.897  0.00  0.00    +0.000 A 
ATOM     28  C   UNL     1      -3.341  11.484  18.102  0.00  0.00    +0.000 A 
ATOM     29  C   UNL     1      -4.036  10.628  17.190  0.00  0.00    +0.000 A 
ATOM     30  C   UNL     1      -3.074   9.841  16.596  0.00  0.00    +0.000 A 
ATOM     31  O   UNL     1      -1.838  10.182  17.048  0.00  0.00    +0.000 OA
ENDBRANCH  26  27
ENDBRANCH   1  26
TORSDOF 5
ENDMDL
MODEL 8
REMARK VINA RESULT:      -8.3      4.039      6.320
REMARK  Name = 
REMARK  6 active torsions:
REMARK  status: ('A' for Active; 'I' for Inactive)
REMARK    1  A    between atoms: C_1  and  C_2
REMARK    2  A    between atoms: C_9  and  C_10
REMARK    3  A    between atoms: C_10  and  N_11
REMARK    4  A    between atoms: N_11  and  C_12
REMARK    5  A    between atoms: C_12  and  C_13
REMARK    6  A    between atoms: C_18  and  C_20
REMARK                            x       y       z     vdW  Elec       q    Type
REMARK                         _______ _______ _______ _____ _____    ______ ____
ROOT
ATOM      1  N   UNL     1       1.689   8.672  19.161  0.00  0.00    +0.000 N 
ATOM      2  C   UNL     1       2.344   8.243  17.984  0.00  0.00    +0.000 C 
ATOM      3  O   UNL     1       2.342   8.948  16.968  0.00  0.00    +0.000 OA
ENDROOT
BRANCH   2   4
ATOM      4  C   UNL     1       3.156   6.982  17.883  0.00  0.00    +0.000 A 
ATOM      5  C   UNL     1       4.546   6.961  17.739  0.00  0.00    +0.000 A 
ATOM      6  C   UNL     1       5.292   5.802  17.598  0.00  0.00    +0.000 A 
ATOM      7  C   UNL     1       4.655   4.589  17.736  0.00  0.00    +0.000 A 
ATOM      8  F   UNL     1       5.378   3.465  17.673  0.00  0.00    +0.000 F 
ATOM      9  C   UNL     1       3.296   4.559  18.023  0.00  0.00    +0.000 A 
ATOM     10  F   UNL     1       2.696   3.379  18.269  0.00  0.00    +0.000 F 
ATOM     11  C   UNL     1       2.544   5.735  18.075  0.00  0.00    +0.000 A 
ENDBRANCH   2   4
BRANCH   1  12
ATOM     12  C   UNL     1       1.309  10.106  19.201  0.00  0.00    +0.000 C 
BRANCH  12  21
ATOM     13  C   UNL     1      -4.234   9.931  14.023  0.00  0.00    +0.000 C 
ATOM     14  C   UNL     1      -3.697  10.373  15.358  0.00  0.00    +0.000 A 
ATOM     15  C   UNL     1      -4.437  11.253  16.149  0.00  0.00    +0.000 A 
ATOM     16  C   UNL     1      -3.939  11.689  17.379  0.00  0.00    +0.000 A 
ATOM     17  C   UNL     1      -2.695  11.236  17.825  0.00  0.00    +0.000 A 
ATOM     18  N   UNL     1      -2.181  11.692  19.043  0.00  0.00    +0.000 N 
ATOM     19  C   UNL     1      -0.960  11.330  19.548  0.00  0.00    +0.000 A 
ATOM     20  O   UNL     1      -0.600  11.741  20.646  0.00  0.00    +0.000 OA
ATOM     21  C   UNL     1      -0.106  10.417  18.723  0.00  0.00    +0.000 A 
ATOM     22  C   UNL     1      -0.629   9.913  17.586  0.00  0.00    +0.000 A 
ATOM     23  C   UNL     1      -1.944  10.338  17.064  0.00  0.00    +0.000 A 
ATOM     24  C   UNL     1      -2.447   9.922  15.821  0.00  0.00    +0.000 A 
ATOM     25  H   UNL     1      -2.713  12.336  19.606  0.00  0.00    +0.000 HD
ENDBRANCH  12  21
ENDBRANCH   1  12
BRANCH   1  26
ATOM     26  C   UNL     1       1.588   7.938  20.448  0.00  0.00    +0.000 C 
BRANCH  26  27
ATOM     27  C   UNL     1       0.708   8.621  21.470  0.00  0.00    +0.000 A 
ATOM     28  C   UNL     1      -0.618   8.514  21.857  0.00  0.00    +0.000 A 
ATOM     29  C   UNL     1      -0.697   9.038  23.185  0.00  0.00    +0.000 A 
ATOM     30  C   UNL     1       0.546   9.562  23.464  0.00  0.00    +0.000 A 
ATOM     31  O   UNL     1       1.391   9.358  22.420  0.00  0.00    +0.000 OA
ENDBRANCH  26  27
ENDBRANCH   1  26
TORSDOF 5
ENDMDL
MODEL 9
REMARK VINA RESULT:      -8.2      1.503      3.286
REMARK  Name = 
REMARK  6 active torsions:
REMARK  status: ('A' for Active; 'I' for Inactive)
REMARK    1  A    between atoms: C_1  and  C_2
REMARK    2  A    between atoms: C_9  and  C_10
REMARK    3  A    between atoms: C_10  and  N_11
REMARK    4  A    between atoms: N_11  and  C_12
REMARK    5  A    between atoms: C_12  and  C_13
REMARK    6  A    between atoms: C_18  and  C_20
REMARK                            x       y       z     vdW  Elec       q    Type
REMARK                         _______ _______ _______ _____ _____    ______ ____
ROOT
ATOM      1  N   UNL     1       4.283   4.993  17.207  0.00  0.00    +0.000 N 
ATOM      2  C   UNL     1       4.733   3.948  16.368  0.00  0.00    +0.000 C 
ATOM      3  O   UNL     1       4.410   2.776  16.592  0.00  0.00    +0.000 OA
ENDROOT
BRANCH   2   4
ATOM      4  C   UNL     1       5.534   4.159  15.114  0.00  0.00    +0.000 A 
ATOM      5  C   UNL     1       6.783   4.784  15.084  0.00  0.00    +0.000 A 
ATOM      6  C   UNL     1       7.502   5.022  13.923  0.00  0.00    +0.000 A 
ATOM      7  C   UNL     1       7.030   4.502  12.739  0.00  0.00    +0.000 A 
ATOM      8  F   UNL     1       7.752   4.665  11.624  0.00  0.00    +0.000 F 
ATOM      9  C   UNL     1       5.863   3.749  12.741  0.00  0.00    +0.000 A 
ATOM     10  F   UNL     1       5.461   3.147  11.605  0.00  0.00    +0.000 F 
ATOM     11  C   UNL     1       5.106   3.593  13.904  0.00  0.00    +0.000 A 
ENDBRANCH   2   4
BRANCH   1  12
ATOM     12  C   UNL     1       3.175   4.646  18.132  0.00  0.00    +0.000 C 
BRANCH  12  21
ATOM     13  C   UNL     1       0.878  11.867  18.542  0.00  0.00    +0.000 C 
ATOM     14  C   UNL     1       1.111  10.524  19.181  0.00  0.00    +0.000 A 
ATOM     15  C   UNL     1       0.917  10.363  20.554  0.00  0.00    +0.000 A 
ATOM     16  C   UNL     1       1.153   9.129  21.163  0.00  0.00    +0.000 A 
ATOM     17  C   UNL     1       1.577   8.043  20.392  0.00  0.00    +0.000 A 
ATOM     18  N   UNL     1       1.840   6.813  21.003  0.00  0.00    +0.000 N 
ATOM     19  C   UNL     1       2.289   5.703  20.337  0.00  0.00    +0.000 A 
ATOM     20  O   UNL     1       2.454   4.648  20.940  0.00  0.00    +0.000 OA
ATOM     21  C   UNL     1       2.550   5.827  18.868  0.00  0.00    +0.000 A 
ATOM     22  C   UNL     1       2.224   6.988  18.261  0.00  0.00    +0.000 A 
ATOM     23  C   UNL     1       1.757   8.170  19.014  0.00  0.00    +0.000 A 
ATOM     24  C   UNL     1       1.535   9.421  18.416  0.00  0.00    +0.000 A 
ATOM     25  H   UNL     1       1.711   6.705  21.996  0.00  0.00    +0.000 HD
ENDBRANCH  12  21
ENDBRANCH   1  12
BRANCH   1  26
ATOM     26  C   UNL     1       4.595   6.439  17.082  0.00  0.00    +0.000 C 
BRANCH  26  27
ATOM     27  C   UNL     1       5.907   6.837  17.718  0.00  0.00    +0.000 A 
ATOM     28  C   UNL     1       6.787   6.246  18.610  0.00  0.00    +0.000 A 
ATOM     29  C   UNL     1       8.054   6.878  18.409  0.00  0.00    +0.000 A 
ATOM     30  C   UNL     1       7.832   7.905  17.519  0.00  0.00    +0.000 A 
ATOM     31  O   UNL     1       6.531   7.920  17.128  0.00  0.00    +0.000 OA
ENDBRANCH  26  27
ENDBRANCH   1  26
TORSDOF 5
ENDMDL
