MODEL 1
REMARK VINA RESULT:      -7.1      0.000      0.000
REMARK  Name = 
REMARK  9 active torsions:
REMARK  status: ('A' for Active; 'I' for Inactive)
REMARK    1  A    between atoms: C_1  and  O_2
REMARK    2  A    between atoms: O_2  and  C_3
REMARK    3  A    between atoms: C_3  and  C_4
REMARK    4  A    between atoms: C_9  and  C_10
REMARK    5  A    between atoms: N_12  and  C_13
REMARK    6  A    between atoms: N_12  and  C_14
REMARK    7  A    between atoms: C_14  and  C_15
REMARK    8  A    between atoms: C_14  and  C_16
REMARK    9  A    between atoms: C_18  and  C_19
REMARK                            x       y       z     vdW  Elec       q    Type
REMARK                         _______ _______ _______ _____ _____    ______ ____
ROOT
ATOM      1  C   UNL     1       4.477   5.602  18.692  0.00  0.00    +0.000 C 
ATOM      2  O   UNL     1       4.929   5.737  19.833  0.00  0.00    +0.000 OA
ATOM      3  N   UNL     1       5.327   5.347  17.621  0.00  0.00    +0.000 N 
ATOM      4  C   UNL     1       4.889   5.189  16.240  0.00  0.00    +0.000 C 
ENDROOT
BRANCH   1  10
ATOM      5  C   UNL     1       0.787   8.770  20.164  0.00  0.00    +0.000 C 
ATOM      6  O   UNL     1       0.341   9.577  19.346  0.00  0.00    +0.000 OA
ATOM      7  N   UNL     1       1.872   7.948  19.887  0.00  0.00    +0.000 N 
ATOM      8  C   UNL     1       2.630   8.161  18.670  0.00  0.00    +0.000 C 
ATOM      9  C   UNL     1       2.474   6.954  17.763  0.00  0.00    +0.000 C 
ATOM     10  C   UNL     1       2.955   5.667  18.458  0.00  0.00    +0.000 C 
ATOM     11  C   UNL     1       2.192   5.514  19.797  0.00  0.00    +0.000 C 
ATOM     12  C   UNL     1       2.264   6.776  20.669  0.00  0.00    +0.000 C 
BRANCH   5  13
ATOM     13  C   UNL     1       0.187   8.692  21.571  0.00  0.00    +0.000 C 
BRANCH  13  15
ATOM     14  C   UNL     1      -0.620  10.487  22.877  0.00  0.00    +0.000 C 
ATOM     15  O   UNL     1       0.532   9.784  22.419  0.00  0.00    +0.000 OA
ENDBRANCH  13  15
ENDBRANCH   5  13
ENDBRANCH   1  10
BRANCH   3  16
ATOM     16  C   UNL     1       6.786   5.430  17.879  0.00  0.00    +0.000 C 
ATOM     17  C   UNL     1       7.631   4.506  16.993  0.00  0.00    +0.000 C 
BRANCH  16  18
ATOM     18  C   UNL     1       7.251   6.872  17.817  0.00  0.00    +0.000 A 
ATOM     19  C   UNL     1       8.159   7.514  18.700  0.00  0.00    +0.000 A 
ATOM     20  C   UNL     1       8.332   8.797  18.217  0.00  0.00    +0.000 A 
ATOM     21  N   UNL     1       7.531   8.846  17.104  0.00  0.00    +0.000 N 
ATOM     22  N   UNL     1       6.854   7.712  16.849  0.00  0.00    +0.000 NA
ATOM     23  H   UNL     1       7.393   9.632  16.480  0.00  0.00    +0.000 HD
BRANCH  20  24
ATOM     24  C   UNL     1       9.137   9.922  18.703  0.00  0.00    +0.000 A 
ATOM     25  C   UNL     1       9.869  10.742  17.825  0.00  0.00    +0.000 A 
ATOM     26  C   UNL     1      10.631  11.807  18.311  0.00  0.00    +0.000 A 
ATOM     27  C   UNL     1      10.678  12.068  19.678  0.00  0.00    +0.000 A 
ATOM     28  C   UNL     1       9.961  11.266  20.561  0.00  0.00    +0.000 A 
ATOM     29  C   UNL     1       9.198  10.199  20.077  0.00  0.00    +0.000 A 
ENDBRANCH  20  24
ENDBRANCH  16  18
ENDBRANCH   3  16
TORSDOF 6
ENDMDL
MODEL 2
REMARK VINA RESULT:      -7.0      3.332      5.787
REMARK  Name = 
REMARK  9 active torsions:
REMARK  status: ('A' for Active; 'I' for Inactive)
REMARK    1  A    between atoms: C_1  and  O_2
REMARK    2  A    between atoms: O_2  and  C_3
REMARK    3  A    between atoms: C_3  and  C_4
REMARK    4  A    between atoms: C_9  and  C_10
REMARK    5  A    between atoms: N_12  and  C_13
REMARK    6  A    between atoms: N_12  and  C_14
REMARK    7  A    between atoms: C_14  and  C_15
REMARK    8  A    between atoms: C_14  and  C_16
REMARK    9  A    between atoms: C_18  and  C_19
REMARK                            x       y       z     vdW  Elec       q    Type
REMARK                         _______ _______ _______ _____ _____    ______ ____
ROOT
ATOM      1  C   UNL     1       4.021   6.632  17.988  0.00  0.00    +0.000 C 
ATOM      2  O   UNL     1       4.434   7.716  17.564  0.00  0.00    +0.000 OA
ATOM      3  N   UNL     1       4.913   5.616  18.318  0.00  0.00    +0.000 N 
ATOM      4  C   UNL     1       4.521   4.302  18.809  0.00  0.00    +0.000 C 
ENDROOT
BRANCH   1  10
ATOM      5  C   UNL     1       0.380   9.201  20.429  0.00  0.00    +0.000 C 
ATOM      6  O   UNL     1      -0.418   9.866  19.767  0.00  0.00    +0.000 OA
ATOM      7  N   UNL     1       1.474   8.563  19.860  0.00  0.00    +0.000 N 
ATOM      8  C   UNL     1       1.806   8.827  18.474  0.00  0.00    +0.000 C 
ATOM      9  C   UNL     1       1.626   7.557  17.663  0.00  0.00    +0.000 C 
ATOM     10  C   UNL     1       2.510   6.419  18.202  0.00  0.00    +0.000 C 
ATOM     11  C   UNL     1       2.197   6.220  19.706  0.00  0.00    +0.000 C 
ATOM     12  C   UNL     1       2.279   7.527  20.508  0.00  0.00    +0.000 C 
BRANCH   5  13
ATOM     13  C   UNL     1       0.226   9.108  21.951  0.00  0.00    +0.000 C 
BRANCH  13  15
ATOM     14  C   UNL     1      -1.033  10.732  23.117  0.00  0.00    +0.000 C 
ATOM     15  O   UNL     1       0.252  10.365  22.622  0.00  0.00    +0.000 OA
ENDBRANCH  13  15
ENDBRANCH   5  13
ENDBRANCH   1  10
BRANCH   3  16
ATOM     16  C   UNL     1       6.339   5.826  17.965  0.00  0.00    +0.000 C 
ATOM     17  C   UNL     1       7.327   5.152  18.925  0.00  0.00    +0.000 C 
BRANCH  16  18
ATOM     18  C   UNL     1       6.586   5.441  16.519  0.00  0.00    +0.000 A 
ATOM     19  C   UNL     1       5.844   4.510  15.745  0.00  0.00    +0.000 A 
ATOM     20  C   UNL     1       6.388   4.537  14.476  0.00  0.00    +0.000 A 
ATOM     21  N   UNL     1       7.403   5.455  14.565  0.00  0.00    +0.000 N 
ATOM     22  N   UNL     1       7.559   6.002  15.784  0.00  0.00    +0.000 NA
ATOM     23  H   UNL     1       8.035   5.747  13.829  0.00  0.00    +0.000 HD
BRANCH  20  24
ATOM     24  C   UNL     1       6.054   3.794  13.256  0.00  0.00    +0.000 A 
ATOM     25  C   UNL     1       4.746   3.773  12.738  0.00  0.00    +0.000 A 
ATOM     26  C   UNL     1       4.449   3.057  11.576  0.00  0.00    +0.000 A 
ATOM     27  C   UNL     1       5.450   2.350  10.915  0.00  0.00    +0.000 A 
ATOM     28  C   UNL     1       6.749   2.358  11.415  0.00  0.00    +0.000 A 
ATOM     29  C   UNL     1       7.048   3.074  12.578  0.00  0.00    +0.000 A 
ENDBRANCH  20  24
ENDBRANCH  16  18
ENDBRANCH   3  16
TORSDOF 6
ENDMDL
MODEL 3
REMARK VINA RESULT:      -6.9      1.258      1.339
REMARK  Name = 
REMARK  9 active torsions:
REMARK  status: ('A' for Active; 'I' for Inactive)
REMARK    1  A    between atoms: C_1  and  O_2
REMARK    2  A    between atoms: O_2  and  C_3
REMARK    3  A    between atoms: C_3  and  C_4
REMARK    4  A    between atoms: C_9  and  C_10
REMARK    5  A    between atoms: N_12  and  C_13
REMARK    6  A    between atoms: N_12  and  C_14
REMARK    7  A    between atoms: C_14  and  C_15
REMARK    8  A    between atoms: C_14  and  C_16
REMARK    9  A    between atoms: C_18  and  C_19
REMARK                            x       y       z     vdW  Elec       q    Type
REMARK                         _______ _______ _______ _____ _____    ______ ____
ROOT
ATOM      1  C   UNL     1       4.259   4.957  17.863  0.00  0.00    +0.000 C 
ATOM      2  O   UNL     1       4.625   4.236  18.795  0.00  0.00    +0.000 OA
ATOM      3  N   UNL     1       5.150   5.318  16.857  0.00  0.00    +0.000 N 
ATOM      4  C   UNL     1       4.816   6.176  15.728  0.00  0.00    +0.000 C 
ENDROOT
BRANCH   1  10
ATOM      5  C   UNL     1       1.492   8.439  20.319  0.00  0.00    +0.000 C 
ATOM      6  O   UNL     1       1.229   9.496  19.744  0.00  0.00    +0.000 OA
ATOM      7  N   UNL     1       2.337   7.481  19.773  0.00  0.00    +0.000 N 
ATOM      8  C   UNL     1       3.085   7.799  18.573  0.00  0.00    +0.000 C 
ATOM      9  C   UNL     1       2.614   6.909  17.436  0.00  0.00    +0.000 C 
ATOM     10  C   UNL     1       2.791   5.420  17.782  0.00  0.00    +0.000 C 
ATOM     11  C   UNL     1       2.056   5.131  19.115  0.00  0.00    +0.000 C 
ATOM     12  C   UNL     1       2.458   6.099  20.237  0.00  0.00    +0.000 C 
BRANCH   5  13
ATOM     13  C   UNL     1       0.935   8.167  21.720  0.00  0.00    +0.000 C 
BRANCH  13  15
ATOM     14  C   UNL     1      -0.175   9.703  23.130  0.00  0.00    +0.000 C 
ATOM     15  O   UNL     1       1.081   9.253  22.632  0.00  0.00    +0.000 OA
ENDBRANCH  13  15
ENDBRANCH   5  13
ENDBRANCH   1  10
BRANCH   3  16
ATOM     16  C   UNL     1       6.577   4.960  17.055  0.00  0.00    +0.000 C 
ATOM     17  C   UNL     1       7.285   4.485  15.780  0.00  0.00    +0.000 C 
BRANCH  16  18
ATOM     18  C   UNL     1       7.316   6.095  17.737  0.00  0.00    +0.000 A 
ATOM     19  C   UNL     1       7.413   7.439  17.290  0.00  0.00    +0.000 A 
ATOM     20  C   UNL     1       8.122   8.122  18.260  0.00  0.00    +0.000 A 
ATOM     21  N   UNL     1       8.404   7.167  19.203  0.00  0.00    +0.000 N 
ATOM     22  N   UNL     1       7.950   5.936  18.909  0.00  0.00    +0.000 NA
ATOM     23  H   UNL     1       8.916   7.290  20.069  0.00  0.00    +0.000 HD
BRANCH  20  24
ATOM     24  C   UNL     1       8.543   9.524  18.354  0.00  0.00    +0.000 A 
ATOM     25  C   UNL     1       8.050  10.504  17.473  0.00  0.00    +0.000 A 
ATOM     26  C   UNL     1       8.466  11.834  17.580  0.00  0.00    +0.000 A 
ATOM     27  C   UNL     1       9.380  12.204  18.563  0.00  0.00    +0.000 A 
ATOM     28  C   UNL     1       9.879  11.247  19.442  0.00  0.00    +0.000 A 
ATOM     29  C   UNL     1       9.464   9.915  19.337  0.00  0.00    +0.000 A 
ENDBRANCH  20  24
ENDBRANCH  16  18
ENDBRANCH   3  16
TORSDOF 6
ENDMDL
MODEL 4
REMARK VINA RESULT:      -6.7      4.523      7.819
REMARK  Name = 
REMARK  9 active torsions:
REMARK  status: ('A' for Active; 'I' for Inactive)
REMARK    1  A    between atoms: C_1  and  O_2
REMARK    2  A    between atoms: O_2  and  C_3
REMARK    3  A    between atoms: C_3  and  C_4
REMARK    4  A    between atoms: C_9  and  C_10
REMARK    5  A    between atoms: N_12  and  C_13
REMARK    6  A    between atoms: N_12  and  C_14
REMARK    7  A    between atoms: C_14  and  C_15
REMARK    8  A    between atoms: C_14  and  C_16
REMARK    9  A    between atoms: C_18  and  C_19
REMARK                            x       y       z     vdW  Elec       q    Type
REMARK                         _______ _______ _______ _____ _____    ______ ____
ROOT
ATOM      1  C   UNL     1       0.942  11.694  20.108  0.00  0.00    +0.000 C 
ATOM      2  O   UNL     1       1.478  12.055  21.160  0.00  0.00    +0.000 OA
ATOM      3  N   UNL     1       0.502  10.384  19.953  0.00  0.00    +0.000 N 
ATOM      4  C   UNL     1      -0.126   9.861  18.746  0.00  0.00    +0.000 C 
ENDROOT
BRANCH   1  10
ATOM      5  C   UNL     1       2.875  16.257  18.988  0.00  0.00    +0.000 C 
ATOM      6  O   UNL     1       3.705  16.340  18.080  0.00  0.00    +0.000 OA
ATOM      7  N   UNL     1       2.382  15.041  19.440  0.00  0.00    +0.000 N 
ATOM      8  C   UNL     1       2.985  13.811  18.966  0.00  0.00    +0.000 C 
ATOM      9  C   UNL     1       1.969  13.035  18.147  0.00  0.00    +0.000 C 
ATOM     10  C   UNL     1       0.712  12.714  18.976  0.00  0.00    +0.000 C 
ATOM     11  C   UNL     1       0.142  14.038  19.543  0.00  0.00    +0.000 C 
ATOM     12  C   UNL     1       1.198  14.870  20.283  0.00  0.00    +0.000 C 
BRANCH   5  13
ATOM     13  C   UNL     1       2.400  17.521  19.711  0.00  0.00    +0.000 C 
BRANCH  13  15
ATOM     14  C   UNL     1       0.559  18.025  18.320  0.00  0.00    +0.000 C 
ATOM     15  O   UNL     1       1.791  18.491  18.862  0.00  0.00    +0.000 OA
ENDBRANCH  13  15
ENDBRANCH   5  13
ENDBRANCH   1  10
BRANCH   3  16
ATOM     16  C   UNL     1       0.869   9.415  21.016  0.00  0.00    +0.000 C 
ATOM     17  C   UNL     1      -0.282   9.065  21.968  0.00  0.00    +0.000 C 
BRANCH  16  18
ATOM     18  C   UNL     1       1.511   8.183  20.408  0.00  0.00    +0.000 A 
ATOM     19  C   UNL     1       2.268   8.120  19.209  0.00  0.00    +0.000 A 
ATOM     20  C   UNL     1       2.703   6.814  19.091  0.00  0.00    +0.000 A 
ATOM     21  N   UNL     1       2.187   6.187  20.197  0.00  0.00    +0.000 N 
ATOM     22  N   UNL     1       1.451   6.979  20.997  0.00  0.00    +0.000 NA
ATOM     23  H   UNL     1       2.292   5.214  20.458  0.00  0.00    +0.000 HD
BRANCH  20  24
ATOM     24  C   UNL     1       3.511   6.144  18.066  0.00  0.00    +0.000 A 
ATOM     25  C   UNL     1       3.568   4.741  17.970  0.00  0.00    +0.000 A 
ATOM     26  C   UNL     1       4.346   4.124  16.987  0.00  0.00    +0.000 A 
ATOM     27  C   UNL     1       5.078   4.895  16.088  0.00  0.00    +0.000 A 
ATOM     28  C   UNL     1       5.033   6.283  16.170  0.00  0.00    +0.000 A 
ATOM     29  C   UNL     1       4.256   6.904  17.153  0.00  0.00    +0.000 A 
ENDBRANCH  20  24
ENDBRANCH  16  18
ENDBRANCH   3  16
TORSDOF 6
ENDMDL
MODEL 5
REMARK VINA RESULT:      -6.7      4.563      7.979
REMARK  Name = 
REMARK  9 active torsions:
REMARK  status: ('A' for Active; 'I' for Inactive)
REMARK    1  A    between atoms: C_1  and  O_2
REMARK    2  A    between atoms: O_2  and  C_3
REMARK    3  A    between atoms: C_3  and  C_4
REMARK    4  A    between atoms: C_9  and  C_10
REMARK    5  A    between atoms: N_12  and  C_13
REMARK    6  A    between atoms: N_12  and  C_14
REMARK    7  A    between atoms: C_14  and  C_15
REMARK    8  A    between atoms: C_14  and  C_16
REMARK    9  A    between atoms: C_18  and  C_19
REMARK                            x       y       z     vdW  Elec       q    Type
REMARK                         _______ _______ _______ _____ _____    ______ ____
ROOT
ATOM      1  C   UNL     1       0.623  11.981  20.576  0.00  0.00    +0.000 C 
ATOM      2  O   UNL     1       1.568  12.040  21.368  0.00  0.00    +0.000 OA
ATOM      3  N   UNL     1       0.050  10.756  20.248  0.00  0.00    +0.000 N 
ATOM      4  C   UNL     1      -1.055  10.586  19.313  0.00  0.00    +0.000 C 
ENDROOT
BRANCH   1  10
ATOM      5  C   UNL     1       2.628  16.326  18.870  0.00  0.00    +0.000 C 
ATOM      6  O   UNL     1       2.692  16.510  17.653  0.00  0.00    +0.000 OA
ATOM      7  N   UNL     1       2.205  15.126  19.424  0.00  0.00    +0.000 N 
ATOM      8  C   UNL     1       2.002  13.979  18.560  0.00  0.00    +0.000 C 
ATOM      9  C   UNL     1       0.532  13.603  18.561  0.00  0.00    +0.000 C 
ATOM     10  C   UNL     1       0.039  13.278  19.982  0.00  0.00    +0.000 C 
ATOM     11  C   UNL     1       0.350  14.485  20.901  0.00  0.00    +0.000 C 
ATOM     12  C   UNL     1       1.817  14.930  20.821  0.00  0.00    +0.000 C 
BRANCH   5  13
ATOM     13  C   UNL     1       3.089  17.423  19.837  0.00  0.00    +0.000 C 
BRANCH  13  15
ATOM     14  C   UNL     1       1.520  18.631  21.125  0.00  0.00    +0.000 C 
ATOM     15  O   UNL     1       2.229  18.558  19.891  0.00  0.00    +0.000 OA
ENDBRANCH  13  15
ENDBRANCH   5  13
ENDBRANCH   1  10
BRANCH   3  16
ATOM     16  C   UNL     1       0.735   9.535  20.740  0.00  0.00    +0.000 C 
ATOM     17  C   UNL     1      -0.185   8.556  21.479  0.00  0.00    +0.000 C 
BRANCH  16  18
ATOM     18  C   UNL     1       1.498   8.869  19.611  0.00  0.00    +0.000 A 
ATOM     19  C   UNL     1       2.044   7.558  19.608  0.00  0.00    +0.000 A 
ATOM     20  C   UNL     1       2.586   7.364  18.352  0.00  0.00    +0.000 A 
ATOM     21  N   UNL     1       2.342   8.544  17.696  0.00  0.00    +0.000 N 
ATOM     22  N   UNL     1       1.707   9.474  18.432  0.00  0.00    +0.000 NA
ATOM     23  H   UNL     1       2.595   8.783  16.745  0.00  0.00    +0.000 HD
BRANCH  20  24
ATOM     24  C   UNL     1       3.290   6.222  17.759  0.00  0.00    +0.000 A 
ATOM     25  C   UNL     1       2.786   4.912  17.858  0.00  0.00    +0.000 A 
ATOM     26  C   UNL     1       3.474   3.838  17.287  0.00  0.00    +0.000 A 
ATOM     27  C   UNL     1       4.673   4.053  16.613  0.00  0.00    +0.000 A 
ATOM     28  C   UNL     1       5.186   5.343  16.508  0.00  0.00    +0.000 A 
ATOM     29  C   UNL     1       4.500   6.419  17.079  0.00  0.00    +0.000 A 
ENDBRANCH  20  24
ENDBRANCH  16  18
ENDBRANCH   3  16
TORSDOF 6
ENDMDL
MODEL 6
REMARK VINA RESULT:      -6.6      5.203      8.409
REMARK  Name = 
REMARK  9 active torsions:
REMARK  status: ('A' for Active; 'I' for Inactive)
REMARK    1  A    between atoms: C_1  and  O_2
REMARK    2  A    between atoms: O_2  and  C_3
REMARK    3  A    between atoms: C_3  and  C_4
REMARK    4  A    between atoms: C_9  and  C_10
REMARK    5  A    between atoms: N_12  and  C_13
REMARK    6  A    between atoms: N_12  and  C_14
REMARK    7  A    between atoms: C_14  and  C_15
REMARK    8  A    between atoms: C_14  and  C_16
REMARK    9  A    between atoms: C_18  and  C_19
REMARK                            x       y       z     vdW  Elec       q    Type
REMARK                         _______ _______ _______ _____ _____    ______ ____
ROOT
ATOM      1  C   UNL     1      -0.569  12.386  20.162  0.00  0.00    +0.000 C 
ATOM      2  O   UNL     1      -1.467  11.843  19.511  0.00  0.00    +0.000 OA
ATOM      3  N   UNL     1       0.768  12.142  19.863  0.00  0.00    +0.000 N 
ATOM      4  C   UNL     1       1.893  12.721  20.584  0.00  0.00    +0.000 C 
ENDROOT
BRANCH   1  10
ATOM      5  C   UNL     1      -4.304  12.670  23.595  0.00  0.00    +0.000 C 
ATOM      6  O   UNL     1      -4.055  12.371  24.764  0.00  0.00    +0.000 OA
ATOM      7  N   UNL     1      -3.381  12.512  22.570  0.00  0.00    +0.000 N 
ATOM      8  C   UNL     1      -2.144  11.802  22.834  0.00  0.00    +0.000 C 
ATOM      9  C   UNL     1      -0.975  12.760  22.691  0.00  0.00    +0.000 C 
ATOM     10  C   UNL     1      -0.929  13.380  21.283  0.00  0.00    +0.000 C 
ATOM     11  C   UNL     1      -2.294  14.053  20.995  0.00  0.00    +0.000 C 
ATOM     12  C   UNL     1      -3.483  13.113  21.240  0.00  0.00    +0.000 C 
BRANCH   5  13
ATOM     13  C   UNL     1      -5.698  13.179  23.212  0.00  0.00    +0.000 C 
BRANCH  13  15
ATOM     14  C   UNL     1      -7.694  12.434  22.192  0.00  0.00    +0.000 C 
ATOM     15  O   UNL     1      -6.704  12.170  23.183  0.00  0.00    +0.000 OA
ENDBRANCH  13  15
ENDBRANCH   5  13
ENDBRANCH   1  10
BRANCH   3  16
ATOM     16  C   UNL     1       1.056  11.077  18.870  0.00  0.00    +0.000 C 
ATOM     17  C   UNL     1       2.196  11.417  17.902  0.00  0.00    +0.000 C 
BRANCH  16  18
ATOM     18  C   UNL     1       1.269   9.748  19.569  0.00  0.00    +0.000 A 
ATOM     19  C   UNL     1       1.787   8.557  18.996  0.00  0.00    +0.000 A 
ATOM     20  C   UNL     1       1.863   7.632  20.020  0.00  0.00    +0.000 A 
ATOM     21  N   UNL     1       1.392   8.308  21.117  0.00  0.00    +0.000 N 
ATOM     22  N   UNL     1       1.010   9.575  20.874  0.00  0.00    +0.000 NA
ATOM     23  H   UNL     1       1.295   7.956  22.062  0.00  0.00    +0.000 HD
BRANCH  20  24
ATOM     24  C   UNL     1       2.306   6.234  20.041  0.00  0.00    +0.000 A 
ATOM     25  C   UNL     1       1.578   5.238  20.716  0.00  0.00    +0.000 A 
ATOM     26  C   UNL     1       2.020   3.912  20.725  0.00  0.00    +0.000 A 
ATOM     27  C   UNL     1       3.195   3.562  20.064  0.00  0.00    +0.000 A 
ATOM     28  C   UNL     1       3.928   4.536  19.392  0.00  0.00    +0.000 A 
ATOM     29  C   UNL     1       3.488   5.863  19.383  0.00  0.00    +0.000 A 
ENDBRANCH  20  24
ENDBRANCH  16  18
ENDBRANCH   3  16
TORSDOF 6
ENDMDL
MODEL 7
REMARK VINA RESULT:      -6.5      4.680      7.990
REMARK  Name = 
REMARK  9 active torsions:
REMARK  status: ('A' for Active; 'I' for Inactive)
REMARK    1  A    between atoms: C_1  and  O_2
REMARK    2  A    between atoms: O_2  and  C_3
REMARK    3  A    between atoms: C_3  and  C_4
REMARK    4  A    between atoms: C_9  and  C_10
REMARK    5  A    between atoms: N_12  and  C_13
REMARK    6  A    between atoms: N_12  and  C_14
REMARK    7  A    between atoms: C_14  and  C_15
REMARK    8  A    between atoms: C_14  and  C_16
REMARK    9  A    between atoms: C_18  and  C_19
REMARK                            x       y       z     vdW  Elec       q    Type
REMARK                         _______ _______ _______ _____ _____    ______ ____
ROOT
ATOM      1  C   UNL     1       1.170  11.977  19.721  0.00  0.00    +0.000 C 
ATOM      2  O   UNL     1       1.886  12.309  20.670  0.00  0.00    +0.000 OA
ATOM      3  N   UNL     1       0.429  10.801  19.772  0.00  0.00    +0.000 N 
ATOM      4  C   UNL     1      -0.429  10.319  18.698  0.00  0.00    +0.000 C 
ENDROOT
BRANCH   1  10
ATOM      5  C   UNL     1       1.748  16.964  18.942  0.00  0.00    +0.000 C 
ATOM      6  O   UNL     1       2.778  17.361  18.394  0.00  0.00    +0.000 OA
ATOM      7  N   UNL     1       1.555  15.637  19.300  0.00  0.00    +0.000 N 
ATOM      8  C   UNL     1       2.664  14.708  19.199  0.00  0.00    +0.000 C 
ATOM      9  C   UNL     1       2.348  13.661  18.146  0.00  0.00    +0.000 C 
ATOM     10  C   UNL     1       1.056  12.896  18.489  0.00  0.00    +0.000 C 
ATOM     11  C   UNL     1      -0.089  13.921  18.679  0.00  0.00    +0.000 C 
ATOM     12  C   UNL     1       0.272  15.039  19.668  0.00  0.00    +0.000 C 
BRANCH   5  13
ATOM     13  C   UNL     1       0.646  17.961  19.317  0.00  0.00    +0.000 C 
BRANCH  13  15
ATOM     14  C   UNL     1      -0.709  18.612  21.140  0.00  0.00    +0.000 C 
ATOM     15  O   UNL     1       0.612  18.307  20.699  0.00  0.00    +0.000 OA
ENDBRANCH  13  15
ENDBRANCH   5  13
ENDBRANCH   1  10
BRANCH   3  16
ATOM     16  C   UNL     1       0.680   9.891  20.918  0.00  0.00    +0.000 C 
ATOM     17  C   UNL     1      -0.550   9.640  21.799  0.00  0.00    +0.000 C 
BRANCH  16  18
ATOM     18  C   UNL     1       1.318   8.602  20.437  0.00  0.00    +0.000 A 
ATOM     19  C   UNL     1       2.052   8.410  19.237  0.00  0.00    +0.000 A 
ATOM     20  C   UNL     1       2.493   7.101  19.255  0.00  0.00    +0.000 A 
ATOM     21  N   UNL     1       2.005   6.599  20.435  0.00  0.00    +0.000 N 
ATOM     22  N   UNL     1       1.279   7.471  21.157  0.00  0.00    +0.000 NA
ATOM     23  H   UNL     1       2.122   5.661  20.800  0.00  0.00    +0.000 HD
BRANCH  20  24
ATOM     24  C   UNL     1       3.284   6.325  18.294  0.00  0.00    +0.000 A 
ATOM     25  C   UNL     1       3.142   4.930  18.174  0.00  0.00    +0.000 A 
ATOM     26  C   UNL     1       3.907   4.211  17.253  0.00  0.00    +0.000 A 
ATOM     27  C   UNL     1       4.827   4.870  16.441  0.00  0.00    +0.000 A 
ATOM     28  C   UNL     1       4.981   6.249  16.548  0.00  0.00    +0.000 A 
ATOM     29  C   UNL     1       4.217   6.971  17.469  0.00  0.00    +0.000 A 
ENDBRANCH  20  24
ENDBRANCH  16  18
ENDBRANCH   3  16
TORSDOF 6
ENDMDL
MODEL 8
REMARK VINA RESULT:      -6.4      4.533      7.936
REMARK  Name = 
REMARK  9 active torsions:
REMARK  status: ('A' for Active; 'I' for Inactive)
REMARK    1  A    between atoms: C_1  and  O_2
REMARK    2  A    between atoms: O_2  and  C_3
REMARK    3  A    between atoms: C_3  and  C_4
REMARK    4  A    between atoms: C_9  and  C_10
REMARK    5  A    between atoms: N_12  and  C_13
REMARK    6  A    between atoms: N_12  and  C_14
REMARK    7  A    between atoms: C_14  and  C_15
REMARK    8  A    between atoms: C_14  and  C_16
REMARK    9  A    between atoms: C_18  and  C_19
REMARK                            x       y       z     vdW  Elec       q    Type
REMARK                         _______ _______ _______ _____ _____    ______ ____
ROOT
ATOM      1  C   UNL     1       0.950  11.765  19.930  0.00  0.00    +0.000 C 
ATOM      2  O   UNL     1       1.718  12.132  20.823  0.00  0.00    +0.000 OA
ATOM      3  N   UNL     1       0.319  10.527  20.004  0.00  0.00    +0.000 N 
ATOM      4  C   UNL     1      -0.589  10.003  18.992  0.00  0.00    +0.000 C 
ENDROOT
BRANCH   1  10
ATOM      5  C   UNL     1      -0.039  16.730  19.498  0.00  0.00    +0.000 C 
ATOM      6  O   UNL     1       0.850  17.475  19.082  0.00  0.00    +0.000 OA
ATOM      7  N   UNL     1       0.175  15.383  19.758  0.00  0.00    +0.000 N 
ATOM      8  C   UNL     1       1.527  14.861  19.720  0.00  0.00    +0.000 C 
ATOM      9  C   UNL     1       1.648  13.862  18.583  0.00  0.00    +0.000 C 
ATOM     10  C   UNL     1       0.647  12.705  18.747  0.00  0.00    +0.000 C 
ATOM     11  C   UNL     1      -0.778  13.299  18.874  0.00  0.00    +0.000 C 
ATOM     12  C   UNL     1      -0.874  14.384  19.957  0.00  0.00    +0.000 C 
BRANCH   5  13
ATOM     13  C   UNL     1      -1.429  17.294  19.812  0.00  0.00    +0.000 C 
BRANCH  13  15
ATOM     14  C   UNL     1      -3.394  18.282  18.953  0.00  0.00    +0.000 C 
ATOM     15  O   UNL     1      -1.997  18.074  18.764  0.00  0.00    +0.000 OA
ENDBRANCH  13  15
ENDBRANCH   5  13
ENDBRANCH   1  10
BRANCH   3  16
ATOM     16  C   UNL     1       0.749   9.611  21.089  0.00  0.00    +0.000 C 
ATOM     17  C   UNL     1      -0.351   9.288  22.107  0.00  0.00    +0.000 C 
BRANCH  16  18
ATOM     18  C   UNL     1       1.380   8.362  20.505  0.00  0.00    +0.000 A 
ATOM     19  C   UNL     1       2.134   8.268  19.305  0.00  0.00    +0.000 A 
ATOM     20  C   UNL     1       2.559   6.957  19.213  0.00  0.00    +0.000 A 
ATOM     21  N   UNL     1       2.043   6.358  20.334  0.00  0.00    +0.000 N 
ATOM     22  N   UNL     1       1.314   7.171  21.120  0.00  0.00    +0.000 NA
ATOM     23  H   UNL     1       2.142   5.390  20.615  0.00  0.00    +0.000 HD
BRANCH  20  24
ATOM     24  C   UNL     1       3.358   6.260  18.200  0.00  0.00    +0.000 A 
ATOM     25  C   UNL     1       4.226   6.954  17.336  0.00  0.00    +0.000 A 
ATOM     26  C   UNL     1       4.976   6.270  16.377  0.00  0.00    +0.000 A 
ATOM     27  C   UNL     1       4.872   4.886  16.263  0.00  0.00    +0.000 A 
ATOM     28  C   UNL     1       4.017   4.185  17.108  0.00  0.00    +0.000 A 
ATOM     29  C   UNL     1       3.264   4.867  18.069  0.00  0.00    +0.000 A 
ENDBRANCH  20  24
ENDBRANCH  16  18
ENDBRANCH   3  16
TORSDOF 6
ENDMDL
MODEL 9
REMARK VINA RESULT:      -6.4      4.707      7.993
REMARK  Name = 
REMARK  9 active torsions:
REMARK  status: ('A' for Active; 'I' for Inactive)
REMARK    1  A    between atoms: C_1  and  O_2
REMARK    2  A    between atoms: O_2  and  C_3
REMARK    3  A    between atoms: C_3  and  C_4
REMARK    4  A    between atoms: C_9  and  C_10
REMARK    5  A    between atoms: N_12  and  C_13
REMARK    6  A    between atoms: N_12  and  C_14
REMARK    7  A    between atoms: C_14  and  C_15
REMARK    8  A    between atoms: C_14  and  C_16
REMARK    9  A    between atoms: C_18  and  C_19
REMARK                            x       y       z     vdW  Elec       q    Type
REMARK                         _______ _______ _______ _____ _____    ______ ____
ROOT
ATOM      1  C   UNL     1      -0.712  10.886  19.103  0.00  0.00    +0.000 C 
ATOM      2  O   UNL     1      -1.235   9.772  19.008  0.00  0.00    +0.000 OA
ATOM      3  N   UNL     1       0.514  11.039  19.743  0.00  0.00    +0.000 N 
ATOM      4  C   UNL     1       1.199  12.313  19.918  0.00  0.00    +0.000 C 
ENDROOT
BRANCH   1  10
ATOM      5  C   UNL     1      -5.461  12.692  19.079  0.00  0.00    +0.000 C 
ATOM      6  O   UNL     1      -5.725  13.666  19.786  0.00  0.00    +0.000 OA
ATOM      7  N   UNL     1      -4.225  12.060  19.110  0.00  0.00    +0.000 N 
ATOM      8  C   UNL     1      -3.265  12.430  20.131  0.00  0.00    +0.000 C 
ATOM      9  C   UNL     1      -2.054  13.068  19.475  0.00  0.00    +0.000 C 
ATOM     10  C   UNL     1      -1.396  12.110  18.465  0.00  0.00    +0.000 C 
ATOM     11  C   UNL     1      -2.468  11.662  17.440  0.00  0.00    +0.000 C 
ATOM     12  C   UNL     1      -3.736  11.112  18.108  0.00  0.00    +0.000 C 
BRANCH   5  13
ATOM     13  C   UNL     1      -6.536  12.089  18.169  0.00  0.00    +0.000 C 
BRANCH  13  15
ATOM     14  C   UNL     1      -7.378  10.726  19.904  0.00  0.00    +0.000 C 
ATOM     15  O   UNL     1      -6.958  10.781  18.543  0.00  0.00    +0.000 OA
ENDBRANCH  13  15
ENDBRANCH   5  13
ENDBRANCH   1  10
BRANCH   3  16
ATOM     16  C   UNL     1       1.059   9.856  20.454  0.00  0.00    +0.000 C 
ATOM     17  C   UNL     1       0.054   9.169  21.387  0.00  0.00    +0.000 C 
BRANCH  16  18
ATOM     18  C   UNL     1       1.683   8.888  19.467  0.00  0.00    +0.000 A 
ATOM     19  C   UNL     1       1.999   7.523  19.694  0.00  0.00    +0.000 A 
ATOM     20  C   UNL     1       2.484   7.031  18.498  0.00  0.00    +0.000 A 
ATOM     21  N   UNL     1       2.435   8.106  17.648  0.00  0.00    +0.000 N 
ATOM     22  N   UNL     1       1.977   9.241  18.206  0.00  0.00    +0.000 NA
ATOM     23  H   UNL     1       2.713   8.134  16.674  0.00  0.00    +0.000 HD
BRANCH  20  24
ATOM     24  C   UNL     1       2.975   5.702  18.118  0.00  0.00    +0.000 A 
ATOM     25  C   UNL     1       4.351   5.420  18.028  0.00  0.00    +0.000 A 
ATOM     26  C   UNL     1       4.797   4.148  17.663  0.00  0.00    +0.000 A 
ATOM     27  C   UNL     1       3.879   3.139  17.379  0.00  0.00    +0.000 A 
ATOM     28  C   UNL     1       2.515   3.401  17.461  0.00  0.00    +0.000 A 
ATOM     29  C   UNL     1       2.066   4.674  17.826  0.00  0.00    +0.000 A 
ENDBRANCH  20  24
ENDBRANCH  16  18
ENDBRANCH   3  16
TORSDOF 6
ENDMDL
