MODEL 1
REMARK VINA RESULT:      -7.9      0.000      0.000
REMARK  Name = 
REMARK  9 active torsions:
REMARK  status: ('A' for Active; 'I' for Inactive)
REMARK    1  A    between atoms: C_1  and  C_2
REMARK    2  A    between atoms: C_2  and  C_3
REMARK    3  A    between atoms: C_3  and  C_4
REMARK    4  A    between atoms: C_4  and  C_5
REMARK    5  A    between atoms: C_5  and  N_6
REMARK    6  A    between atoms: N_9  and  C_10
REMARK    7  A    between atoms: C_10  and  C_11
REMARK    8  A    between atoms: C_15  and  N_16
REMARK    9  A    between atoms: C_17  and  C_19
REMARK                            x       y       z     vdW  Elec       q    Type
REMARK                         _______ _______ _______ _____ _____    ______ ____
ROOT
ATOM      1  C   UNL     1       4.057   5.178  19.407  0.00  0.00    +0.000 A 
ATOM      2  C   UNL     1       3.460   3.917  19.565  0.00  0.00    +0.000 A 
ATOM      3  C   UNL     1       2.187   3.807  20.121  0.00  0.00    +0.000 A 
ATOM      4  C   UNL     1       1.527   4.945  20.587  0.00  0.00    +0.000 A 
ATOM      5  C   UNL     1       2.089   6.209  20.464  0.00  0.00    +0.000 A 
ATOM      6  C   UNL     1       3.322   6.325  19.785  0.00  0.00    +0.000 A 
ENDROOT
BRANCH   5   7
ATOM      7  N   UNL     1       1.506   7.378  21.025  0.00  0.00    +0.000 N 
ATOM      8  C   UNL     1       1.197   8.527  20.318  0.00  0.00    +0.000 C 
ATOM      9  O   UNL     1       1.402   8.740  19.116  0.00  0.00    +0.000 OA
ATOM     10  H   UNL     1       1.268   7.319  22.004  0.00  0.00    +0.000 HD
BRANCH   8  11
ATOM     11  C   UNL     1       0.563   9.651  21.058  0.00  0.00    +0.000 A 
ATOM     12  C   UNL     1      -0.218   9.330  22.180  0.00  0.00    +0.000 A 
ATOM     13  C   UNL     1      -0.856  10.329  22.912  0.00  0.00    +0.000 A 
ATOM     14  C   UNL     1      -0.711  11.668  22.538  0.00  0.00    +0.000 A 
ATOM     15 CL   UNL     1      -1.549  12.851  23.469  0.00  0.00    +0.000 Cl
ATOM     16  C   UNL     1       0.083  11.993  21.430  0.00  0.00    +0.000 A 
ATOM     17 CL   UNL     1       0.282  13.624  20.897  0.00  0.00    +0.000 Cl
ATOM     18  C   UNL     1       0.726  10.989  20.691  0.00  0.00    +0.000 A 
ENDBRANCH   8  11
ENDBRANCH   5   7
BRANCH   1  19
ATOM     19  C   UNL     1       5.477   5.292  18.867  0.00  0.00    +0.000 C 
BRANCH  19  23
ATOM     20  N   UNL     1       6.265   4.129  15.379  0.00  0.00    +0.000 NA
ATOM     21  C   UNL     1       7.249   4.607  16.373  0.00  0.00    +0.000 C 
ATOM     22  C   UNL     1       6.938   5.984  17.016  0.00  0.00    +0.000 C 
ATOM     23  N   UNL     1       5.592   6.104  17.629  0.00  0.00    +0.000 NA
ATOM     24  C   UNL     1       4.610   5.685  16.594  0.00  0.00    +0.000 C 
ATOM     25  C   UNL     1       4.907   4.296  15.948  0.00  0.00    +0.000 C 
BRANCH  20  26
ATOM     26  C   UNL     1       6.412   4.764  14.060  0.00  0.00    +0.000 C 
BRANCH  26  27
ATOM     27  C   UNL     1       7.155   3.898  13.011  0.00  0.00    +0.000 C 
BRANCH  27  28
ATOM     28  C   UNL     1       6.349   3.363  11.827  0.00  0.00    +0.000 C 
BRANCH  28  30
ATOM     29  C   UNL     1       3.956   3.306  11.029  0.00  0.00    +0.000 C 
ATOM     30  C   UNL     1       4.885   3.225  12.223  0.00  0.00    +0.000 C 
ENDBRANCH  28  30
ENDBRANCH  27  28
ENDBRANCH  26  27
ENDBRANCH  20  26
ENDBRANCH  19  23
ENDBRANCH   1  19
TORSDOF 8
ENDMDL
MODEL 2
REMARK VINA RESULT:      -7.8      1.003      1.081
REMARK  Name = 
REMARK  9 active torsions:
REMARK  status: ('A' for Active; 'I' for Inactive)
REMARK    1  A    between atoms: C_1  and  C_2
REMARK    2  A    between atoms: C_2  and  C_3
REMARK    3  A    between atoms: C_3  and  C_4
REMARK    4  A    between atoms: C_4  and  C_5
REMARK    5  A    between atoms: C_5  and  N_6
REMARK    6  A    between atoms: N_9  and  C_10
REMARK    7  A    between atoms: C_10  and  C_11
REMARK    8  A    between atoms: C_15  and  N_16
REMARK    9  A    between atoms: C_17  and  C_19
REMARK                            x       y       z     vdW  Elec       q    Type
REMARK                         _______ _______ _______ _____ _____    ______ ____
ROOT
ATOM      1  C   UNL     1       4.045   4.575  19.582  0.00  0.00    +0.000 A 
ATOM      2  C   UNL     1       3.579   3.293  19.913  0.00  0.00    +0.000 A 
ATOM      3  C   UNL     1       2.346   3.134  20.541  0.00  0.00    +0.000 A 
ATOM      4  C   UNL     1       1.599   4.255  20.907  0.00  0.00    +0.000 A 
ATOM      5  C   UNL     1       2.032   5.541  20.614  0.00  0.00    +0.000 A 
ATOM      6  C   UNL     1       3.219   5.687  19.864  0.00  0.00    +0.000 A 
ENDROOT
BRANCH   5   7
ATOM      7  N   UNL     1       1.362   6.710  21.067  0.00  0.00    +0.000 N 
ATOM      8  C   UNL     1       1.364   7.929  20.412  0.00  0.00    +0.000 C 
ATOM      9  O   UNL     1       1.963   8.212  19.366  0.00  0.00    +0.000 OA
ATOM     10  H   UNL     1       0.814   6.600  21.907  0.00  0.00    +0.000 HD
BRANCH   8  11
ATOM     11  C   UNL     1       0.586   9.045  21.014  0.00  0.00    +0.000 A 
ATOM     12  C   UNL     1       0.464   9.071  22.412  0.00  0.00    +0.000 A 
ATOM     13  C   UNL     1      -0.263  10.075  23.046  0.00  0.00    +0.000 A 
ATOM     14  C   UNL     1      -0.872  11.079  22.286  0.00  0.00    +0.000 A 
ATOM     15 CL   UNL     1      -1.780  12.276  23.129  0.00  0.00    +0.000 Cl
ATOM     16  C   UNL     1      -0.737  11.067  20.891  0.00  0.00    +0.000 A 
ATOM     17 CL   UNL     1      -1.486  12.261  19.892  0.00  0.00    +0.000 Cl
ATOM     18  C   UNL     1      -0.005  10.056  20.252  0.00  0.00    +0.000 A 
ENDBRANCH   8  11
ENDBRANCH   5   7
BRANCH   1  19
ATOM     19  C   UNL     1       5.425   4.752  18.960  0.00  0.00    +0.000 C 
BRANCH  19  23
ATOM     20  N   UNL     1       6.367   3.860  15.431  0.00  0.00    +0.000 NA
ATOM     21  C   UNL     1       7.279   4.411  16.456  0.00  0.00    +0.000 C 
ATOM     22  C   UNL     1       6.796   5.706  17.157  0.00  0.00    +0.000 C 
ATOM     23  N   UNL     1       5.443   5.629  17.762  0.00  0.00    +0.000 NA
ATOM     24  C   UNL     1       4.526   5.139  16.699  0.00  0.00    +0.000 C 
ATOM     25  C   UNL     1       4.997   3.829  15.994  0.00  0.00    +0.000 C 
BRANCH  20  26
ATOM     26  C   UNL     1       6.440   4.569  14.144  0.00  0.00    +0.000 C 
BRANCH  26  27
ATOM     27  C   UNL     1       6.196   3.672  12.904  0.00  0.00    +0.000 C 
BRANCH  27  28
ATOM     28  C   UNL     1       7.375   3.417  11.965  0.00  0.00    +0.000 C 
BRANCH  28  30
ATOM     29  C   UNL     1       5.819   1.486  11.496  0.00  0.00    +0.000 C 
ATOM     30  C   UNL     1       7.066   2.230  11.062  0.00  0.00    +0.000 C 
ENDBRANCH  28  30
ENDBRANCH  27  28
ENDBRANCH  26  27
ENDBRANCH  20  26
ENDBRANCH  19  23
ENDBRANCH   1  19
TORSDOF 8
ENDMDL
MODEL 3
REMARK VINA RESULT:      -7.6      2.078      3.964
REMARK  Name = 
REMARK  9 active torsions:
REMARK  status: ('A' for Active; 'I' for Inactive)
REMARK    1  A    between atoms: C_1  and  C_2
REMARK    2  A    between atoms: C_2  and  C_3
REMARK    3  A    between atoms: C_3  and  C_4
REMARK    4  A    between atoms: C_4  and  C_5
REMARK    5  A    between atoms: C_5  and  N_6
REMARK    6  A    between atoms: N_9  and  C_10
REMARK    7  A    between atoms: C_10  and  C_11
REMARK    8  A    between atoms: C_15  and  N_16
REMARK    9  A    between atoms: C_17  and  C_19
REMARK                            x       y       z     vdW  Elec       q    Type
REMARK                         _______ _______ _______ _____ _____    ______ ____
ROOT
ATOM      1  C   UNL     1       3.011   3.889  18.674  0.00  0.00    +0.000 A 
ATOM      2  C   UNL     1       3.137   2.777  19.521  0.00  0.00    +0.000 A 
ATOM      3  C   UNL     1       2.544   2.783  20.782  0.00  0.00    +0.000 A 
ATOM      4  C   UNL     1       1.880   3.924  21.235  0.00  0.00    +0.000 A 
ATOM      5  C   UNL     1       1.747   5.051  20.435  0.00  0.00    +0.000 A 
ATOM      6  C   UNL     1       2.239   4.989  19.114  0.00  0.00    +0.000 A 
ENDROOT
BRANCH   5   7
ATOM      7  N   UNL     1       1.180   6.270  20.896  0.00  0.00    +0.000 N 
ATOM      8  C   UNL     1       1.476   7.524  20.390  0.00  0.00    +0.000 C 
ATOM      9  O   UNL     1       2.290   7.794  19.496  0.00  0.00    +0.000 OA
ATOM     10  H   UNL     1       0.479   6.180  21.616  0.00  0.00    +0.000 HD
BRANCH   8  11
ATOM     11  C   UNL     1       0.769   8.696  20.973  0.00  0.00    +0.000 A 
ATOM     12  C   UNL     1       0.651   8.752  22.371  0.00  0.00    +0.000 A 
ATOM     13  C   UNL     1      -0.012   9.811  22.987  0.00  0.00    +0.000 A 
ATOM     14  C   UNL     1      -0.557  10.837  22.211  0.00  0.00    +0.000 A 
ATOM     15 CL   UNL     1      -1.389  12.102  23.034  0.00  0.00    +0.000 Cl
ATOM     16  C   UNL     1      -0.425  10.794  20.817  0.00  0.00    +0.000 A 
ATOM     17 CL   UNL     1      -1.099  12.015  19.797  0.00  0.00    +0.000 Cl
ATOM     18  C   UNL     1       0.242   9.729  20.194  0.00  0.00    +0.000 A 
ENDBRANCH   8  11
ENDBRANCH   5   7
BRANCH   1  19
ATOM     19  C   UNL     1       3.721   3.909  17.325  0.00  0.00    +0.000 C 
BRANCH  19  23
ATOM     20  N   UNL     1       6.036   6.815  16.750  0.00  0.00    +0.000 NA
ATOM     21  C   UNL     1       5.628   5.821  15.735  0.00  0.00    +0.000 C 
ATOM     22  C   UNL     1       5.826   4.336  16.132  0.00  0.00    +0.000 C 
ATOM     23  N   UNL     1       5.202   3.939  17.419  0.00  0.00    +0.000 NA
ATOM     24  C   UNL     1       5.677   4.907  18.443  0.00  0.00    +0.000 C 
ATOM     25  C   UNL     1       5.472   6.405  18.057  0.00  0.00    +0.000 C 
BRANCH  20  26
ATOM     26  C   UNL     1       7.490   7.036  16.800  0.00  0.00    +0.000 C 
BRANCH  26  27
ATOM     27  C   UNL     1       7.955   7.996  17.924  0.00  0.00    +0.000 C 
BRANCH  27  28
ATOM     28  C   UNL     1       7.764   9.496  17.704  0.00  0.00    +0.000 C 
BRANCH  28  30
ATOM     29  C   UNL     1       9.344  10.178  19.550  0.00  0.00    +0.000 C 
ATOM     30  C   UNL     1       9.045  10.236  18.066  0.00  0.00    +0.000 C 
ENDBRANCH  28  30
ENDBRANCH  27  28
ENDBRANCH  26  27
ENDBRANCH  20  26
ENDBRANCH  19  23
ENDBRANCH   1  19
TORSDOF 8
ENDMDL
MODEL 4
REMARK VINA RESULT:      -7.5      1.045      1.482
REMARK  Name = 
REMARK  9 active torsions:
REMARK  status: ('A' for Active; 'I' for Inactive)
REMARK    1  A    between atoms: C_1  and  C_2
REMARK    2  A    between atoms: C_2  and  C_3
REMARK    3  A    between atoms: C_3  and  C_4
REMARK    4  A    between atoms: C_4  and  C_5
REMARK    5  A    between atoms: C_5  and  N_6
REMARK    6  A    between atoms: N_9  and  C_10
REMARK    7  A    between atoms: C_10  and  C_11
REMARK    8  A    between atoms: C_15  and  N_16
REMARK    9  A    between atoms: C_17  and  C_19
REMARK                            x       y       z     vdW  Elec       q    Type
REMARK                         _______ _______ _______ _____ _____    ______ ____
ROOT
ATOM      1  C   UNL     1       4.155   4.839  19.610  0.00  0.00    +0.000 A 
ATOM      2  C   UNL     1       3.574   3.562  19.688  0.00  0.00    +0.000 A 
ATOM      3  C   UNL     1       2.250   3.417  20.094  0.00  0.00    +0.000 A 
ATOM      4  C   UNL     1       1.514   4.535  20.491  0.00  0.00    +0.000 A 
ATOM      5  C   UNL     1       2.056   5.812  20.444  0.00  0.00    +0.000 A 
ATOM      6  C   UNL     1       3.354   5.964  19.912  0.00  0.00    +0.000 A 
ENDROOT
BRANCH   5   7
ATOM      7  N   UNL     1       1.384   6.961  20.944  0.00  0.00    +0.000 N 
ATOM      8  C   UNL     1       1.314   8.182  20.298  0.00  0.00    +0.000 C 
ATOM      9  O   UNL     1       1.839   8.486  19.218  0.00  0.00    +0.000 OA
ATOM     10  H   UNL     1       0.892   6.833  21.816  0.00  0.00    +0.000 HD
BRANCH   8  11
ATOM     11  C   UNL     1       0.545   9.275  20.953  0.00  0.00    +0.000 A 
ATOM     12  C   UNL     1       0.348   9.187  22.340  0.00  0.00    +0.000 A 
ATOM     13  C   UNL     1      -0.376  10.164  23.019  0.00  0.00    +0.000 A 
ATOM     14  C   UNL     1      -0.905  11.252  22.319  0.00  0.00    +0.000 A 
ATOM     15 CL   UNL     1      -1.815  12.410  23.215  0.00  0.00    +0.000 Cl
ATOM     16  C   UNL     1      -0.695  11.352  20.937  0.00  0.00    +0.000 A 
ATOM     17 CL   UNL     1      -1.344  12.655  20.007  0.00  0.00    +0.000 Cl
ATOM     18  C   UNL     1       0.034  10.370  20.251  0.00  0.00    +0.000 A 
ENDBRANCH   8  11
ENDBRANCH   5   7
BRANCH   1  19
ATOM     19  C   UNL     1       5.625   4.991  19.236  0.00  0.00    +0.000 C 
BRANCH  19  23
ATOM     20  N   UNL     1       6.320   6.055  15.698  0.00  0.00    +0.000 NA
ATOM     21  C   UNL     1       5.025   5.565  16.214  0.00  0.00    +0.000 C 
ATOM     22  C   UNL     1       5.072   4.213  16.972  0.00  0.00    +0.000 C 
ATOM     23  N   UNL     1       6.048   4.150  18.088  0.00  0.00    +0.000 NA
ATOM     24  C   UNL     1       7.360   4.580  17.536  0.00  0.00    +0.000 C 
ATOM     25  C   UNL     1       7.326   5.945  16.780  0.00  0.00    +0.000 C 
BRANCH  20  26
ATOM     26  C   UNL     1       6.744   5.389  14.456  0.00  0.00    +0.000 C 
BRANCH  26  27
ATOM     27  C   UNL     1       6.206   3.945  14.289  0.00  0.00    +0.000 C 
BRANCH  27  28
ATOM     28  C   UNL     1       5.515   3.590  12.973  0.00  0.00    +0.000 C 
BRANCH  28  30
ATOM     29  C   UNL     1       5.858   1.695  11.341  0.00  0.00    +0.000 C 
ATOM     30  C   UNL     1       6.494   2.870  12.055  0.00  0.00    +0.000 C 
ENDBRANCH  28  30
ENDBRANCH  27  28
ENDBRANCH  26  27
ENDBRANCH  20  26
ENDBRANCH  19  23
ENDBRANCH   1  19
TORSDOF 8
ENDMDL
MODEL 5
REMARK VINA RESULT:      -7.4      1.280      1.583
REMARK  Name = 
REMARK  9 active torsions:
REMARK  status: ('A' for Active; 'I' for Inactive)
REMARK    1  A    between atoms: C_1  and  C_2
REMARK    2  A    between atoms: C_2  and  C_3
REMARK    3  A    between atoms: C_3  and  C_4
REMARK    4  A    between atoms: C_4  and  C_5
REMARK    5  A    between atoms: C_5  and  N_6
REMARK    6  A    between atoms: N_9  and  C_10
REMARK    7  A    between atoms: C_10  and  C_11
REMARK    8  A    between atoms: C_15  and  N_16
REMARK    9  A    between atoms: C_17  and  C_19
REMARK                            x       y       z     vdW  Elec       q    Type
REMARK                         _______ _______ _______ _____ _____    ______ ____
ROOT
ATOM      1  C   UNL     1       4.237   5.595  19.239  0.00  0.00    +0.000 A 
ATOM      2  C   UNL     1       3.735   4.376  19.723  0.00  0.00    +0.000 A 
ATOM      3  C   UNL     1       2.461   4.312  20.282  0.00  0.00    +0.000 A 
ATOM      4  C   UNL     1       1.703   5.476  20.427  0.00  0.00    +0.000 A 
ATOM      5  C   UNL     1       2.168   6.704  19.976  0.00  0.00    +0.000 A 
ATOM      6  C   UNL     1       3.405   6.737  19.296  0.00  0.00    +0.000 A 
ENDROOT
BRANCH   5   7
ATOM      7  N   UNL     1       1.481   7.927  20.205  0.00  0.00    +0.000 N 
ATOM      8  C   UNL     1       1.171   8.856  19.227  0.00  0.00    +0.000 C 
ATOM      9  O   UNL     1       1.461   8.799  18.025  0.00  0.00    +0.000 OA
ATOM     10  H   UNL     1       1.169   8.081  21.152  0.00  0.00    +0.000 HD
BRANCH   8  11
ATOM     11  C   UNL     1       0.422  10.075  19.636  0.00  0.00    +0.000 A 
ATOM     12  C   UNL     1       0.998  10.888  20.626  0.00  0.00    +0.000 A 
ATOM     13  C   UNL     1       0.347  12.036  21.072  0.00  0.00    +0.000 A 
ATOM     14  C   UNL     1      -0.887  12.394  20.522  0.00  0.00    +0.000 A 
ATOM     15 CL   UNL     1      -1.652  13.811  21.138  0.00  0.00    +0.000 Cl
ATOM     16  C   UNL     1      -1.456  11.596  19.521  0.00  0.00    +0.000 A 
ATOM     17 CL   UNL     1      -2.991  11.966  18.820  0.00  0.00    +0.000 Cl
ATOM     18  C   UNL     1      -0.803  10.439  19.071  0.00  0.00    +0.000 A 
ENDBRANCH   8  11
ENDBRANCH   5   7
BRANCH   1  19
ATOM     19  C   UNL     1       5.657   5.677  18.693  0.00  0.00    +0.000 C 
BRANCH  19  23
ATOM     20  N   UNL     1       6.215   3.747  15.515  0.00  0.00    +0.000 NA
ATOM     21  C   UNL     1       7.268   4.375  16.341  0.00  0.00    +0.000 C 
ATOM     22  C   UNL     1       7.051   5.873  16.679  0.00  0.00    +0.000 C 
ATOM     23  N   UNL     1       5.744   6.195  17.304  0.00  0.00    +0.000 NA
ATOM     24  C   UNL     1       4.694   5.615  16.426  0.00  0.00    +0.000 C 
ATOM     25  C   UNL     1       4.897   4.106  16.088  0.00  0.00    +0.000 C 
BRANCH  20  26
ATOM     26  C   UNL     1       6.323   4.072  14.084  0.00  0.00    +0.000 C 
BRANCH  26  27
ATOM     27  C   UNL     1       5.058   3.740  13.254  0.00  0.00    +0.000 C 
BRANCH  27  28
ATOM     28  C   UNL     1       5.249   3.353  11.788  0.00  0.00    +0.000 C 
BRANCH  28  30
ATOM     29  C   UNL     1       3.449   3.971  10.129  0.00  0.00    +0.000 C 
ATOM     30  C   UNL     1       3.906   2.976  11.177  0.00  0.00    +0.000 C 
ENDBRANCH  28  30
ENDBRANCH  27  28
ENDBRANCH  26  27
ENDBRANCH  20  26
ENDBRANCH  19  23
ENDBRANCH   1  19
TORSDOF 8
ENDMDL
MODEL 6
REMARK VINA RESULT:      -7.3      1.480      2.041
REMARK  Name = 
REMARK  9 active torsions:
REMARK  status: ('A' for Active; 'I' for Inactive)
REMARK    1  A    between atoms: C_1  and  C_2
REMARK    2  A    between atoms: C_2  and  C_3
REMARK    3  A    between atoms: C_3  and  C_4
REMARK    4  A    between atoms: C_4  and  C_5
REMARK    5  A    between atoms: C_5  and  N_6
REMARK    6  A    between atoms: N_9  and  C_10
REMARK    7  A    between atoms: C_10  and  C_11
REMARK    8  A    between atoms: C_15  and  N_16
REMARK    9  A    between atoms: C_17  and  C_19
REMARK                            x       y       z     vdW  Elec       q    Type
REMARK                         _______ _______ _______ _____ _____    ______ ____
ROOT
ATOM      1  C   UNL     1       4.259   5.405  19.518  0.00  0.00    +0.000 A 
ATOM      2  C   UNL     1       3.659   4.310  20.161  0.00  0.00    +0.000 A 
ATOM      3  C   UNL     1       2.330   4.380  20.574  0.00  0.00    +0.000 A 
ATOM      4  C   UNL     1       1.610   5.564  20.411  0.00  0.00    +0.000 A 
ATOM      5  C   UNL     1       2.171   6.675  19.795  0.00  0.00    +0.000 A 
ATOM      6  C   UNL     1       3.474   6.553  19.266  0.00  0.00    +0.000 A 
ENDROOT
BRANCH   5   7
ATOM      7  N   UNL     1       1.514   7.933  19.711  0.00  0.00    +0.000 N 
ATOM      8  C   UNL     1       1.156   8.714  20.796  0.00  0.00    +0.000 C 
ATOM      9  O   UNL     1       1.310   8.442  21.994  0.00  0.00    +0.000 OA
ATOM     10  H   UNL     1       1.352   8.278  18.777  0.00  0.00    +0.000 HD
BRANCH   8  11
ATOM     11  C   UNL     1       0.497  10.020  20.527  0.00  0.00    +0.000 A 
ATOM     12  C   UNL     1       1.081  11.168  21.086  0.00  0.00    +0.000 A 
ATOM     13  C   UNL     1       0.511  12.424  20.891  0.00  0.00    +0.000 A 
ATOM     14  C   UNL     1      -0.649  12.550  20.121  0.00  0.00    +0.000 A 
ATOM     15 CL   UNL     1      -1.318  14.128  19.942  0.00  0.00    +0.000 Cl
ATOM     16  C   UNL     1      -1.224  11.410  19.546  0.00  0.00    +0.000 A 
ATOM     17 CL   UNL     1      -2.672  11.491  18.607  0.00  0.00    +0.000 Cl
ATOM     18  C   UNL     1      -0.652  10.144  19.741  0.00  0.00    +0.000 A 
ENDBRANCH   8  11
ENDBRANCH   5   7
BRANCH   1  19
ATOM     19  C   UNL     1       5.732   5.353  19.131  0.00  0.00    +0.000 C 
BRANCH  19  23
ATOM     20  N   UNL     1       6.466   5.681  15.458  0.00  0.00    +0.000 NA
ATOM     21  C   UNL     1       5.141   5.407  16.054  0.00  0.00    +0.000 C 
ATOM     22  C   UNL     1       5.084   4.220  17.049  0.00  0.00    +0.000 C 
ATOM     23  N   UNL     1       6.067   4.281  18.160  0.00  0.00    +0.000 NA
ATOM     24  C   UNL     1       7.403   4.488  17.539  0.00  0.00    +0.000 C 
ATOM     25  C   UNL     1       7.473   5.687  16.544  0.00  0.00    +0.000 C 
BRANCH  20  26
ATOM     26  C   UNL     1       6.814   4.762  14.362  0.00  0.00    +0.000 C 
BRANCH  26  27
ATOM     27  C   UNL     1       5.616   3.959  13.795  0.00  0.00    +0.000 C 
BRANCH  27  28
ATOM     28  C   UNL     1       5.645   3.588  12.312  0.00  0.00    +0.000 C 
BRANCH  28  30
ATOM     29  C   UNL     1       3.918   3.616  10.472  0.00  0.00    +0.000 C 
ATOM     30  C   UNL     1       4.260   3.136  11.868  0.00  0.00    +0.000 C 
ENDBRANCH  28  30
ENDBRANCH  27  28
ENDBRANCH  26  27
ENDBRANCH  20  26
ENDBRANCH  19  23
ENDBRANCH   1  19
TORSDOF 8
ENDMDL
MODEL 7
REMARK VINA RESULT:      -7.3      4.342     10.768
REMARK  Name = 
REMARK  9 active torsions:
REMARK  status: ('A' for Active; 'I' for Inactive)
REMARK    1  A    between atoms: C_1  and  C_2
REMARK    2  A    between atoms: C_2  and  C_3
REMARK    3  A    between atoms: C_3  and  C_4
REMARK    4  A    between atoms: C_4  and  C_5
REMARK    5  A    between atoms: C_5  and  N_6
REMARK    6  A    between atoms: N_9  and  C_10
REMARK    7  A    between atoms: C_10  and  C_11
REMARK    8  A    between atoms: C_15  and  N_16
REMARK    9  A    between atoms: C_17  and  C_19
REMARK                            x       y       z     vdW  Elec       q    Type
REMARK                         _______ _______ _______ _____ _____    ______ ____
ROOT
ATOM      1  C   UNL     1       1.944   6.621  20.363  0.00  0.00    +0.000 A 
ATOM      2  C   UNL     1       1.286   5.504  20.905  0.00  0.00    +0.000 A 
ATOM      3  C   UNL     1       1.479   4.239  20.354  0.00  0.00    +0.000 A 
ATOM      4  C   UNL     1       2.273   4.087  19.216  0.00  0.00    +0.000 A 
ATOM      5  C   UNL     1       2.928   5.167  18.640  0.00  0.00    +0.000 A 
ATOM      6  C   UNL     1       2.830   6.422  19.280  0.00  0.00    +0.000 A 
ENDROOT
BRANCH   5   7
ATOM      7  N   UNL     1       3.652   5.077  17.420  0.00  0.00    +0.000 N 
ATOM      8  C   UNL     1       4.968   4.666  17.308  0.00  0.00    +0.000 C 
ATOM      9  O   UNL     1       5.731   4.347  18.230  0.00  0.00    +0.000 OA
ATOM     10  H   UNL     1       3.127   5.292  16.585  0.00  0.00    +0.000 HD
BRANCH   8  11
ATOM     11  C   UNL     1       5.566   4.604  15.947  0.00  0.00    +0.000 A 
ATOM     12  C   UNL     1       6.868   5.106  15.788  0.00  0.00    +0.000 A 
ATOM     13  C   UNL     1       7.487   5.097  14.540  0.00  0.00    +0.000 A 
ATOM     14  C   UNL     1       6.813   4.573  13.433  0.00  0.00    +0.000 A 
ATOM     15 CL   UNL     1       7.625   4.618  11.913  0.00  0.00    +0.000 Cl
ATOM     16  C   UNL     1       5.522   4.055  13.591  0.00  0.00    +0.000 A 
ATOM     17 CL   UNL     1       4.623   3.418  12.260  0.00  0.00    +0.000 Cl
ATOM     18  C   UNL     1       4.897   4.063  14.847  0.00  0.00    +0.000 A 
ENDBRANCH   8  11
ENDBRANCH   5   7
BRANCH   1  19
ATOM     19  C   UNL     1       1.676   8.014  20.921  0.00  0.00    +0.000 C 
BRANCH  19  23
ATOM     20  N   UNL     1       0.048  11.169  22.157  0.00  0.00    +0.000 NA
ATOM     21  C   UNL     1      -0.128   9.821  22.739  0.00  0.00    +0.000 C 
ATOM     22  C   UNL     1      -0.534   8.707  21.740  0.00  0.00    +0.000 C 
ATOM     23  N   UNL     1       0.349   8.569  20.555  0.00  0.00    +0.000 NA
ATOM     24  C   UNL     1       0.459   9.920  19.943  0.00  0.00    +0.000 C 
ATOM     25  C   UNL     1       0.879  11.046  20.937  0.00  0.00    +0.000 C 
BRANCH  20  26
ATOM     26  C   UNL     1      -1.224  11.869  21.914  0.00  0.00    +0.000 C 
BRANCH  26  27
ATOM     27  C   UNL     1      -2.062  12.137  23.189  0.00  0.00    +0.000 C 
BRANCH  27  28
ATOM     28  C   UNL     1      -2.470  13.581  23.484  0.00  0.00    +0.000 C 
BRANCH  28  30
ATOM     29  C   UNL     1      -4.426  12.442  24.601  0.00  0.00    +0.000 C 
ATOM     30  C   UNL     1      -3.460  13.609  24.641  0.00  0.00    +0.000 C 
ENDBRANCH  28  30
ENDBRANCH  27  28
ENDBRANCH  26  27
ENDBRANCH  20  26
ENDBRANCH  19  23
ENDBRANCH   1  19
TORSDOF 8
ENDMDL
MODEL 8
REMARK VINA RESULT:      -7.2      1.129      1.450
REMARK  Name = 
REMARK  9 active torsions:
REMARK  status: ('A' for Active; 'I' for Inactive)
REMARK    1  A    between atoms: C_1  and  C_2
REMARK    2  A    between atoms: C_2  and  C_3
REMARK    3  A    between atoms: C_3  and  C_4
REMARK    4  A    between atoms: C_4  and  C_5
REMARK    5  A    between atoms: C_5  and  N_6
REMARK    6  A    between atoms: N_9  and  C_10
REMARK    7  A    between atoms: C_10  and  C_11
REMARK    8  A    between atoms: C_15  and  N_16
REMARK    9  A    between atoms: C_17  and  C_19
REMARK                            x       y       z     vdW  Elec       q    Type
REMARK                         _______ _______ _______ _____ _____    ______ ____
ROOT
ATOM      1  C   UNL     1       3.957   4.449  19.317  0.00  0.00    +0.000 A 
ATOM      2  C   UNL     1       3.730   3.197  19.912  0.00  0.00    +0.000 A 
ATOM      3  C   UNL     1       2.699   3.035  20.835  0.00  0.00    +0.000 A 
ATOM      4  C   UNL     1       1.931   4.133  21.224  0.00  0.00    +0.000 A 
ATOM      5  C   UNL     1       2.133   5.391  20.672  0.00  0.00    +0.000 A 
ATOM      6  C   UNL     1       3.094   5.519  19.645  0.00  0.00    +0.000 A 
ENDROOT
BRANCH   5   7
ATOM      7  N   UNL     1       1.453   6.556  21.120  0.00  0.00    +0.000 N 
ATOM      8  C   UNL     1       1.469   7.781  20.475  0.00  0.00    +0.000 C 
ATOM      9  O   UNL     1       2.090   8.073  19.444  0.00  0.00    +0.000 OA
ATOM     10  H   UNL     1       0.888   6.439  21.947  0.00  0.00    +0.000 HD
BRANCH   8  11
ATOM     11  C   UNL     1       0.678   8.891  21.069  0.00  0.00    +0.000 A 
ATOM     12  C   UNL     1       0.547   8.919  22.467  0.00  0.00    +0.000 A 
ATOM     13  C   UNL     1      -0.194   9.919  23.093  0.00  0.00    +0.000 A 
ATOM     14  C   UNL     1      -0.805  10.916  22.327  0.00  0.00    +0.000 A 
ATOM     15 CL   UNL     1      -1.729  12.107  23.162  0.00  0.00    +0.000 Cl
ATOM     16  C   UNL     1      -0.661  10.903  20.934  0.00  0.00    +0.000 A 
ATOM     17 CL   UNL     1      -1.413  12.087  19.926  0.00  0.00    +0.000 Cl
ATOM     18  C   UNL     1       0.084   9.896  20.301  0.00  0.00    +0.000 A 
ENDBRANCH   8  11
ENDBRANCH   5   7
BRANCH   1  19
ATOM     19  C   UNL     1       5.129   4.642  18.362  0.00  0.00    +0.000 C 
BRANCH  19  23
ATOM     20  N   UNL     1       7.291   5.275  15.351  0.00  0.00    +0.000 NA
ATOM     21  C   UNL     1       6.394   6.259  15.994  0.00  0.00    +0.000 C 
ATOM     22  C   UNL     1       4.929   5.797  16.202  0.00  0.00    +0.000 C 
ATOM     23  N   UNL     1       4.771   4.511  16.927  0.00  0.00    +0.000 NA
ATOM     24  C   UNL     1       5.626   3.516  16.227  0.00  0.00    +0.000 C 
ATOM     25  C   UNL     1       7.105   3.968  16.022  0.00  0.00    +0.000 C 
BRANCH  20  26
ATOM     26  C   UNL     1       7.121   5.197  13.892  0.00  0.00    +0.000 C 
BRANCH  26  27
ATOM     27  C   UNL     1       6.691   3.803  13.371  0.00  0.00    +0.000 C 
BRANCH  27  28
ATOM     28  C   UNL     1       5.403   3.714  12.552  0.00  0.00    +0.000 C 
BRANCH  28  30
ATOM     29  C   UNL     1       6.910   2.138  11.281  0.00  0.00    +0.000 C 
ATOM     30  C   UNL     1       5.481   2.530  11.597  0.00  0.00    +0.000 C 
ENDBRANCH  28  30
ENDBRANCH  27  28
ENDBRANCH  26  27
ENDBRANCH  20  26
ENDBRANCH  19  23
ENDBRANCH   1  19
TORSDOF 8
ENDMDL
MODEL 9
REMARK VINA RESULT:      -7.0      1.574      1.696
REMARK  Name = 
REMARK  9 active torsions:
REMARK  status: ('A' for Active; 'I' for Inactive)
REMARK    1  A    between atoms: C_1  and  C_2
REMARK    2  A    between atoms: C_2  and  C_3
REMARK    3  A    between atoms: C_3  and  C_4
REMARK    4  A    between atoms: C_4  and  C_5
REMARK    5  A    between atoms: C_5  and  N_6
REMARK    6  A    between atoms: N_9  and  C_10
REMARK    7  A    between atoms: C_10  and  C_11
REMARK    8  A    between atoms: C_15  and  N_16
REMARK    9  A    between atoms: C_17  and  C_19
REMARK                            x       y       z     vdW  Elec       q    Type
REMARK                         _______ _______ _______ _____ _____    ______ ____
ROOT
ATOM      1  C   UNL     1       3.727   5.652  19.572  0.00  0.00    +0.000 A 
ATOM      2  C   UNL     1       3.031   4.584  20.162  0.00  0.00    +0.000 A 
ATOM      3  C   UNL     1       1.760   4.783  20.695  0.00  0.00    +0.000 A 
ATOM      4  C   UNL     1       1.199   6.062  20.706  0.00  0.00    +0.000 A 
ATOM      5  C   UNL     1       1.861   7.147  20.147  0.00  0.00    +0.000 A 
ATOM      6  C   UNL     1       3.091   6.912  19.496  0.00  0.00    +0.000 A 
ENDROOT
BRANCH   5   7
ATOM      7  N   UNL     1       1.380   8.482  20.236  0.00  0.00    +0.000 N 
ATOM      8  C   UNL     1       1.106   9.300  19.154  0.00  0.00    +0.000 C 
ATOM      9  O   UNL     1       1.260   9.029  17.956  0.00  0.00    +0.000 OA
ATOM     10  H   UNL     1       1.190   8.815  21.170  0.00  0.00    +0.000 HD
BRANCH   8  11
ATOM     11  C   UNL     1       0.581  10.665  19.428  0.00  0.00    +0.000 A 
ATOM     12  C   UNL     1      -0.678  10.993  18.901  0.00  0.00    +0.000 A 
ATOM     13  C   UNL     1      -1.226  12.258  19.102  0.00  0.00    +0.000 A 
ATOM     14  C   UNL     1      -0.524  13.211  19.845  0.00  0.00    +0.000 A 
ATOM     15 CL   UNL     1      -1.246  14.765  20.033  0.00  0.00    +0.000 Cl
ATOM     16  C   UNL     1       0.725  12.881  20.388  0.00  0.00    +0.000 A 
ATOM     17 CL   UNL     1       1.657  14.020  21.293  0.00  0.00    +0.000 Cl
ATOM     18  C   UNL     1       1.279  11.608  20.187  0.00  0.00    +0.000 A 
ENDBRANCH   8  11
ENDBRANCH   5   7
BRANCH   1  19
ATOM     19  C   UNL     1       5.146   5.449  19.054  0.00  0.00    +0.000 C 
BRANCH  19  23
ATOM     20  N   UNL     1       6.458   3.938  15.870  0.00  0.00    +0.000 NA
ATOM     21  C   UNL     1       7.276   4.561  16.933  0.00  0.00    +0.000 C 
ATOM     22  C   UNL     1       6.846   5.987  17.363  0.00  0.00    +0.000 C 
ATOM     23  N   UNL     1       5.422   6.123  17.760  0.00  0.00    +0.000 NA
ATOM     24  C   UNL     1       4.611   5.555  16.651  0.00  0.00    +0.000 C 
ATOM     25  C   UNL     1       5.029   4.115  16.218  0.00  0.00    +0.000 C 
BRANCH  20  26
ATOM     26  C   UNL     1       6.782   4.429  14.522  0.00  0.00    +0.000 C 
BRANCH  26  27
ATOM     27  C   UNL     1       5.706   4.119  13.451  0.00  0.00    +0.000 C 
BRANCH  27  28
ATOM     28  C   UNL     1       6.006   3.013  12.438  0.00  0.00    +0.000 C 
BRANCH  28  30
ATOM     29  C   UNL     1       3.779   3.259  11.276  0.00  0.00    +0.000 C 
ATOM     30  C   UNL     1       5.286   3.307  11.129  0.00  0.00    +0.000 C 
ENDBRANCH  28  30
ENDBRANCH  27  28
ENDBRANCH  26  27
ENDBRANCH  20  26
ENDBRANCH  19  23
ENDBRANCH   1  19
TORSDOF 8
ENDMDL
