MODEL 1
REMARK VINA RESULT:      -8.3      0.000      0.000
REMARK  Name = 
REMARK  9 active torsions:
REMARK  status: ('A' for Active; 'I' for Inactive)
REMARK    1  A    between atoms: C_1  and  O_2
REMARK    2  A    between atoms: O_2  and  C_3
REMARK    3  A    between atoms: C_6  and  C_7
REMARK    4  A    between atoms: C_8  and  C_9
REMARK    5  A    between atoms: C_9  and  O_10
REMARK    6  A    between atoms: C_11  and  C_12
REMARK    7  A    between atoms: C_12  and  O_13
REMARK    8  A    between atoms: C_24  and  O_25
REMARK    9  A    between atoms: O_25  and  C_26
REMARK                            x       y       z     vdW  Elec       q    Type
REMARK                         _______ _______ _______ _____ _____    ______ ____
ROOT
ATOM      1  C   UNL     1       3.673   4.562  18.457  0.00  0.00    +0.000 A 
ATOM      2  C   UNL     1       3.309   3.426  19.236  0.00  0.00    +0.000 A 
ATOM      3  C   UNL     1       2.253   3.790  20.136  0.00  0.00    +0.000 A 
ATOM      4  C   UNL     1       2.204   5.147  20.065  0.00  0.00    +0.000 A 
ATOM      5  S   UNL     1       1.407   6.372  20.997  0.00  0.00    +0.000 S 
ATOM      6  C   UNL     1       1.861   7.538  19.740  0.00  0.00    +0.000 A 
ATOM      7  C   UNL     1       1.484   8.872  19.744  0.00  0.00    +0.000 A 
ATOM      8  C   UNL     1       1.771   9.630  18.630  0.00  0.00    +0.000 A 
ATOM      9  C   UNL     1       2.418   9.050  17.518  0.00  0.00    +0.000 A 
ATOM     10  C   UNL     1       2.849   7.710  17.537  0.00  0.00    +0.000 A 
ATOM     11  C   UNL     1       2.593   6.966  18.674  0.00  0.00    +0.000 A 
ATOM     12  N   UNL     1       2.877   5.606  18.957  0.00  0.00    +0.000 N 
ENDROOT
BRANCH   1  16
ATOM     13  C   UNL     1       6.758   5.141  15.438  0.00  0.00    +0.000 A 
ATOM     14  C   UNL     1       5.789   4.136  15.294  0.00  0.00    +0.000 A 
ATOM     15  C   UNL     1       4.806   3.912  16.280  0.00  0.00    +0.000 A 
ATOM     16  C   UNL     1       4.793   4.638  17.471  0.00  0.00    +0.000 A 
ATOM     17  C   UNL     1       5.830   5.583  17.631  0.00  0.00    +0.000 A 
ATOM     18  C   UNL     1       6.795   5.860  16.636  0.00  0.00    +0.000 A 
BRANCH  13  20
ATOM     19  C   UNL     1       7.390   4.916  13.154  0.00  0.00    +0.000 C 
ATOM     20  O   UNL     1       7.672   5.419  14.458  0.00  0.00    +0.000 OA
ENDBRANCH  13  20
BRANCH  18  21
ATOM     21  O   UNL     1       7.629   6.891  16.987  0.00  0.00    +0.000 OA
ATOM     22  C   UNL     1       7.963   7.095  18.353  0.00  0.00    +0.000 C 
ENDBRANCH  18  21
ENDBRANCH   1  16
BRANCH   2  23
ATOM     23  C   UNL     1       3.925   2.053  19.273  0.00  0.00    +0.000 C 
BRANCH  23  24
ATOM     24  O   UNL     1       5.165   2.047  19.965  0.00  0.00    +0.000 OA
ATOM     25  H   UNL     1       5.828   2.327  19.305  0.00  0.00    +0.000 HD
ENDBRANCH  23  24
ENDBRANCH   2  23
BRANCH   3  26
ATOM     26  C   UNL     1       1.465   2.907  21.035  0.00  0.00    +0.000 C 
BRANCH  26  27
ATOM     27  O   UNL     1       2.133   2.748  22.288  0.00  0.00    +0.000 OA
ATOM     28  H   UNL     1       1.423   2.620  22.945  0.00  0.00    +0.000 HD
ENDBRANCH  26  27
ENDBRANCH   3  26
TORSDOF 7
ENDMDL
MODEL 2
REMARK VINA RESULT:      -7.4      1.174      1.187
REMARK  Name = 
REMARK  9 active torsions:
REMARK  status: ('A' for Active; 'I' for Inactive)
REMARK    1  A    between atoms: C_1  and  O_2
REMARK    2  A    between atoms: O_2  and  C_3
REMARK    3  A    between atoms: C_6  and  C_7
REMARK    4  A    between atoms: C_8  and  C_9
REMARK    5  A    between atoms: C_9  and  O_10
REMARK    6  A    between atoms: C_11  and  C_12
REMARK    7  A    between atoms: C_12  and  O_13
REMARK    8  A    between atoms: C_24  and  O_25
REMARK    9  A    between atoms: O_25  and  C_26
REMARK                            x       y       z     vdW  Elec       q    Type
REMARK                         _______ _______ _______ _____ _____    ______ ____
ROOT
ATOM      1  C   UNL     1       3.746   4.104  17.679  0.00  0.00    +0.000 A 
ATOM      2  C   UNL     1       3.295   2.845  18.167  0.00  0.00    +0.000 A 
ATOM      3  C   UNL     1       2.224   3.055  19.098  0.00  0.00    +0.000 A 
ATOM      4  C   UNL     1       2.248   4.392  19.340  0.00  0.00    +0.000 A 
ATOM      5  S   UNL     1       1.479   5.418  20.507  0.00  0.00    +0.000 S 
ATOM      6  C   UNL     1       2.041   6.810  19.565  0.00  0.00    +0.000 A 
ATOM      7  C   UNL     1       1.733   8.128  19.866  0.00  0.00    +0.000 A 
ATOM      8  C   UNL     1       2.102   9.103  18.964  0.00  0.00    +0.000 A 
ATOM      9  C   UNL     1       2.761   8.754  17.766  0.00  0.00    +0.000 A 
ATOM     10  C   UNL     1       3.122   7.423  17.487  0.00  0.00    +0.000 A 
ATOM     11  C   UNL     1       2.784   6.455  18.416  0.00  0.00    +0.000 A 
ATOM     12  N   UNL     1       2.986   5.053  18.385  0.00  0.00    +0.000 N 
ENDROOT
BRANCH   1  16
ATOM     13  C   UNL     1       6.947   5.155  14.919  0.00  0.00    +0.000 A 
ATOM     14  C   UNL     1       6.007   4.166  14.590  0.00  0.00    +0.000 A 
ATOM     15  C   UNL     1       4.987   3.788  15.487  0.00  0.00    +0.000 A 
ATOM     16  C   UNL     1       4.906   4.338  16.767  0.00  0.00    +0.000 A 
ATOM     17  C   UNL     1       5.915   5.266  17.107  0.00  0.00    +0.000 A 
ATOM     18  C   UNL     1       6.915   5.697  16.207  0.00  0.00    +0.000 A 
BRANCH  13  20
ATOM     19  C   UNL     1       7.752   5.156  12.679  0.00  0.00    +0.000 C 
ATOM     20  O   UNL     1       7.896   5.583  14.032  0.00  0.00    +0.000 OA
ENDBRANCH  13  20
BRANCH  18  21
ATOM     21  O   UNL     1       7.711   6.680  16.738  0.00  0.00    +0.000 OA
ATOM     22  C   UNL     1       7.715   6.902  18.142  0.00  0.00    +0.000 C 
ENDBRANCH  18  21
ENDBRANCH   1  16
BRANCH   2  23
ATOM     23  C   UNL     1       3.837   1.466  17.902  0.00  0.00    +0.000 C 
BRANCH  23  24
ATOM     24  O   UNL     1       4.541   0.950  19.023  0.00  0.00    +0.000 OA
ATOM     25  H   UNL     1       5.470   1.221  18.888  0.00  0.00    +0.000 HD
ENDBRANCH  23  24
ENDBRANCH   2  23
BRANCH   3  26
ATOM     26  C   UNL     1       1.357   2.038  19.749  0.00  0.00    +0.000 C 
BRANCH  26  27
ATOM     27  O   UNL     1       0.391   1.541  18.823  0.00  0.00    +0.000 OA
ATOM     28  H   UNL     1       0.637   1.925  17.960  0.00  0.00    +0.000 HD
ENDBRANCH  26  27
ENDBRANCH   3  26
TORSDOF 7
ENDMDL
MODEL 3
REMARK VINA RESULT:      -7.0      2.638      6.406
REMARK  Name = 
REMARK  9 active torsions:
REMARK  status: ('A' for Active; 'I' for Inactive)
REMARK    1  A    between atoms: C_1  and  O_2
REMARK    2  A    between atoms: O_2  and  C_3
REMARK    3  A    between atoms: C_6  and  C_7
REMARK    4  A    between atoms: C_8  and  C_9
REMARK    5  A    between atoms: C_9  and  O_10
REMARK    6  A    between atoms: C_11  and  C_12
REMARK    7  A    between atoms: C_12  and  O_13
REMARK    8  A    between atoms: C_24  and  O_25
REMARK    9  A    between atoms: O_25  and  C_26
REMARK                            x       y       z     vdW  Elec       q    Type
REMARK                         _______ _______ _______ _____ _____    ______ ____
ROOT
ATOM      1  C   UNL     1       3.565   6.156  18.136  0.00  0.00    +0.000 A 
ATOM      2  C   UNL     1       4.642   6.048  17.209  0.00  0.00    +0.000 A 
ATOM      3  C   UNL     1       5.169   4.714  17.251  0.00  0.00    +0.000 A 
ATOM      4  C   UNL     1       4.596   4.162  18.353  0.00  0.00    +0.000 A 
ATOM      5  S   UNL     1       4.875   2.706  19.252  0.00  0.00    +0.000 S 
ATOM      6  C   UNL     1       3.364   3.025  20.122  0.00  0.00    +0.000 A 
ATOM      7  C   UNL     1       2.818   2.174  21.070  0.00  0.00    +0.000 A 
ATOM      8  C   UNL     1       1.561   2.465  21.556  0.00  0.00    +0.000 A 
ATOM      9  C   UNL     1       0.856   3.592  21.084  0.00  0.00    +0.000 A 
ATOM     10  C   UNL     1       1.434   4.486  20.163  0.00  0.00    +0.000 A 
ATOM     11  C   UNL     1       2.712   4.210  19.710  0.00  0.00    +0.000 A 
ATOM     12  N   UNL     1       3.515   4.903  18.771  0.00  0.00    +0.000 N 
ENDROOT
BRANCH   1  16
ATOM     13  C   UNL     1       1.001   9.546  19.082  0.00  0.00    +0.000 A 
ATOM     14  C   UNL     1       1.650   9.458  17.841  0.00  0.00    +0.000 A 
ATOM     15  C   UNL     1       2.512   8.386  17.533  0.00  0.00    +0.000 A 
ATOM     16  C   UNL     1       2.807   7.398  18.473  0.00  0.00    +0.000 A 
ATOM     17  C   UNL     1       2.212   7.556  19.744  0.00  0.00    +0.000 A 
ATOM     18  C   UNL     1       1.305   8.594  20.058  0.00  0.00    +0.000 A 
BRANCH  13  20
ATOM     19  C   UNL     1      -1.213  10.389  18.846  0.00  0.00    +0.000 C 
ATOM     20  O   UNL     1       0.105  10.540  19.368  0.00  0.00    +0.000 OA
ENDBRANCH  13  20
BRANCH  18  21
ATOM     21  O   UNL     1       0.783   8.470  21.321  0.00  0.00    +0.000 OA
ATOM     22  C   UNL     1       1.302   9.263  22.380  0.00  0.00    +0.000 C 
ENDBRANCH  18  21
ENDBRANCH   1  16
BRANCH   2  23
ATOM     23  C   UNL     1       5.277   7.110  16.352  0.00  0.00    +0.000 C 
BRANCH  23  24
ATOM     24  O   UNL     1       6.584   7.440  16.798  0.00  0.00    +0.000 OA
ATOM     25  H   UNL     1       7.179   7.161  16.076  0.00  0.00    +0.000 HD
ENDBRANCH  23  24
ENDBRANCH   2  23
BRANCH   3  26
ATOM     26  C   UNL     1       6.197   4.103  16.368  0.00  0.00    +0.000 C 
BRANCH  26  27
ATOM     27  O   UNL     1       7.502   4.538  16.748  0.00  0.00    +0.000 OA
ATOM     28  H   UNL     1       7.646   5.376  16.269  0.00  0.00    +0.000 HD
ENDBRANCH  26  27
ENDBRANCH   3  26
TORSDOF 7
ENDMDL
MODEL 4
REMARK VINA RESULT:      -7.0      0.836      1.948
REMARK  Name = 
REMARK  9 active torsions:
REMARK  status: ('A' for Active; 'I' for Inactive)
REMARK    1  A    between atoms: C_1  and  O_2
REMARK    2  A    between atoms: O_2  and  C_3
REMARK    3  A    between atoms: C_6  and  C_7
REMARK    4  A    between atoms: C_8  and  C_9
REMARK    5  A    between atoms: C_9  and  O_10
REMARK    6  A    between atoms: C_11  and  C_12
REMARK    7  A    between atoms: C_12  and  O_13
REMARK    8  A    between atoms: C_24  and  O_25
REMARK    9  A    between atoms: O_25  and  C_26
REMARK                            x       y       z     vdW  Elec       q    Type
REMARK                         _______ _______ _______ _____ _____    ______ ____
ROOT
ATOM      1  C   UNL     1       3.738   4.857  18.289  0.00  0.00    +0.000 A 
ATOM      2  C   UNL     1       3.508   3.653  19.013  0.00  0.00    +0.000 A 
ATOM      3  C   UNL     1       2.480   3.876  19.989  0.00  0.00    +0.000 A 
ATOM      4  C   UNL     1       2.322   5.226  20.006  0.00  0.00    +0.000 A 
ATOM      5  S   UNL     1       1.487   6.326  21.054  0.00  0.00    +0.000 S 
ATOM      6  C   UNL     1       1.776   7.596  19.851  0.00  0.00    +0.000 A 
ATOM      7  C   UNL     1       1.297   8.893  19.959  0.00  0.00    +0.000 A 
ATOM      8  C   UNL     1       1.461   9.736  18.882  0.00  0.00    +0.000 A 
ATOM      9  C   UNL     1       2.086   9.277  17.703  0.00  0.00    +0.000 A 
ATOM     10  C   UNL     1       2.621   7.978  17.615  0.00  0.00    +0.000 A 
ATOM     11  C   UNL     1       2.489   7.149  18.715  0.00  0.00    +0.000 A 
ATOM     12  N   UNL     1       2.892   5.803  18.895  0.00  0.00    +0.000 N 
ENDROOT
BRANCH   1  16
ATOM     13  C   UNL     1       6.995   5.163  15.415  0.00  0.00    +0.000 A 
ATOM     14  C   UNL     1       6.913   6.041  16.507  0.00  0.00    +0.000 A 
ATOM     15  C   UNL     1       5.846   5.979  17.426  0.00  0.00    +0.000 A 
ATOM     16  C   UNL     1       4.790   5.082  17.253  0.00  0.00    +0.000 A 
ATOM     17  C   UNL     1       4.850   4.271  16.099  0.00  0.00    +0.000 A 
ATOM     18  C   UNL     1       5.935   4.280  15.193  0.00  0.00    +0.000 A 
BRANCH  13  20
ATOM     19  C   UNL     1       7.808   5.569  13.215  0.00  0.00    +0.000 C 
ATOM     20  O   UNL     1       8.061   5.163  14.558  0.00  0.00    +0.000 OA
ENDBRANCH  13  20
BRANCH  18  21
ATOM     21  O   UNL     1       5.808   3.327  14.214  0.00  0.00    +0.000 OA
ATOM     22  C   UNL     1       5.115   3.638  13.013  0.00  0.00    +0.000 C 
ENDBRANCH  18  21
ENDBRANCH   1  16
BRANCH   2  23
ATOM     23  C   UNL     1       4.230   2.334  18.931  0.00  0.00    +0.000 C 
BRANCH  23  24
ATOM     24  O   UNL     1       5.084   2.127  20.047  0.00  0.00    +0.000 OA
ATOM     25  H   UNL     1       4.500   2.173  20.828  0.00  0.00    +0.000 HD
ENDBRANCH  23  24
ENDBRANCH   2  23
BRANCH   3  26
ATOM     26  C   UNL     1       1.816   2.880  20.870  0.00  0.00    +0.000 C 
BRANCH  26  27
ATOM     27  O   UNL     1       2.622   2.615  22.018  0.00  0.00    +0.000 OA
ATOM     28  H   UNL     1       2.201   3.104  22.749  0.00  0.00    +0.000 HD
ENDBRANCH  26  27
ENDBRANCH   3  26
TORSDOF 7
ENDMDL
MODEL 5
REMARK VINA RESULT:      -6.6      1.048      1.048
REMARK  Name = 
REMARK  9 active torsions:
REMARK  status: ('A' for Active; 'I' for Inactive)
REMARK    1  A    between atoms: C_1  and  O_2
REMARK    2  A    between atoms: O_2  and  C_3
REMARK    3  A    between atoms: C_6  and  C_7
REMARK    4  A    between atoms: C_8  and  C_9
REMARK    5  A    between atoms: C_9  and  O_10
REMARK    6  A    between atoms: C_11  and  C_12
REMARK    7  A    between atoms: C_12  and  O_13
REMARK    8  A    between atoms: C_24  and  O_25
REMARK    9  A    between atoms: O_25  and  C_26
REMARK                            x       y       z     vdW  Elec       q    Type
REMARK                         _______ _______ _______ _____ _____    ______ ____
ROOT
ATOM      1  C   UNL     1       3.631   4.727  18.719  0.00  0.00    +0.000 A 
ATOM      2  C   UNL     1       3.390   3.653  19.623  0.00  0.00    +0.000 A 
ATOM      3  C   UNL     1       2.395   4.052  20.576  0.00  0.00    +0.000 A 
ATOM      4  C   UNL     1       2.274   5.393  20.391  0.00  0.00    +0.000 A 
ATOM      5  S   UNL     1       1.497   6.664  21.279  0.00  0.00    +0.000 S 
ATOM      6  C   UNL     1       1.786   7.728  19.891  0.00  0.00    +0.000 A 
ATOM      7  C   UNL     1       1.345   9.040  19.811  0.00  0.00    +0.000 A 
ATOM      8  C   UNL     1       1.501   9.706  18.614  0.00  0.00    +0.000 A 
ATOM      9  C   UNL     1       2.081   9.054  17.505  0.00  0.00    +0.000 A 
ATOM     10  C   UNL     1       2.579   7.741  17.603  0.00  0.00    +0.000 A 
ATOM     11  C   UNL     1       2.456   7.093  18.819  0.00  0.00    +0.000 A 
ATOM     12  N   UNL     1       2.828   5.778  19.193  0.00  0.00    +0.000 N 
ENDROOT
BRANCH   1  16
ATOM     13  C   UNL     1       6.756   5.198  15.722  0.00  0.00    +0.000 A 
ATOM     14  C   UNL     1       5.403   5.355  15.383  0.00  0.00    +0.000 A 
ATOM     15  C   UNL     1       4.378   5.170  16.333  0.00  0.00    +0.000 A 
ATOM     16  C   UNL     1       4.661   4.760  17.636  0.00  0.00    +0.000 A 
ATOM     17  C   UNL     1       6.021   4.522  17.929  0.00  0.00    +0.000 A 
ATOM     18  C   UNL     1       7.070   4.751  17.008  0.00  0.00    +0.000 A 
BRANCH  13  20
ATOM     19  C   UNL     1       7.574   4.980  13.497  0.00  0.00    +0.000 C 
ATOM     20  O   UNL     1       7.764   5.446  14.831  0.00  0.00    +0.000 OA
ENDBRANCH  13  20
BRANCH  18  21
ATOM     21  O   UNL     1       8.308   4.549  17.563  0.00  0.00    +0.000 OA
ATOM     22  C   UNL     1       8.537   4.895  18.922  0.00  0.00    +0.000 C 
ENDBRANCH  18  21
ENDBRANCH   1  16
BRANCH   2  23
ATOM     23  C   UNL     1       4.074   2.316  19.725  0.00  0.00    +0.000 C 
BRANCH  23  24
ATOM     24  O   UNL     1       3.857   1.519  18.569  0.00  0.00    +0.000 OA
ATOM     25  H   UNL     1       2.887   1.490  18.458  0.00  0.00    +0.000 HD
ENDBRANCH  23  24
ENDBRANCH   2  23
BRANCH   3  26
ATOM     26  C   UNL     1       1.729   3.222  21.614  0.00  0.00    +0.000 C 
BRANCH  26  27
ATOM     27  O   UNL     1       0.490   2.711  21.123  0.00  0.00    +0.000 OA
ATOM     28  H   UNL     1       0.728   2.115  20.388  0.00  0.00    +0.000 HD
ENDBRANCH  26  27
ENDBRANCH   3  26
TORSDOF 7
ENDMDL
MODEL 6
REMARK VINA RESULT:      -6.6      2.990      6.031
REMARK  Name = 
REMARK  9 active torsions:
REMARK  status: ('A' for Active; 'I' for Inactive)
REMARK    1  A    between atoms: C_1  and  O_2
REMARK    2  A    between atoms: O_2  and  C_3
REMARK    3  A    between atoms: C_6  and  C_7
REMARK    4  A    between atoms: C_8  and  C_9
REMARK    5  A    between atoms: C_9  and  O_10
REMARK    6  A    between atoms: C_11  and  C_12
REMARK    7  A    between atoms: C_12  and  O_13
REMARK    8  A    between atoms: C_24  and  O_25
REMARK    9  A    between atoms: O_25  and  C_26
REMARK                            x       y       z     vdW  Elec       q    Type
REMARK                         _______ _______ _______ _____ _____    ______ ____
ROOT
ATOM      1  C   UNL     1       2.812   5.733  19.124  0.00  0.00    +0.000 A 
ATOM      2  C   UNL     1       2.135   4.604  19.667  0.00  0.00    +0.000 A 
ATOM      3  C   UNL     1       2.856   3.411  19.324  0.00  0.00    +0.000 A 
ATOM      4  C   UNL     1       3.756   3.820  18.391  0.00  0.00    +0.000 A 
ATOM      5  S   UNL     1       4.815   2.991  17.297  0.00  0.00    +0.000 S 
ATOM      6  C   UNL     1       5.588   4.550  16.960  0.00  0.00    +0.000 A 
ATOM      7  C   UNL     1       6.689   4.710  16.133  0.00  0.00    +0.000 A 
ATOM      8  C   UNL     1       7.287   5.951  16.080  0.00  0.00    +0.000 A 
ATOM      9  C   UNL     1       6.792   7.016  16.863  0.00  0.00    +0.000 A 
ATOM     10  C   UNL     1       5.641   6.868  17.660  0.00  0.00    +0.000 A 
ATOM     11  C   UNL     1       5.022   5.631  17.676  0.00  0.00    +0.000 A 
ATOM     12  N   UNL     1       3.888   5.189  18.401  0.00  0.00    +0.000 N 
ENDROOT
BRANCH   1  16
ATOM     13  C   UNL     1       1.057   9.715  19.283  0.00  0.00    +0.000 A 
ATOM     14  C   UNL     1       1.568   9.201  18.082  0.00  0.00    +0.000 A 
ATOM     15  C   UNL     1       2.172   7.929  18.021  0.00  0.00    +0.000 A 
ATOM     16  C   UNL     1       2.345   7.151  19.167  0.00  0.00    +0.000 A 
ATOM     17  C   UNL     1       1.903   7.727  20.378  0.00  0.00    +0.000 A 
ATOM     18  C   UNL     1       1.249   8.978  20.455  0.00  0.00    +0.000 A 
BRANCH  13  20
ATOM     19  C   UNL     1      -0.945  10.938  18.878  0.00  0.00    +0.000 C 
ATOM     20  O   UNL     1       0.403  10.915  19.343  0.00  0.00    +0.000 OA
ENDBRANCH  13  20
BRANCH  18  21
ATOM     21  O   UNL     1       0.821   9.269  21.726  0.00  0.00    +0.000 OA
ATOM     22  C   UNL     1      -0.467   8.844  22.152  0.00  0.00    +0.000 C 
ENDBRANCH  18  21
ENDBRANCH   1  16
BRANCH   2  23
ATOM     23  C   UNL     1       0.826   4.536  20.406  0.00  0.00    +0.000 C 
BRANCH  23  24
ATOM     24  O   UNL     1       0.040   3.427  19.991  0.00  0.00    +0.000 OA
ATOM     25  H   UNL     1      -0.645   3.327  20.681  0.00  0.00    +0.000 HD
ENDBRANCH  23  24
ENDBRANCH   2  23
BRANCH   3  26
ATOM     26  C   UNL     1       2.607   2.020  19.787  0.00  0.00    +0.000 C 
BRANCH  26  27
ATOM     27  O   UNL     1       1.746   1.339  18.874  0.00  0.00    +0.000 OA
ATOM     28  H   UNL     1       1.355   2.037  18.316  0.00  0.00    +0.000 HD
ENDBRANCH  26  27
ENDBRANCH   3  26
TORSDOF 7
ENDMDL
MODEL 7
REMARK VINA RESULT:      -6.5      2.719      6.334
REMARK  Name = 
REMARK  9 active torsions:
REMARK  status: ('A' for Active; 'I' for Inactive)
REMARK    1  A    between atoms: C_1  and  O_2
REMARK    2  A    between atoms: O_2  and  C_3
REMARK    3  A    between atoms: C_6  and  C_7
REMARK    4  A    between atoms: C_8  and  C_9
REMARK    5  A    between atoms: C_9  and  O_10
REMARK    6  A    between atoms: C_11  and  C_12
REMARK    7  A    between atoms: C_12  and  O_13
REMARK    8  A    between atoms: C_24  and  O_25
REMARK    9  A    between atoms: O_25  and  C_26
REMARK                            x       y       z     vdW  Elec       q    Type
REMARK                         _______ _______ _______ _____ _____    ______ ____
ROOT
ATOM      1  C   UNL     1       3.927   6.183  17.988  0.00  0.00    +0.000 A 
ATOM      2  C   UNL     1       5.274   6.225  17.527  0.00  0.00    +0.000 A 
ATOM      3  C   UNL     1       5.763   4.884  17.376  0.00  0.00    +0.000 A 
ATOM      4  C   UNL     1       4.825   4.115  17.988  0.00  0.00    +0.000 A 
ATOM      5  S   UNL     1       4.764   2.451  18.472  0.00  0.00    +0.000 S 
ATOM      6  C   UNL     1       3.033   2.668  18.786  0.00  0.00    +0.000 A 
ATOM      7  C   UNL     1       2.180   1.650  19.185  0.00  0.00    +0.000 A 
ATOM      8  C   UNL     1       0.830   1.920  19.243  0.00  0.00    +0.000 A 
ATOM      9  C   UNL     1       0.340   3.195  18.888  0.00  0.00    +0.000 A 
ATOM     10  C   UNL     1       1.211   4.244  18.536  0.00  0.00    +0.000 A 
ATOM     11  C   UNL     1       2.568   3.977  18.520  0.00  0.00    +0.000 A 
ATOM     12  N   UNL     1       3.657   4.816  18.176  0.00  0.00    +0.000 N 
ENDROOT
BRANCH   1  16
ATOM     13  C   UNL     1       1.128   9.349  19.040  0.00  0.00    +0.000 A 
ATOM     14  C   UNL     1       1.787   9.352  17.801  0.00  0.00    +0.000 A 
ATOM     15  C   UNL     1       2.723   8.355  17.460  0.00  0.00    +0.000 A 
ATOM     16  C   UNL     1       3.082   7.356  18.366  0.00  0.00    +0.000 A 
ATOM     17  C   UNL     1       2.472   7.425  19.637  0.00  0.00    +0.000 A 
ATOM     18  C   UNL     1       1.494   8.385  19.983  0.00  0.00    +0.000 A 
BRANCH  13  20
ATOM     19  C   UNL     1      -0.880  10.458  18.403  0.00  0.00    +0.000 C 
ATOM     20  O   UNL     1       0.164  10.267  19.356  0.00  0.00    +0.000 OA
ENDBRANCH  13  20
BRANCH  18  21
ATOM     21  O   UNL     1       0.976   8.178  21.236  0.00  0.00    +0.000 OA
ATOM     22  C   UNL     1       1.307   9.071  22.292  0.00  0.00    +0.000 C 
ENDBRANCH  18  21
ENDBRANCH   1  16
BRANCH   2  23
ATOM     23  C   UNL     1       6.171   7.411  17.299  0.00  0.00    +0.000 C 
BRANCH  23  24
ATOM     24  O   UNL     1       7.436   7.247  17.924  0.00  0.00    +0.000 OA
ATOM     25  H   UNL     1       7.611   6.286  17.899  0.00  0.00    +0.000 HD
ENDBRANCH  23  24
ENDBRANCH   2  23
BRANCH   3  26
ATOM     26  C   UNL     1       7.055   4.437  16.792  0.00  0.00    +0.000 C 
BRANCH  26  27
ATOM     27  O   UNL     1       7.978   4.097  17.827  0.00  0.00    +0.000 OA
ATOM     28  H   UNL     1       7.622   3.287  18.237  0.00  0.00    +0.000 HD
ENDBRANCH  26  27
ENDBRANCH   3  26
TORSDOF 7
ENDMDL
MODEL 8
REMARK VINA RESULT:      -6.2      2.749      5.932
REMARK  Name = 
REMARK  9 active torsions:
REMARK  status: ('A' for Active; 'I' for Inactive)
REMARK    1  A    between atoms: C_1  and  O_2
REMARK    2  A    between atoms: O_2  and  C_3
REMARK    3  A    between atoms: C_6  and  C_7
REMARK    4  A    between atoms: C_8  and  C_9
REMARK    5  A    between atoms: C_9  and  O_10
REMARK    6  A    between atoms: C_11  and  C_12
REMARK    7  A    between atoms: C_12  and  O_13
REMARK    8  A    between atoms: C_24  and  O_25
REMARK    9  A    between atoms: O_25  and  C_26
REMARK                            x       y       z     vdW  Elec       q    Type
REMARK                         _______ _______ _______ _____ _____    ______ ____
ROOT
ATOM      1  C   UNL     1       3.117   5.634  19.052  0.00  0.00    +0.000 A 
ATOM      2  C   UNL     1       2.831   4.628  20.018  0.00  0.00    +0.000 A 
ATOM      3  C   UNL     1       3.509   3.417  19.654  0.00  0.00    +0.000 A 
ATOM      4  C   UNL     1       3.942   3.644  18.386  0.00  0.00    +0.000 A 
ATOM      5  S   UNL     1       4.609   2.634  17.144  0.00  0.00    +0.000 S 
ATOM      6  C   UNL     1       5.010   4.108  16.245  0.00  0.00    +0.000 A 
ATOM      7  C   UNL     1       5.697   4.123  15.041  0.00  0.00    +0.000 A 
ATOM      8  C   UNL     1       6.081   5.343  14.527  0.00  0.00    +0.000 A 
ATOM      9  C   UNL     1       5.788   6.535  15.224  0.00  0.00    +0.000 A 
ATOM     10  C   UNL     1       5.043   6.523  16.417  0.00  0.00    +0.000 A 
ATOM     11  C   UNL     1       4.626   5.298  16.907  0.00  0.00    +0.000 A 
ATOM     12  N   UNL     1       3.904   4.985  18.084  0.00  0.00    +0.000 N 
ENDROOT
BRANCH   1  16
ATOM     13  C   UNL     1       1.038   9.460  18.961  0.00  0.00    +0.000 A 
ATOM     14  C   UNL     1       1.581   8.907  17.791  0.00  0.00    +0.000 A 
ATOM     15  C   UNL     1       2.288   7.688  17.810  0.00  0.00    +0.000 A 
ATOM     16  C   UNL     1       2.534   7.009  19.004  0.00  0.00    +0.000 A 
ATOM     17  C   UNL     1       2.055   7.629  20.178  0.00  0.00    +0.000 A 
ATOM     18  C   UNL     1       1.300   8.824  20.178  0.00  0.00    +0.000 A 
BRANCH  13  20
ATOM     19  C   UNL     1      -1.069  10.478  18.524  0.00  0.00    +0.000 C 
ATOM     20  O   UNL     1       0.287  10.603  18.948  0.00  0.00    +0.000 OA
ENDBRANCH  13  20
BRANCH  18  21
ATOM     21  O   UNL     1       0.859   9.166  21.432  0.00  0.00    +0.000 OA
ATOM     22  C   UNL     1      -0.425   8.742  21.869  0.00  0.00    +0.000 C 
ENDBRANCH  18  21
ENDBRANCH   1  16
BRANCH   2  23
ATOM     23  C   UNL     1       1.907   4.676  21.206  0.00  0.00    +0.000 C 
BRANCH  23  24
ATOM     24  O   UNL     1       0.698   3.971  20.965  0.00  0.00    +0.000 OA
ATOM     25  H   UNL     1       0.824   3.534  20.101  0.00  0.00    +0.000 HD
ENDBRANCH  23  24
ENDBRANCH   2  23
BRANCH   3  26
ATOM     26  C   UNL     1       3.617   2.154  20.431  0.00  0.00    +0.000 C 
BRANCH  26  27
ATOM     27  O   UNL     1       4.988   1.794  20.607  0.00  0.00    +0.000 OA
ATOM     28  H   UNL     1       5.375   2.507  21.149  0.00  0.00    +0.000 HD
ENDBRANCH  26  27
ENDBRANCH   3  26
TORSDOF 7
ENDMDL
MODEL 9
REMARK VINA RESULT:      -6.1      2.738      5.829
REMARK  Name = 
REMARK  9 active torsions:
REMARK  status: ('A' for Active; 'I' for Inactive)
REMARK    1  A    between atoms: C_1  and  O_2
REMARK    2  A    between atoms: O_2  and  C_3
REMARK    3  A    between atoms: C_6  and  C_7
REMARK    4  A    between atoms: C_8  and  C_9
REMARK    5  A    between atoms: C_9  and  O_10
REMARK    6  A    between atoms: C_11  and  C_12
REMARK    7  A    between atoms: C_12  and  O_13
REMARK    8  A    between atoms: C_24  and  O_25
REMARK    9  A    between atoms: O_25  and  C_26
REMARK                            x       y       z     vdW  Elec       q    Type
REMARK                         _______ _______ _______ _____ _____    ______ ____
ROOT
ATOM      1  C   UNL     1       2.833   5.205  18.745  0.00  0.00    +0.000 A 
ATOM      2  C   UNL     1       2.255   3.907  18.828  0.00  0.00    +0.000 A 
ATOM      3  C   UNL     1       3.144   2.954  18.228  0.00  0.00    +0.000 A 
ATOM      4  C   UNL     1       4.067   3.717  17.585  0.00  0.00    +0.000 A 
ATOM      5  S   UNL     1       5.314   3.376  16.429  0.00  0.00    +0.000 S 
ATOM      6  C   UNL     1       5.917   5.023  16.684  0.00  0.00    +0.000 A 
ATOM      7  C   UNL     1       7.059   5.534  16.088  0.00  0.00    +0.000 A 
ATOM      8  C   UNL     1       7.503   6.775  16.493  0.00  0.00    +0.000 A 
ATOM      9  C   UNL     1       6.812   7.488  17.496  0.00  0.00    +0.000 A 
ATOM     10  C   UNL     1       5.621   6.993  18.060  0.00  0.00    +0.000 A 
ATOM     11  C   UNL     1       5.160   5.765  17.621  0.00  0.00    +0.000 A 
ATOM     12  N   UNL     1       4.028   5.018  18.029  0.00  0.00    +0.000 N 
ENDROOT
BRANCH   1  16
ATOM     13  C   UNL     1       1.358   9.112  19.980  0.00  0.00    +0.000 A 
ATOM     14  C   UNL     1       1.355   8.027  20.870  0.00  0.00    +0.000 A 
ATOM     15  C   UNL     1       1.795   6.747  20.474  0.00  0.00    +0.000 A 
ATOM     16  C   UNL     1       2.193   6.489  19.162  0.00  0.00    +0.000 A 
ATOM     17  C   UNL     1       2.104   7.575  18.264  0.00  0.00    +0.000 A 
ATOM     18  C   UNL     1       1.715   8.878  18.649  0.00  0.00    +0.000 A 
BRANCH  13  20
ATOM     19  C   UNL     1      -0.388  10.631  20.536  0.00  0.00    +0.000 C 
ATOM     20  O   UNL     1       1.005  10.375  20.369  0.00  0.00    +0.000 OA
ENDBRANCH  13  20
BRANCH  18  21
ATOM     21  O   UNL     1       1.811   9.780  17.620  0.00  0.00    +0.000 OA
ATOM     22  C   UNL     1       2.333  11.079  17.867  0.00  0.00    +0.000 C 
ENDBRANCH  18  21
ENDBRANCH   1  16
BRANCH   2  23
ATOM     23  C   UNL     1       0.902   3.492  19.342  0.00  0.00    +0.000 C 
BRANCH  23  24
ATOM     24  O   UNL     1       0.927   3.214  20.735  0.00  0.00    +0.000 OA
ATOM     25  H   UNL     1       1.843   3.402  21.017  0.00  0.00    +0.000 HD
ENDBRANCH  23  24
ENDBRANCH   2  23
BRANCH   3  26
ATOM     26  C   UNL     1       3.028   1.472  18.208  0.00  0.00    +0.000 C 
BRANCH  26  27
ATOM     27  O   UNL     1       4.261   0.870  18.604  0.00  0.00    +0.000 OA
ATOM     28  H   UNL     1       4.114  -0.092  18.534  0.00  0.00    +0.000 HD
ENDBRANCH  26  27
ENDBRANCH   3  26
TORSDOF 7
ENDMDL
