MODEL 1
REMARK VINA RESULT:      -8.6      0.000      0.000
REMARK  Name = 
REMARK  8 active torsions:
REMARK  status: ('A' for Active; 'I' for Inactive)
REMARK    1  A    between atoms: C_1  and  C_2
REMARK    2  A    between atoms: C_2  and  N_3
REMARK    3  A    between atoms: C_4  and  S_5
REMARK    4  A    between atoms: S_5  and  C_6
REMARK    5  A    between atoms: C_6  and  C_7
REMARK    6  A    between atoms: N_11  and  C_12
REMARK    7  A    between atoms: C_27  and  O_28
REMARK    8  A    between atoms: O_28  and  C_29
REMARK                            x       y       z     vdW  Elec       q    Type
REMARK                         _______ _______ _______ _____ _____    ______ ____
ROOT
ATOM      1  C   UNL     1       1.389   8.669  20.468  0.00  0.00    +0.000 C 
ENDROOT
BRANCH   1   2
ATOM      2  C   UNL     1       0.733   9.643  21.399  0.00  0.00    +0.000 A 
ATOM      3  N   UNL     1       0.469   9.228  22.634  0.00  0.00    +0.000 NA
ATOM      4  N   UNL     1      -0.482  10.020  23.175  0.00  0.00    +0.000 NA
ATOM      5  C   UNL     1      -0.714  10.986  22.326  0.00  0.00    +0.000 A 
ATOM      6  N   UNL     1      -1.681  11.958  22.453  0.00  0.00    +0.000 N 
ATOM      7  C   UNL     1      -2.671  11.928  23.508  0.00  0.00    +0.000 C 
ATOM      8  C   UNL     1      -1.628  13.065  21.633  0.00  0.00    +0.000 A 
ATOM      9  O   UNL     1      -2.470  13.960  21.651  0.00  0.00    +0.000 OA
ATOM     10  C   UNL     1      -0.453  13.187  20.741  0.00  0.00    +0.000 A 
ATOM     11  C   UNL     1      -0.205  14.471  20.234  0.00  0.00    +0.000 A 
ATOM     12  C   UNL     1       0.897  14.687  19.427  0.00  0.00    +0.000 A 
ATOM     13  C   UNL     1       1.724  13.610  19.112  0.00  0.00    +0.000 A 
ATOM     14 CL   UNL     1       3.081  13.946  18.107  0.00  0.00    +0.000 Cl
ATOM     15  C   UNL     1       1.501  12.312  19.633  0.00  0.00    +0.000 A 
ATOM     16  C   UNL     1       0.412  12.096  20.482  0.00  0.00    +0.000 A 
ATOM     17  N   UNL     1       0.194  10.927  21.268  0.00  0.00    +0.000 N 
ENDBRANCH   1   2
BRANCH   1  18
ATOM     18  S   UNL     1       1.365   6.930  20.833  0.00  0.00    +0.000 S 
BRANCH  18  20
ATOM     19  N   UNL     1       1.879   4.820  19.346  0.00  0.00    +0.000 N 
ATOM     20  C   UNL     1       2.397   6.054  19.737  0.00  0.00    +0.000 A 
ATOM     21  N   UNL     1       3.518   6.531  19.288  0.00  0.00    +0.000 NA
ATOM     22  C   UNL     1       4.230   5.750  18.335  0.00  0.00    +0.000 A 
ATOM     23  C   UNL     1       5.532   6.068  17.933  0.00  0.00    +0.000 A 
ATOM     24  C   UNL     1       6.194   5.322  16.918  0.00  0.00    +0.000 A 
ATOM     25  C   UNL     1       5.562   4.258  16.301  0.00  0.00    +0.000 A 
ATOM     26  C   UNL     1       4.282   3.912  16.713  0.00  0.00    +0.000 A 
ATOM     27  C   UNL     1       3.645   4.653  17.728  0.00  0.00    +0.000 A 
ATOM     28  C   UNL     1       2.367   4.183  18.227  0.00  0.00    +0.000 A 
ATOM     29  O   UNL     1       1.821   3.235  17.693  0.00  0.00    +0.000 OA
BRANCH  19  31
ATOM     30  C   UNL     1       1.653   3.225  21.201  0.00  0.00    +0.000 C 
ATOM     31  C   UNL     1       0.914   4.019  20.121  0.00  0.00    +0.000 C 
ENDBRANCH  19  31
BRANCH  25  32
ATOM     32  O   UNL     1       6.023   3.451  15.303  0.00  0.00    +0.000 OA
ATOM     33  C   UNL     1       6.026   3.917  13.964  0.00  0.00    +0.000 C 
ENDBRANCH  25  32
ENDBRANCH  18  20
ENDBRANCH   1  18
TORSDOF 5
ENDMDL
MODEL 2
REMARK VINA RESULT:      -8.5      2.929      3.212
REMARK  Name = 
REMARK  8 active torsions:
REMARK  status: ('A' for Active; 'I' for Inactive)
REMARK    1  A    between atoms: C_1  and  C_2
REMARK    2  A    between atoms: C_2  and  N_3
REMARK    3  A    between atoms: C_4  and  S_5
REMARK    4  A    between atoms: S_5  and  C_6
REMARK    5  A    between atoms: C_6  and  C_7
REMARK    6  A    between atoms: N_11  and  C_12
REMARK    7  A    between atoms: C_27  and  O_28
REMARK    8  A    between atoms: O_28  and  C_29
REMARK                            x       y       z     vdW  Elec       q    Type
REMARK                         _______ _______ _______ _____ _____    ______ ____
ROOT
ATOM      1  C   UNL     1       1.039   9.410  18.430  0.00  0.00    +0.000 C 
ENDROOT
BRANCH   1   2
ATOM      2  C   UNL     1       0.311  10.597  18.983  0.00  0.00    +0.000 A 
ATOM      3  N   UNL     1       0.991  11.422  19.772  0.00  0.00    +0.000 NA
ATOM      4  N   UNL     1       0.123  12.143  20.515  0.00  0.00    +0.000 NA
ATOM      5  C   UNL     1      -1.081  11.852  20.099  0.00  0.00    +0.000 A 
ATOM      6  N   UNL     1      -2.258  12.302  20.654  0.00  0.00    +0.000 N 
ATOM      7  C   UNL     1      -2.289  13.060  21.887  0.00  0.00    +0.000 C 
ATOM      8  C   UNL     1      -3.433  12.143  19.951  0.00  0.00    +0.000 A 
ATOM      9  O   UNL     1      -4.532  12.480  20.386  0.00  0.00    +0.000 OA
ATOM     10  C   UNL     1      -3.328  11.597  18.579  0.00  0.00    +0.000 A 
ATOM     11  C   UNL     1      -4.436  11.822  17.748  0.00  0.00    +0.000 A 
ATOM     12  C   UNL     1      -4.407  11.385  16.437  0.00  0.00    +0.000 A 
ATOM     13  C   UNL     1      -3.282  10.701  15.977  0.00  0.00    +0.000 A 
ATOM     14 CL   UNL     1      -3.308  10.188  14.335  0.00  0.00    +0.000 Cl
ATOM     15  C   UNL     1      -2.146  10.486  16.796  0.00  0.00    +0.000 A 
ATOM     16  C   UNL     1      -2.153  10.961  18.110  0.00  0.00    +0.000 A 
ATOM     17  N   UNL     1      -1.017  11.037  18.968  0.00  0.00    +0.000 N 
ENDBRANCH   1   2
BRANCH   1  18
ATOM     18  S   UNL     1       1.687   8.170  19.527  0.00  0.00    +0.000 S 
BRANCH  18  20
ATOM     19  N   UNL     1       2.323   5.748  18.717  0.00  0.00    +0.000 N 
ATOM     20  C   UNL     1       2.740   7.078  18.672  0.00  0.00    +0.000 A 
ATOM     21  N   UNL     1       3.786   7.475  18.012  0.00  0.00    +0.000 NA
ATOM     22  C   UNL     1       4.518   6.493  17.290  0.00  0.00    +0.000 A 
ATOM     23  C   UNL     1       5.762   6.767  16.709  0.00  0.00    +0.000 A 
ATOM     24  C   UNL     1       6.439   5.795  15.920  0.00  0.00    +0.000 A 
ATOM     25  C   UNL     1       5.881   4.548  15.708  0.00  0.00    +0.000 A 
ATOM     26  C   UNL     1       4.662   4.252  16.305  0.00  0.00    +0.000 A 
ATOM     27  C   UNL     1       4.011   5.221  17.093  0.00  0.00    +0.000 A 
ATOM     28  C   UNL     1       2.811   4.834  17.811  0.00  0.00    +0.000 A 
ATOM     29  O   UNL     1       2.332   3.729  17.635  0.00  0.00    +0.000 OA
BRANCH  19  31
ATOM     30  C   UNL     1       2.362   4.683  20.931  0.00  0.00    +0.000 C 
ATOM     31  C   UNL     1       1.480   5.157  19.774  0.00  0.00    +0.000 C 
ENDBRANCH  19  31
BRANCH  25  32
ATOM     32  O   UNL     1       6.364   3.508  14.970  0.00  0.00    +0.000 OA
ATOM     33  C   UNL     1       6.214   3.514  13.560  0.00  0.00    +0.000 C 
ENDBRANCH  25  32
ENDBRANCH  18  20
ENDBRANCH   1  18
TORSDOF 5
ENDMDL
MODEL 3
REMARK VINA RESULT:      -8.1      1.095      1.164
REMARK  Name = 
REMARK  8 active torsions:
REMARK  status: ('A' for Active; 'I' for Inactive)
REMARK    1  A    between atoms: C_1  and  C_2
REMARK    2  A    between atoms: C_2  and  N_3
REMARK    3  A    between atoms: C_4  and  S_5
REMARK    4  A    between atoms: S_5  and  C_6
REMARK    5  A    between atoms: C_6  and  C_7
REMARK    6  A    between atoms: N_11  and  C_12
REMARK    7  A    between atoms: C_27  and  O_28
REMARK    8  A    between atoms: O_28  and  C_29
REMARK                            x       y       z     vdW  Elec       q    Type
REMARK                         _______ _______ _______ _____ _____    ______ ____
ROOT
ATOM      1  C   UNL     1       1.363   9.024  19.609  0.00  0.00    +0.000 C 
ENDROOT
BRANCH   1   2
ATOM      2  C   UNL     1       0.656  10.032  20.464  0.00  0.00    +0.000 A 
ATOM      3  N   UNL     1       0.105   9.601  21.593  0.00  0.00    +0.000 NA
ATOM      4  N   UNL     1      -0.833  10.485  21.996  0.00  0.00    +0.000 NA
ATOM      5  C   UNL     1      -0.774  11.511  21.188  0.00  0.00    +0.000 A 
ATOM      6  N   UNL     1      -1.623  12.594  21.196  0.00  0.00    +0.000 N 
ATOM      7  C   UNL     1      -2.799  12.647  22.038  0.00  0.00    +0.000 C 
ATOM      8  C   UNL     1      -1.277  13.720  20.480  0.00  0.00    +0.000 A 
ATOM      9  O   UNL     1      -1.992  14.717  20.400  0.00  0.00    +0.000 OA
ATOM     10  C   UNL     1       0.058  13.728  19.840  0.00  0.00    +0.000 A 
ATOM     11  C   UNL     1       0.554  14.990  19.481  0.00  0.00    +0.000 A 
ATOM     12  C   UNL     1       1.811  15.095  18.917  0.00  0.00    +0.000 A 
ATOM     13  C   UNL     1       2.550  13.934  18.691  0.00  0.00    +0.000 A 
ATOM     14 CL   UNL     1       4.109  14.134  17.990  0.00  0.00    +0.000 Cl
ATOM     15  C   UNL     1       2.074  12.654  19.068  0.00  0.00    +0.000 A 
ATOM     16  C   UNL     1       0.820  12.545  19.676  0.00  0.00    +0.000 A 
ATOM     17  N   UNL     1       0.312  11.381  20.322  0.00  0.00    +0.000 N 
ENDBRANCH   1   2
BRANCH   1  18
ATOM     18  S   UNL     1       1.682   7.391  20.235  0.00  0.00    +0.000 S 
BRANCH  18  20
ATOM     19  N   UNL     1       2.790   5.146  19.423  0.00  0.00    +0.000 N 
ATOM     20  C   UNL     1       2.738   6.514  19.162  0.00  0.00    +0.000 A 
ATOM     21  N   UNL     1       3.375   7.078  18.181  0.00  0.00    +0.000 NA
ATOM     22  C   UNL     1       4.143   6.237  17.328  0.00  0.00    +0.000 A 
ATOM     23  C   UNL     1       5.021   6.751  16.367  0.00  0.00    +0.000 A 
ATOM     24  C   UNL     1       5.716   5.894  15.469  0.00  0.00    +0.000 A 
ATOM     25  C   UNL     1       5.541   4.523  15.526  0.00  0.00    +0.000 A 
ATOM     26  C   UNL     1       4.698   3.998  16.496  0.00  0.00    +0.000 A 
ATOM     27  C   UNL     1       4.026   4.860  17.386  0.00  0.00    +0.000 A 
ATOM     28  C   UNL     1       3.263   4.272  18.470  0.00  0.00    +0.000 A 
ATOM     29  O   UNL     1       3.125   3.064  18.528  0.00  0.00    +0.000 OA
BRANCH  19  31
ATOM     30  C   UNL     1       1.143   3.830  20.685  0.00  0.00    +0.000 C 
ATOM     31  C   UNL     1       2.509   4.518  20.728  0.00  0.00    +0.000 C 
ENDBRANCH  19  31
BRANCH  25  32
ATOM     32  O   UNL     1       6.097   3.557  14.741  0.00  0.00    +0.000 OA
ATOM     33  C   UNL     1       6.131   3.723  13.333  0.00  0.00    +0.000 C 
ENDBRANCH  25  32
ENDBRANCH  18  20
ENDBRANCH   1  18
TORSDOF 5
ENDMDL
MODEL 4
REMARK VINA RESULT:      -8.0      3.686     10.095
REMARK  Name = 
REMARK  8 active torsions:
REMARK  status: ('A' for Active; 'I' for Inactive)
REMARK    1  A    between atoms: C_1  and  C_2
REMARK    2  A    between atoms: C_2  and  N_3
REMARK    3  A    between atoms: C_4  and  S_5
REMARK    4  A    between atoms: S_5  and  C_6
REMARK    5  A    between atoms: C_6  and  C_7
REMARK    6  A    between atoms: N_11  and  C_12
REMARK    7  A    between atoms: C_27  and  O_28
REMARK    8  A    between atoms: O_28  and  C_29
REMARK                            x       y       z     vdW  Elec       q    Type
REMARK                         _______ _______ _______ _____ _____    ______ ____
ROOT
ATOM      1  C   UNL     1       1.838   7.952  18.415  0.00  0.00    +0.000 C 
ENDROOT
BRANCH   1   2
ATOM      2  C   UNL     1       3.109   7.257  18.032  0.00  0.00    +0.000 A 
ATOM      3  N   UNL     1       4.149   8.016  17.704  0.00  0.00    +0.000 NA
ATOM      4  N   UNL     1       5.024   7.282  16.982  0.00  0.00    +0.000 NA
ATOM      5  C   UNL     1       4.585   6.051  16.972  0.00  0.00    +0.000 A 
ATOM      6  N   UNL     1       5.136   5.003  16.270  0.00  0.00    +0.000 N 
ATOM      7  C   UNL     1       6.216   5.191  15.325  0.00  0.00    +0.000 C 
ATOM      8  C   UNL     1       4.742   3.717  16.569  0.00  0.00    +0.000 A 
ATOM      9  O   UNL     1       5.152   2.726  15.968  0.00  0.00    +0.000 OA
ATOM     10  C   UNL     1       3.826   3.543  17.720  0.00  0.00    +0.000 A 
ATOM     11  C   UNL     1       3.764   2.250  18.258  0.00  0.00    +0.000 A 
ATOM     12  C   UNL     1       2.969   2.006  19.362  0.00  0.00    +0.000 A 
ATOM     13  C   UNL     1       2.219   3.052  19.899  0.00  0.00    +0.000 A 
ATOM     14 CL   UNL     1       1.253   2.684  21.275  0.00  0.00    +0.000 Cl
ATOM     15  C   UNL     1       2.288   4.369  19.382  0.00  0.00    +0.000 A 
ATOM     16  C   UNL     1       3.122   4.631  18.291  0.00  0.00    +0.000 A 
ATOM     17  N   UNL     1       3.481   5.926  17.816  0.00  0.00    +0.000 N 
ENDBRANCH   1   2
BRANCH   1  18
ATOM     18  S   UNL     1       1.645   9.692  18.105  0.00  0.00    +0.000 S 
BRANCH  18  20
ATOM     19  N   UNL     1      -0.233  10.801  19.579  0.00  0.00    +0.000 N 
ATOM     20  C   UNL     1      -0.009  10.183  18.349  0.00  0.00    +0.000 A 
ATOM     21  N   UNL     1      -0.931  10.033  17.447  0.00  0.00    +0.000 NA
ATOM     22  C   UNL     1      -2.224  10.549  17.739  0.00  0.00    +0.000 A 
ATOM     23  C   UNL     1      -3.336  10.274  16.934  0.00  0.00    +0.000 A 
ATOM     24  C   UNL     1      -4.602  10.868  17.197  0.00  0.00    +0.000 A 
ATOM     25  C   UNL     1      -4.766  11.735  18.262  0.00  0.00    +0.000 A 
ATOM     26  C   UNL     1      -3.679  11.991  19.088  0.00  0.00    +0.000 A 
ATOM     27  C   UNL     1      -2.435  11.386  18.820  0.00  0.00    +0.000 A 
ATOM     28  C   UNL     1      -1.360  11.566  19.778  0.00  0.00    +0.000 A 
ATOM     29  O   UNL     1      -1.513  12.317  20.724  0.00  0.00    +0.000 OA
BRANCH  19  31
ATOM     30  C   UNL     1       0.095   9.346  21.531  0.00  0.00    +0.000 C 
ATOM     31  C   UNL     1       0.578  10.597  20.793  0.00  0.00    +0.000 C 
ENDBRANCH  19  31
BRANCH  25  32
ATOM     32  O   UNL     1      -5.885  12.411  18.651  0.00  0.00    +0.000 OA
ATOM     33  C   UNL     1      -7.054  12.360  17.851  0.00  0.00    +0.000 C 
ENDBRANCH  25  32
ENDBRANCH  18  20
ENDBRANCH   1  18
TORSDOF 5
ENDMDL
MODEL 5
REMARK VINA RESULT:      -7.8      3.090      4.684
REMARK  Name = 
REMARK  8 active torsions:
REMARK  status: ('A' for Active; 'I' for Inactive)
REMARK    1  A    between atoms: C_1  and  C_2
REMARK    2  A    between atoms: C_2  and  N_3
REMARK    3  A    between atoms: C_4  and  S_5
REMARK    4  A    between atoms: S_5  and  C_6
REMARK    5  A    between atoms: C_6  and  C_7
REMARK    6  A    between atoms: N_11  and  C_12
REMARK    7  A    between atoms: C_27  and  O_28
REMARK    8  A    between atoms: O_28  and  C_29
REMARK                            x       y       z     vdW  Elec       q    Type
REMARK                         _______ _______ _______ _____ _____    ______ ____
ROOT
ATOM      1  C   UNL     1       0.502  12.032  21.520  0.00  0.00    +0.000 C 
ENDROOT
BRANCH   1   2
ATOM      2  C   UNL     1      -0.278  13.197  22.049  0.00  0.00    +0.000 A 
ATOM      3  N   UNL     1       0.406  14.187  22.613  0.00  0.00    +0.000 NA
ATOM      4  N   UNL     1      -0.421  14.904  23.405  0.00  0.00    +0.000 NA
ATOM      5  C   UNL     1      -1.628  14.432  23.235  0.00  0.00    +0.000 A 
ATOM      6  N   UNL     1      -2.752  14.824  23.927  0.00  0.00    +0.000 N 
ATOM      7  C   UNL     1      -2.689  15.731  25.052  0.00  0.00    +0.000 C 
ATOM      8  C   UNL     1      -3.992  14.448  23.455  0.00  0.00    +0.000 A 
ATOM      9  O   UNL     1      -5.044  14.720  24.029  0.00  0.00    +0.000 OA
ATOM     10  C   UNL     1      -4.032  13.739  22.157  0.00  0.00    +0.000 A 
ATOM     11  C   UNL     1      -5.275  13.731  21.505  0.00  0.00    +0.000 A 
ATOM     12  C   UNL     1      -5.394  13.130  20.267  0.00  0.00    +0.000 A 
ATOM     13  C   UNL     1      -4.276  12.515  19.704  0.00  0.00    +0.000 A 
ATOM     14 CL   UNL     1      -4.490  11.788  18.159  0.00  0.00    +0.000 Cl
ATOM     15  C   UNL     1      -3.009  12.533  20.337  0.00  0.00    +0.000 A 
ATOM     16  C   UNL     1      -2.873  13.176  21.570  0.00  0.00    +0.000 A 
ATOM     17  N   UNL     1      -1.637  13.486  22.210  0.00  0.00    +0.000 N 
ENDBRANCH   1   2
BRANCH   1  18
ATOM     18  S   UNL     1      -0.209  10.402  21.533  0.00  0.00    +0.000 S 
BRANCH  18  20
ATOM     19  N   UNL     1       0.809   9.820  19.177  0.00  0.00    +0.000 N 
ATOM     20  C   UNL     1       0.672   9.334  20.476  0.00  0.00    +0.000 A 
ATOM     21  N   UNL     1       1.196   8.216  20.878  0.00  0.00    +0.000 NA
ATOM     22  C   UNL     1       1.960   7.473  19.936  0.00  0.00    +0.000 A 
ATOM     23  C   UNL     1       2.402   6.170  20.195  0.00  0.00    +0.000 A 
ATOM     24  C   UNL     1       3.236   5.477  19.274  0.00  0.00    +0.000 A 
ATOM     25  C   UNL     1       3.629   6.076  18.092  0.00  0.00    +0.000 A 
ATOM     26  C   UNL     1       3.171   7.356  17.807  0.00  0.00    +0.000 A 
ATOM     27  C   UNL     1       2.337   8.025  18.725  0.00  0.00    +0.000 A 
ATOM     28  C   UNL     1       1.768   9.301  18.336  0.00  0.00    +0.000 A 
ATOM     29  O   UNL     1       2.104   9.818  17.287  0.00  0.00    +0.000 OA
BRANCH  19  31
ATOM     30  C   UNL     1      -1.288  10.034  17.915  0.00  0.00    +0.000 C 
ATOM     31  C   UNL     1      -0.102  10.782  18.528  0.00  0.00    +0.000 C 
ENDBRANCH  19  31
BRANCH  25  32
ATOM     32  O   UNL     1       4.436   5.582  17.109  0.00  0.00    +0.000 OA
ATOM     33  C   UNL     1       5.002   6.462  16.152  0.00  0.00    +0.000 C 
ENDBRANCH  25  32
ENDBRANCH  18  20
ENDBRANCH   1  18
TORSDOF 5
ENDMDL
MODEL 6
REMARK VINA RESULT:      -7.7      2.051      3.074
REMARK  Name = 
REMARK  8 active torsions:
REMARK  status: ('A' for Active; 'I' for Inactive)
REMARK    1  A    between atoms: C_1  and  C_2
REMARK    2  A    between atoms: C_2  and  N_3
REMARK    3  A    between atoms: C_4  and  S_5
REMARK    4  A    between atoms: S_5  and  C_6
REMARK    5  A    between atoms: C_6  and  C_7
REMARK    6  A    between atoms: N_11  and  C_12
REMARK    7  A    between atoms: C_27  and  O_28
REMARK    8  A    between atoms: O_28  and  C_29
REMARK                            x       y       z     vdW  Elec       q    Type
REMARK                         _______ _______ _______ _____ _____    ______ ____
ROOT
ATOM      1  C   UNL     1       1.449   8.231  21.133  0.00  0.00    +0.000 C 
ENDROOT
BRANCH   1   2
ATOM      2  C   UNL     1       1.301   9.344  20.140  0.00  0.00    +0.000 A 
ATOM      3  N   UNL     1       1.620   9.085  18.876  0.00  0.00    +0.000 NA
ATOM      4  N   UNL     1       1.858  10.248  18.231  0.00  0.00    +0.000 NA
ATOM      5  C   UNL     1       1.570  11.218  19.057  0.00  0.00    +0.000 A 
ATOM      6  N   UNL     1       1.760  12.561  18.823  0.00  0.00    +0.000 N 
ATOM      7  C   UNL     1       2.455  13.049  17.651  0.00  0.00    +0.000 C 
ATOM      8  C   UNL     1       1.159  13.478  19.659  0.00  0.00    +0.000 A 
ATOM      9  O   UNL     1       1.306  14.693  19.547  0.00  0.00    +0.000 OA
ATOM     10  C   UNL     1       0.243  12.946  20.693  0.00  0.00    +0.000 A 
ATOM     11  C   UNL     1      -0.654  13.872  21.245  0.00  0.00    +0.000 A 
ATOM     12  C   UNL     1      -1.576  13.454  22.187  0.00  0.00    +0.000 A 
ATOM     13  C   UNL     1      -1.572  12.118  22.590  0.00  0.00    +0.000 A 
ATOM     14 CL   UNL     1      -2.746  11.661  23.761  0.00  0.00    +0.000 Cl
ATOM     15  C   UNL     1      -0.688  11.166  22.026  0.00  0.00    +0.000 A 
ATOM     16  C   UNL     1       0.218  11.574  21.044  0.00  0.00    +0.000 A 
ATOM     17  N   UNL     1       0.993  10.706  20.220  0.00  0.00    +0.000 N 
ENDBRANCH   1   2
BRANCH   1  18
ATOM     18  S   UNL     1       0.930   6.584  20.711  0.00  0.00    +0.000 S 
BRANCH  18  20
ATOM     19  N   UNL     1       1.732   4.529  19.275  0.00  0.00    +0.000 N 
ATOM     20  C   UNL     1       2.088   5.822  19.656  0.00  0.00    +0.000 A 
ATOM     21  N   UNL     1       3.155   6.425  19.225  0.00  0.00    +0.000 NA
ATOM     22  C   UNL     1       3.979   5.720  18.304  0.00  0.00    +0.000 A 
ATOM     23  C   UNL     1       5.244   6.187  17.928  0.00  0.00    +0.000 A 
ATOM     24  C   UNL     1       6.017   5.511  16.942  0.00  0.00    +0.000 A 
ATOM     25  C   UNL     1       5.533   4.369  16.330  0.00  0.00    +0.000 A 
ATOM     26  C   UNL     1       4.293   3.878  16.717  0.00  0.00    +0.000 A 
ATOM     27  C   UNL     1       3.546   4.553  17.703  0.00  0.00    +0.000 A 
ATOM     28  C   UNL     1       2.321   3.939  18.179  0.00  0.00    +0.000 A 
ATOM     29  O   UNL     1       1.907   2.924  17.650  0.00  0.00    +0.000 OA
BRANCH  19  31
ATOM     30  C   UNL     1       1.635   2.996  21.192  0.00  0.00    +0.000 C 
ATOM     31  C   UNL     1       0.850   3.630  20.041  0.00  0.00    +0.000 C 
ENDBRANCH  19  31
BRANCH  25  32
ATOM     32  O   UNL     1       6.113   3.609  15.357  0.00  0.00    +0.000 OA
ATOM     33  C   UNL     1       6.303   4.148  14.059  0.00  0.00    +0.000 C 
ENDBRANCH  25  32
ENDBRANCH  18  20
ENDBRANCH   1  18
TORSDOF 5
ENDMDL
MODEL 7
REMARK VINA RESULT:      -7.7      2.893     10.191
REMARK  Name = 
REMARK  8 active torsions:
REMARK  status: ('A' for Active; 'I' for Inactive)
REMARK    1  A    between atoms: C_1  and  C_2
REMARK    2  A    between atoms: C_2  and  N_3
REMARK    3  A    between atoms: C_4  and  S_5
REMARK    4  A    between atoms: S_5  and  C_6
REMARK    5  A    between atoms: C_6  and  C_7
REMARK    6  A    between atoms: N_11  and  C_12
REMARK    7  A    between atoms: C_27  and  O_28
REMARK    8  A    between atoms: O_28  and  C_29
REMARK                            x       y       z     vdW  Elec       q    Type
REMARK                         _______ _______ _______ _____ _____    ______ ____
ROOT
ATOM      1  C   UNL     1       2.158   8.159  17.849  0.00  0.00    +0.000 C 
ENDROOT
BRANCH   1   2
ATOM      2  C   UNL     1       3.430   7.379  17.709  0.00  0.00    +0.000 A 
ATOM      3  N   UNL     1       4.570   8.063  17.695  0.00  0.00    +0.000 NA
ATOM      4  N   UNL     1       5.536   7.303  17.133  0.00  0.00    +0.000 NA
ATOM      5  C   UNL     1       5.024   6.120  16.916  0.00  0.00    +0.000 A 
ATOM      6  N   UNL     1       5.649   5.077  16.272  0.00  0.00    +0.000 N 
ATOM      7  C   UNL     1       6.932   5.229  15.620  0.00  0.00    +0.000 C 
ATOM      8  C   UNL     1       5.104   3.813  16.361  0.00  0.00    +0.000 A 
ATOM      9  O   UNL     1       5.573   2.833  15.787  0.00  0.00    +0.000 OA
ATOM     10  C   UNL     1       3.934   3.646  17.252  0.00  0.00    +0.000 A 
ATOM     11  C   UNL     1       3.654   2.330  17.648  0.00  0.00    +0.000 A 
ATOM     12  C   UNL     1       2.605   2.085  18.515  0.00  0.00    +0.000 A 
ATOM     13  C   UNL     1       1.827   3.156  18.954  0.00  0.00    +0.000 A 
ATOM     14 CL   UNL     1       0.540   2.784  20.034  0.00  0.00    +0.000 Cl
ATOM     15  C   UNL     1       2.109   4.493  18.581  0.00  0.00    +0.000 A 
ATOM     16  C   UNL     1       3.194   4.751  17.738  0.00  0.00    +0.000 A 
ATOM     17  N   UNL     1       3.746   6.038  17.470  0.00  0.00    +0.000 N 
ENDBRANCH   1   2
BRANCH   1  18
ATOM     18  S   UNL     1       2.196   9.936  17.856  0.00  0.00    +0.000 S 
BRANCH  18  20
ATOM     19  N   UNL     1       0.856  11.900  18.987  0.00  0.00    +0.000 N 
ATOM     20  C   UNL     1       1.236  10.570  19.164  0.00  0.00    +0.000 A 
ATOM     21  N   UNL     1       0.866   9.852  20.182  0.00  0.00    +0.000 NA
ATOM     22  C   UNL     1       0.016  10.466  21.143  0.00  0.00    +0.000 A 
ATOM     23  C   UNL     1      -0.283   9.860  22.369  0.00  0.00    +0.000 A 
ATOM     24  C   UNL     1      -1.201  10.452  23.281  0.00  0.00    +0.000 A 
ATOM     25  C   UNL     1      -1.823  11.649  22.975  0.00  0.00    +0.000 A 
ATOM     26  C   UNL     1      -1.510  12.277  21.777  0.00  0.00    +0.000 A 
ATOM     27  C   UNL     1      -0.590  11.683  20.890  0.00  0.00    +0.000 A 
ATOM     28  C   UNL     1      -0.185  12.429  19.715  0.00  0.00    +0.000 A 
ATOM     29  O   UNL     1      -0.722  13.491  19.458  0.00  0.00    +0.000 OA
BRANCH  19  31
ATOM     30  C   UNL     1       2.630  13.600  19.019  0.00  0.00    +0.000 C 
ATOM     31  C   UNL     1       1.579  12.887  18.164  0.00  0.00    +0.000 C 
ENDBRANCH  19  31
BRANCH  25  32
ATOM     32  O   UNL     1      -2.740  12.347  23.705  0.00  0.00    +0.000 OA
ATOM     33  C   UNL     1      -3.867  12.919  23.062  0.00  0.00    +0.000 C 
ENDBRANCH  25  32
ENDBRANCH  18  20
ENDBRANCH   1  18
TORSDOF 5
ENDMDL
MODEL 8
REMARK VINA RESULT:      -7.7      2.780      9.299
REMARK  Name = 
REMARK  8 active torsions:
REMARK  status: ('A' for Active; 'I' for Inactive)
REMARK    1  A    between atoms: C_1  and  C_2
REMARK    2  A    between atoms: C_2  and  N_3
REMARK    3  A    between atoms: C_4  and  S_5
REMARK    4  A    between atoms: S_5  and  C_6
REMARK    5  A    between atoms: C_6  and  C_7
REMARK    6  A    between atoms: N_11  and  C_12
REMARK    7  A    between atoms: C_27  and  O_28
REMARK    8  A    between atoms: O_28  and  C_29
REMARK                            x       y       z     vdW  Elec       q    Type
REMARK                         _______ _______ _______ _____ _____    ______ ____
ROOT
ATOM      1  C   UNL     1       1.953   8.192  19.821  0.00  0.00    +0.000 C 
ENDROOT
BRANCH   1   2
ATOM      2  C   UNL     1       1.928   6.696  19.891  0.00  0.00    +0.000 A 
ATOM      3  N   UNL     1       0.904   6.127  20.519  0.00  0.00    +0.000 NA
ATOM      4  N   UNL     1       1.244   4.870  20.875  0.00  0.00    +0.000 NA
ATOM      5  C   UNL     1       2.422   4.625  20.365  0.00  0.00    +0.000 A 
ATOM      6  N   UNL     1       3.169   3.487  20.569  0.00  0.00    +0.000 N 
ATOM      7  C   UNL     1       2.778   2.466  21.517  0.00  0.00    +0.000 C 
ATOM      8  C   UNL     1       4.255   3.245  19.754  0.00  0.00    +0.000 A 
ATOM      9  O   UNL     1       4.999   2.276  19.889  0.00  0.00    +0.000 OA
ATOM     10  C   UNL     1       4.472   4.180  18.627  0.00  0.00    +0.000 A 
ATOM     11  C   UNL     1       5.297   3.708  17.595  0.00  0.00    +0.000 A 
ATOM     12  C   UNL     1       5.520   4.496  16.482  0.00  0.00    +0.000 A 
ATOM     13  C   UNL     1       4.940   5.764  16.425  0.00  0.00    +0.000 A 
ATOM     14 CL   UNL     1       5.253   6.694  15.011  0.00  0.00    +0.000 Cl
ATOM     15  C   UNL     1       4.087   6.247  17.447  0.00  0.00    +0.000 A 
ATOM     16  C   UNL     1       3.824   5.437  18.556  0.00  0.00    +0.000 A 
ATOM     17  N   UNL     1       2.815   5.675  19.534  0.00  0.00    +0.000 N 
ENDBRANCH   1   2
BRANCH   1  18
ATOM     18  S   UNL     1       1.746   9.017  18.260  0.00  0.00    +0.000 S 
BRANCH  18  20
ATOM     19  N   UNL     1       0.178  10.980  19.045  0.00  0.00    +0.000 N 
ATOM     20  C   UNL     1       1.431  10.714  18.494  0.00  0.00    +0.000 A 
ATOM     21  N   UNL     1       2.303  11.638  18.227  0.00  0.00    +0.000 NA
ATOM     22  C   UNL     1       1.952  12.981  18.537  0.00  0.00    +0.000 A 
ATOM     23  C   UNL     1       2.725  14.071  18.117  0.00  0.00    +0.000 A 
ATOM     24  C   UNL     1       2.402  15.400  18.509  0.00  0.00    +0.000 A 
ATOM     25  C   UNL     1       1.309  15.649  19.319  0.00  0.00    +0.000 A 
ATOM     26  C   UNL     1       0.516  14.580  19.717  0.00  0.00    +0.000 A 
ATOM     27  C   UNL     1       0.843  13.271  19.310  0.00  0.00    +0.000 A 
ATOM     28  C   UNL     1      -0.081  12.200  19.629  0.00  0.00    +0.000 A 
ATOM     29  O   UNL     1      -1.052  12.425  20.328  0.00  0.00    +0.000 OA
BRANCH  19  31
ATOM     30  C   UNL     1      -1.707  10.346  17.603  0.00  0.00    +0.000 C 
ATOM     31  C   UNL     1      -1.001  10.101  18.939  0.00  0.00    +0.000 C 
ENDBRANCH  19  31
BRANCH  25  32
ATOM     32  O   UNL     1       0.863  16.840  19.812  0.00  0.00    +0.000 OA
ATOM     33  C   UNL     1       1.395  18.055  19.311  0.00  0.00    +0.000 C 
ENDBRANCH  25  32
ENDBRANCH  18  20
ENDBRANCH   1  18
TORSDOF 5
ENDMDL
MODEL 9
REMARK VINA RESULT:      -7.7      2.984      4.588
REMARK  Name = 
REMARK  8 active torsions:
REMARK  status: ('A' for Active; 'I' for Inactive)
REMARK    1  A    between atoms: C_1  and  C_2
REMARK    2  A    between atoms: C_2  and  N_3
REMARK    3  A    between atoms: C_4  and  S_5
REMARK    4  A    between atoms: S_5  and  C_6
REMARK    5  A    between atoms: C_6  and  C_7
REMARK    6  A    between atoms: N_11  and  C_12
REMARK    7  A    between atoms: C_27  and  O_28
REMARK    8  A    between atoms: O_28  and  C_29
REMARK                            x       y       z     vdW  Elec       q    Type
REMARK                         _______ _______ _______ _____ _____    ______ ____
ROOT
ATOM      1  C   UNL     1      -0.737  10.674  21.579  0.00  0.00    +0.000 C 
ENDROOT
BRANCH   1   2
ATOM      2  C   UNL     1      -1.222  11.975  22.143  0.00  0.00    +0.000 A 
ATOM      3  N   UNL     1      -0.360  12.694  22.854  0.00  0.00    +0.000 NA
ATOM      4  N   UNL     1      -1.043  13.562  23.633  0.00  0.00    +0.000 NA
ATOM      5  C   UNL     1      -2.306  13.461  23.314  0.00  0.00    +0.000 A 
ATOM      6  N   UNL     1      -3.350  14.108  23.936  0.00  0.00    +0.000 N 
ATOM      7  C   UNL     1      -3.166  14.886  25.142  0.00  0.00    +0.000 C 
ATOM      8  C   UNL     1      -4.585  14.127  23.324  0.00  0.00    +0.000 A 
ATOM      9  O   UNL     1      -5.580  14.647  23.825  0.00  0.00    +0.000 OA
ATOM     10  C   UNL     1      -4.673  13.543  21.967  0.00  0.00    +0.000 A 
ATOM     11  C   UNL     1      -5.790  13.927  21.210  0.00  0.00    +0.000 A 
ATOM     12  C   UNL     1      -5.931  13.465  19.916  0.00  0.00    +0.000 A 
ATOM     13  C   UNL     1      -4.968  12.598  19.399  0.00  0.00    +0.000 A 
ATOM     14 CL   UNL     1      -5.200  12.061  17.780  0.00  0.00    +0.000 Cl
ATOM     15  C   UNL     1      -3.823  12.218  20.141  0.00  0.00    +0.000 A 
ATOM     16  C   UNL     1      -3.654  12.715  21.436  0.00  0.00    +0.000 A 
ATOM     17  N   UNL     1      -2.459  12.624  22.208  0.00  0.00    +0.000 N 
ENDBRANCH   1   2
BRANCH   1  18
ATOM     18  S   UNL     1       1.005  10.333  21.493  0.00  0.00    +0.000 S 
BRANCH  18  20
ATOM     19  N   UNL     1       1.507   9.170  19.185  0.00  0.00    +0.000 N 
ATOM     20  C   UNL     1       1.310   8.907  20.540  0.00  0.00    +0.000 A 
ATOM     21  N   UNL     1       1.397   7.718  21.055  0.00  0.00    +0.000 NA
ATOM     22  C   UNL     1       1.729   6.646  20.180  0.00  0.00    +0.000 A 
ATOM     23  C   UNL     1       1.657   5.307  20.581  0.00  0.00    +0.000 A 
ATOM     24  C   UNL     1       2.074   4.255  19.718  0.00  0.00    +0.000 A 
ATOM     25  C   UNL     1       2.561   4.533  18.453  0.00  0.00    +0.000 A 
ATOM     26  C   UNL     1       2.607   5.855  18.032  0.00  0.00    +0.000 A 
ATOM     27  C   UNL     1       2.179   6.884  18.895  0.00  0.00    +0.000 A 
ATOM     28  C   UNL     1       2.113   8.236  18.375  0.00  0.00    +0.000 A 
ATOM     29  O   UNL     1       2.526   8.475  17.255  0.00  0.00    +0.000 OA
BRANCH  19  31
ATOM     30  C   UNL     1      -0.453  10.067  18.005  0.00  0.00    +0.000 C 
ATOM     31  C   UNL     1       0.981  10.344  18.462  0.00  0.00    +0.000 C 
ENDBRANCH  19  31
BRANCH  25  32
ATOM     32  O   UNL     1       3.024   3.668  17.506  0.00  0.00    +0.000 OA
ATOM     33  C   UNL     1       4.385   3.719  17.109  0.00  0.00    +0.000 C 
ENDBRANCH  25  32
ENDBRANCH  18  20
ENDBRANCH   1  18
TORSDOF 5
ENDMDL
