MODEL 1
REMARK VINA RESULT:      -8.2      0.000      0.000
REMARK  Name = 
REMARK  6 active torsions:
REMARK  status: ('A' for Active; 'I' for Inactive)
REMARK    1  A    between atoms: N_3  and  C_4
REMARK    2  A    between atoms: C_4  and  C_5
REMARK    3  A    between atoms: C_5  and  O_6
REMARK    4  A    between atoms: C_5  and  C_7
REMARK    5  A    between atoms: C_7  and  N_8
REMARK    6  A    between atoms: N_18  and  C_19
REMARK                            x       y       z     vdW  Elec       q    Type
REMARK                         _______ _______ _______ _____ _____    ______ ____
ROOT
ATOM      1  C   UNL     1       5.908   5.909  17.721  0.00  0.00    +0.000 C 
ENDROOT
BRANCH   1   2
ATOM      2  O   UNL     1       6.183   5.881  19.132  0.00  0.00    +0.000 OA
ATOM      3  H   UNL     1       6.015   6.775  19.477  0.00  0.00    +0.000 HD
ENDBRANCH   1   2
BRANCH   1   4
ATOM      4  C   UNL     1       7.191   6.310  17.000  0.00  0.00    +0.000 C 
BRANCH   4   7
ATOM      5  O   UNL     1       8.724   7.598  18.841  0.00  0.00    +0.000 OA
ATOM      6  C   UNL     1       8.191   8.296  17.986  0.00  0.00    +0.000 C 
ATOM      7  N   UNL     1       7.352   7.753  17.048  0.00  0.00    +0.000 N 
ATOM      8  N   UNL     1       8.300   9.654  17.851  0.00  0.00    +0.000 N 
ATOM      9  H   UNL     1       7.367   8.206  16.139  0.00  0.00    +0.000 HD
ATOM     10  H   UNL     1       7.566  10.104  17.326  0.00  0.00    +0.000 HD
BRANCH   8  11
ATOM     11  C   UNL     1       9.174  10.486  18.582  0.00  0.00    +0.000 A 
ATOM     12  C   UNL     1      10.140  11.288  17.956  0.00  0.00    +0.000 A 
ATOM     13  C   UNL     1      10.971  12.112  18.710  0.00  0.00    +0.000 A 
ATOM     14  C   UNL     1      10.850  12.151  20.095  0.00  0.00    +0.000 A 
ATOM     15  C   UNL     1       9.891  11.360  20.728  0.00  0.00    +0.000 A 
ATOM     16  C   UNL     1       9.050  10.534  19.976  0.00  0.00    +0.000 A 
ENDBRANCH   8  11
ENDBRANCH   4   7
ENDBRANCH   1   4
BRANCH   1  17
ATOM     17  C   UNL     1       4.744   6.872  17.376  0.00  0.00    +0.000 C 
BRANCH  17  18
ATOM     18  N   UNL     1       3.410   6.295  17.621  0.00  0.00    +0.000 NA
ATOM     19  C   UNL     1       2.741   6.872  18.805  0.00  0.00    +0.000 C 
ATOM     20  C   UNL     1       2.692   5.980  20.052  0.00  0.00    +0.000 C 
ATOM     21  C   UNL     1       2.028   4.692  19.670  0.00  0.00    +0.000 A 
ATOM     22  C   UNL     1       1.092   4.062  20.495  0.00  0.00    +0.000 A 
ATOM     23  C   UNL     1       0.475   2.892  20.062  0.00  0.00    +0.000 A 
ATOM     24  C   UNL     1       0.795   2.349  18.818  0.00  0.00    +0.000 A 
ATOM     25  C   UNL     1       1.747   2.966  18.000  0.00  0.00    +0.000 A 
ATOM     26  C   UNL     1       2.364   4.144  18.419  0.00  0.00    +0.000 A 
ATOM     27  C   UNL     1       3.464   4.816  17.623  0.00  0.00    +0.000 C 
ENDBRANCH  17  18
ENDBRANCH   1  17
TORSDOF 6
ENDMDL
MODEL 2
REMARK VINA RESULT:      -8.2      1.291      2.237
REMARK  Name = 
REMARK  6 active torsions:
REMARK  status: ('A' for Active; 'I' for Inactive)
REMARK    1  A    between atoms: N_3  and  C_4
REMARK    2  A    between atoms: C_4  and  C_5
REMARK    3  A    between atoms: C_5  and  O_6
REMARK    4  A    between atoms: C_5  and  C_7
REMARK    5  A    between atoms: C_7  and  N_8
REMARK    6  A    between atoms: N_18  and  C_19
REMARK                            x       y       z     vdW  Elec       q    Type
REMARK                         _______ _______ _______ _____ _____    ______ ____
ROOT
ATOM      1  C   UNL     1       5.617   6.200  16.780  0.00  0.00    +0.000 C 
ENDROOT
BRANCH   1   2
ATOM      2  O   UNL     1       5.188   7.058  15.709  0.00  0.00    +0.000 OA
ATOM      3  H   UNL     1       5.584   7.933  15.863  0.00  0.00    +0.000 HD
ENDBRANCH   1   2
BRANCH   1   4
ATOM      4  C   UNL     1       7.097   6.469  17.032  0.00  0.00    +0.000 C 
BRANCH   4   7
ATOM      5  O   UNL     1       8.681   7.685  18.879  0.00  0.00    +0.000 OA
ATOM      6  C   UNL     1       8.197   8.404  18.012  0.00  0.00    +0.000 C 
ATOM      7  N   UNL     1       7.339   7.900  17.070  0.00  0.00    +0.000 N 
ATOM      8  N   UNL     1       8.383   9.752  17.868  0.00  0.00    +0.000 N 
ATOM      9  H   UNL     1       7.389   8.344  16.157  0.00  0.00    +0.000 HD
ATOM     10  H   UNL     1       7.681  10.238  17.331  0.00  0.00    +0.000 HD
BRANCH   8  11
ATOM     11  C   UNL     1       9.295  10.541  18.602  0.00  0.00    +0.000 A 
ATOM     12  C   UNL     1       9.187  10.709  19.990  0.00  0.00    +0.000 A 
ATOM     13  C   UNL     1      10.117  11.478  20.684  0.00  0.00    +0.000 A 
ATOM     14  C   UNL     1      11.168  12.087  20.005  0.00  0.00    +0.000 A 
ATOM     15  C   UNL     1      11.286  11.924  18.625  0.00  0.00    +0.000 A 
ATOM     16  C   UNL     1      10.358  11.149  17.923  0.00  0.00    +0.000 A 
ENDBRANCH   8  11
ENDBRANCH   4   7
ENDBRANCH   1   4
BRANCH   1  17
ATOM     17  C   UNL     1       5.364   4.705  16.462  0.00  0.00    +0.000 C 
BRANCH  17  18
ATOM     18  N   UNL     1       4.806   3.948  17.597  0.00  0.00    +0.000 NA
ATOM     19  C   UNL     1       3.994   2.789  17.174  0.00  0.00    +0.000 C 
ATOM     20  C   UNL     1       2.474   2.945  17.311  0.00  0.00    +0.000 C 
ATOM     21  C   UNL     1       2.174   3.282  18.741  0.00  0.00    +0.000 A 
ATOM     22  C   UNL     1       1.101   2.712  19.431  0.00  0.00    +0.000 A 
ATOM     23  C   UNL     1       0.903   3.029  20.772  0.00  0.00    +0.000 A 
ATOM     24  C   UNL     1       1.765   3.915  21.418  0.00  0.00    +0.000 A 
ATOM     25  C   UNL     1       2.827   4.503  20.723  0.00  0.00    +0.000 A 
ATOM     26  C   UNL     1       3.041   4.185  19.382  0.00  0.00    +0.000 A 
ATOM     27  C   UNL     1       4.117   4.849  18.548  0.00  0.00    +0.000 C 
ENDBRANCH  17  18
ENDBRANCH   1  17
TORSDOF 6
ENDMDL
MODEL 3
REMARK VINA RESULT:      -8.0      1.441      2.441
REMARK  Name = 
REMARK  6 active torsions:
REMARK  status: ('A' for Active; 'I' for Inactive)
REMARK    1  A    between atoms: N_3  and  C_4
REMARK    2  A    between atoms: C_4  and  C_5
REMARK    3  A    between atoms: C_5  and  O_6
REMARK    4  A    between atoms: C_5  and  C_7
REMARK    5  A    between atoms: C_7  and  N_8
REMARK    6  A    between atoms: N_18  and  C_19
REMARK                            x       y       z     vdW  Elec       q    Type
REMARK                         _______ _______ _______ _____ _____    ______ ____
ROOT
ATOM      1  C   UNL     1       7.466   6.335  17.803  0.00  0.00    +0.000 C 
ENDROOT
BRANCH   1   2
ATOM      2  O   UNL     1       7.541   6.087  19.217  0.00  0.00    +0.000 OA
ATOM      3  H   UNL     1       6.797   5.505  19.449  0.00  0.00    +0.000 HD
ENDBRANCH   1   2
BRANCH   1   4
ATOM      4  C   UNL     1       7.737   7.818  17.571  0.00  0.00    +0.000 C 
BRANCH   4   7
ATOM      5  O   UNL     1       8.406  10.443  17.821  0.00  0.00    +0.000 OA
ATOM      6  C   UNL     1       8.806   9.688  18.701  0.00  0.00    +0.000 C 
ATOM      7  N   UNL     1       8.573   8.339  18.638  0.00  0.00    +0.000 N 
ATOM      8  N   UNL     1       9.540  10.031  19.804  0.00  0.00    +0.000 N 
ATOM      9  H   UNL     1       8.447   7.879  19.536  0.00  0.00    +0.000 HD
ATOM     10  H   UNL     1      10.056   9.282  20.239  0.00  0.00    +0.000 HD
BRANCH   8  11
ATOM     11  C   UNL     1       9.842  11.347  20.215  0.00  0.00    +0.000 A 
ATOM     12  C   UNL     1       9.075  12.024  21.174  0.00  0.00    +0.000 A 
ATOM     13  C   UNL     1       9.416  13.315  21.570  0.00  0.00    +0.000 A 
ATOM     14  C   UNL     1      10.526  13.946  21.019  0.00  0.00    +0.000 A 
ATOM     15  C   UNL     1      11.298  13.281  20.065  0.00  0.00    +0.000 A 
ATOM     16  C   UNL     1      10.963  11.983  19.667  0.00  0.00    +0.000 A 
ENDBRANCH   8  11
ENDBRANCH   4   7
ENDBRANCH   1   4
BRANCH   1  17
ATOM     17  C   UNL     1       6.096   5.916  17.213  0.00  0.00    +0.000 C 
BRANCH  17  18
ATOM     18  N   UNL     1       5.325   5.018  18.093  0.00  0.00    +0.000 NA
ATOM     19  C   UNL     1       4.925   3.762  17.428  0.00  0.00    +0.000 C 
ATOM     20  C   UNL     1       3.448   3.652  17.029  0.00  0.00    +0.000 C 
ATOM     21  C   UNL     1       2.623   3.859  18.263  0.00  0.00    +0.000 A 
ATOM     22  C   UNL     1       1.496   3.082  18.546  0.00  0.00    +0.000 A 
ATOM     23  C   UNL     1       0.799   3.292  19.732  0.00  0.00    +0.000 A 
ATOM     24  C   UNL     1       1.217   4.277  20.626  0.00  0.00    +0.000 A 
ATOM     25  C   UNL     1       2.331   5.071  20.335  0.00  0.00    +0.000 A 
ATOM     26  C   UNL     1       3.043   4.862  19.154  0.00  0.00    +0.000 A 
ATOM     27  C   UNL     1       4.205   5.740  18.737  0.00  0.00    +0.000 C 
ENDBRANCH  17  18
ENDBRANCH   1  17
TORSDOF 6
ENDMDL
MODEL 4
REMARK VINA RESULT:      -8.0      1.398      2.196
REMARK  Name = 
REMARK  6 active torsions:
REMARK  status: ('A' for Active; 'I' for Inactive)
REMARK    1  A    between atoms: N_3  and  C_4
REMARK    2  A    between atoms: C_4  and  C_5
REMARK    3  A    between atoms: C_5  and  O_6
REMARK    4  A    between atoms: C_5  and  C_7
REMARK    5  A    between atoms: C_7  and  N_8
REMARK    6  A    between atoms: N_18  and  C_19
REMARK                            x       y       z     vdW  Elec       q    Type
REMARK                         _______ _______ _______ _____ _____    ______ ____
ROOT
ATOM      1  C   UNL     1       7.322   6.291  17.627  0.00  0.00    +0.000 C 
ENDROOT
BRANCH   1   2
ATOM      2  O   UNL     1       7.520   5.957  19.011  0.00  0.00    +0.000 OA
ATOM      3  H   UNL     1       6.710   5.516  19.322  0.00  0.00    +0.000 HD
ENDBRANCH   1   2
BRANCH   1   4
ATOM      4  C   UNL     1       7.592   7.783  17.461  0.00  0.00    +0.000 C 
BRANCH   4   7
ATOM      5  O   UNL     1       8.209  10.399  17.880  0.00  0.00    +0.000 OA
ATOM      6  C   UNL     1       8.685   9.590  18.668  0.00  0.00    +0.000 C 
ATOM      7  N   UNL     1       8.483   8.243  18.511  0.00  0.00    +0.000 N 
ATOM      8  N   UNL     1       9.482   9.867  19.746  0.00  0.00    +0.000 N 
ATOM      9  H   UNL     1       8.429   7.710  19.375  0.00  0.00    +0.000 HD
ATOM     10  H   UNL     1      10.044   9.101  20.085  0.00  0.00    +0.000 HD
BRANCH   8  11
ATOM     11  C   UNL     1       9.777  11.154  20.242  0.00  0.00    +0.000 A 
ATOM     12  C   UNL     1      10.800  11.946  19.700  0.00  0.00    +0.000 A 
ATOM     13  C   UNL     1      11.049  13.220  20.203  0.00  0.00    +0.000 A 
ATOM     14  C   UNL     1      10.282  13.723  21.248  0.00  0.00    +0.000 A 
ATOM     15  C   UNL     1       9.261  12.945  21.793  0.00  0.00    +0.000 A 
ATOM     16  C   UNL     1       9.002  11.667  21.290  0.00  0.00    +0.000 A 
ENDBRANCH   8  11
ENDBRANCH   4   7
ENDBRANCH   1   4
BRANCH   1  17
ATOM     17  C   UNL     1       5.899   5.919  17.139  0.00  0.00    +0.000 C 
BRANCH  17  18
ATOM     18  N   UNL     1       5.173   5.031  18.064  0.00  0.00    +0.000 NA
ATOM     19  C   UNL     1       4.780   3.749  17.443  0.00  0.00    +0.000 C 
ATOM     20  C   UNL     1       3.294   3.599  17.090  0.00  0.00    +0.000 C 
ATOM     21  C   UNL     1       2.500   3.824  18.340  0.00  0.00    +0.000 A 
ATOM     22  C   UNL     1       1.398   3.032  18.676  0.00  0.00    +0.000 A 
ATOM     23  C   UNL     1       0.730   3.260  19.875  0.00  0.00    +0.000 A 
ATOM     24  C   UNL     1       1.153   4.276  20.731  0.00  0.00    +0.000 A 
ATOM     25  C   UNL     1       2.242   5.084  20.388  0.00  0.00    +0.000 A 
ATOM     26  C   UNL     1       2.925   4.858  19.193  0.00  0.00    +0.000 A 
ATOM     27  C   UNL     1       4.056   5.747  18.720  0.00  0.00    +0.000 C 
ENDBRANCH  17  18
ENDBRANCH   1  17
TORSDOF 6
ENDMDL
MODEL 5
REMARK VINA RESULT:      -8.0      3.727      6.802
REMARK  Name = 
REMARK  6 active torsions:
REMARK  status: ('A' for Active; 'I' for Inactive)
REMARK    1  A    between atoms: N_3  and  C_4
REMARK    2  A    between atoms: C_4  and  C_5
REMARK    3  A    between atoms: C_5  and  O_6
REMARK    4  A    between atoms: C_5  and  C_7
REMARK    5  A    between atoms: C_7  and  N_8
REMARK    6  A    between atoms: N_18  and  C_19
REMARK                            x       y       z     vdW  Elec       q    Type
REMARK                         _______ _______ _______ _____ _____    ______ ____
ROOT
ATOM      1  C   UNL     1       6.587   6.587  17.634  0.00  0.00    +0.000 C 
ENDROOT
BRANCH   1   2
ATOM      2  O   UNL     1       7.070   7.589  16.723  0.00  0.00    +0.000 OA
ATOM      3  H   UNL     1       6.930   7.253  15.821  0.00  0.00    +0.000 HD
ENDBRANCH   1   2
BRANCH   1   4
ATOM      4  C   UNL     1       7.184   5.247  17.216  0.00  0.00    +0.000 C 
BRANCH   4   7
ATOM      5  O   UNL     1       6.071   3.336  15.633  0.00  0.00    +0.000 OA
ATOM      6  C   UNL     1       6.692   4.226  15.064  0.00  0.00    +0.000 C 
ATOM      7  N   UNL     1       7.340   5.204  15.773  0.00  0.00    +0.000 N 
ATOM      8  N   UNL     1       6.870   4.368  13.714  0.00  0.00    +0.000 N 
ATOM      9  H   UNL     1       7.371   6.116  15.325  0.00  0.00    +0.000 HD
ATOM     10  H   UNL     1       7.652   4.938  13.432  0.00  0.00    +0.000 HD
BRANCH   8  11
ATOM     11  C   UNL     1       6.238   3.597  12.716  0.00  0.00    +0.000 A 
ATOM     12  C   UNL     1       6.896   2.551  12.052  0.00  0.00    +0.000 A 
ATOM     13  C   UNL     1       6.234   1.799  11.086  0.00  0.00    +0.000 A 
ATOM     14  C   UNL     1       4.908   2.076  10.770  0.00  0.00    +0.000 A 
ATOM     15  C   UNL     1       4.242   3.113  11.425  0.00  0.00    +0.000 A 
ATOM     16  C   UNL     1       4.901   3.869  12.400  0.00  0.00    +0.000 A 
ENDBRANCH   8  11
ENDBRANCH   4   7
ENDBRANCH   1   4
BRANCH   1  17
ATOM     17  C   UNL     1       5.039   6.528  17.661  0.00  0.00    +0.000 C 
BRANCH  17  18
ATOM     18  N   UNL     1       4.508   5.271  18.220  0.00  0.00    +0.000 NA
ATOM     19  C   UNL     1       3.542   4.604  17.324  0.00  0.00    +0.000 C 
ATOM     20  C   UNL     1       2.066   4.704  17.730  0.00  0.00    +0.000 C 
ATOM     21  C   UNL     1       1.934   4.155  19.119  0.00  0.00    +0.000 A 
ATOM     22  C   UNL     1       0.873   3.328  19.496  0.00  0.00    +0.000 A 
ATOM     23  C   UNL     1       0.831   2.812  20.788  0.00  0.00    +0.000 A 
ATOM     24  C   UNL     1       1.837   3.126  21.701  0.00  0.00    +0.000 A 
ATOM     25  C   UNL     1       2.889   3.972  21.332  0.00  0.00    +0.000 A 
ATOM     26  C   UNL     1       2.946   4.486  20.037  0.00  0.00    +0.000 A 
ATOM     27  C   UNL     1       4.007   5.474  19.598  0.00  0.00    +0.000 C 
ENDBRANCH  17  18
ENDBRANCH   1  17
TORSDOF 6
ENDMDL
MODEL 6
REMARK VINA RESULT:      -7.9      3.075      5.875
REMARK  Name = 
REMARK  6 active torsions:
REMARK  status: ('A' for Active; 'I' for Inactive)
REMARK    1  A    between atoms: N_3  and  C_4
REMARK    2  A    between atoms: C_4  and  C_5
REMARK    3  A    between atoms: C_5  and  O_6
REMARK    4  A    between atoms: C_5  and  C_7
REMARK    5  A    between atoms: C_7  and  N_8
REMARK    6  A    between atoms: N_18  and  C_19
REMARK                            x       y       z     vdW  Elec       q    Type
REMARK                         _______ _______ _______ _____ _____    ______ ____
ROOT
ATOM      1  C   UNL     1       7.299   5.577  19.171  0.00  0.00    +0.000 C 
ENDROOT
BRANCH   1   2
ATOM      2  O   UNL     1       7.916   5.484  20.466  0.00  0.00    +0.000 OA
ATOM      3  H   UNL     1       8.118   6.391  20.756  0.00  0.00    +0.000 HD
ENDBRANCH   1   2
BRANCH   1   4
ATOM      4  C   UNL     1       8.066   6.616  18.359  0.00  0.00    +0.000 C 
BRANCH   4   7
ATOM      5  O   UNL     1       7.970   4.575  16.564  0.00  0.00    +0.000 OA
ATOM      6  C   UNL     1       7.440   5.628  16.227  0.00  0.00    +0.000 C 
ATOM      7  N   UNL     1       7.484   6.735  17.034  0.00  0.00    +0.000 N 
ATOM      8  N   UNL     1       6.792   5.878  15.048  0.00  0.00    +0.000 N 
ATOM      9  H   UNL     1       6.669   7.340  16.983  0.00  0.00    +0.000 HD
ATOM     10  H   UNL     1       6.706   6.850  14.791  0.00  0.00    +0.000 HD
BRANCH   8  11
ATOM     11  C   UNL     1       6.477   4.919  14.062  0.00  0.00    +0.000 A 
ATOM     12  C   UNL     1       5.307   4.148  14.117  0.00  0.00    +0.000 A 
ATOM     13  C   UNL     1       5.020   3.225  13.114  0.00  0.00    +0.000 A 
ATOM     14  C   UNL     1       5.892   3.060  12.044  0.00  0.00    +0.000 A 
ATOM     15  C   UNL     1       7.059   3.823  11.978  0.00  0.00    +0.000 A 
ATOM     16  C   UNL     1       7.350   4.755  12.979  0.00  0.00    +0.000 A 
ENDBRANCH   8  11
ENDBRANCH   4   7
ENDBRANCH   1   4
BRANCH   1  17
ATOM     17  C   UNL     1       5.795   5.939  19.270  0.00  0.00    +0.000 C 
BRANCH  17  18
ATOM     18  N   UNL     1       4.931   4.786  19.581  0.00  0.00    +0.000 NA
ATOM     19  C   UNL     1       5.100   3.666  18.633  0.00  0.00    +0.000 C 
ATOM     20  C   UNL     1       3.970   3.470  17.614  0.00  0.00    +0.000 C 
ATOM     21  C   UNL     1       2.689   3.304  18.374  0.00  0.00    +0.000 A 
ATOM     22  C   UNL     1       1.728   2.355  18.016  0.00  0.00    +0.000 A 
ATOM     23  C   UNL     1       0.580   2.217  18.791  0.00  0.00    +0.000 A 
ATOM     24  C   UNL     1       0.388   3.027  19.910  0.00  0.00    +0.000 A 
ATOM     25  C   UNL     1       1.339   3.992  20.258  0.00  0.00    +0.000 A 
ATOM     26  C   UNL     1       2.497   4.132  19.494  0.00  0.00    +0.000 A 
ATOM     27  C   UNL     1       3.525   5.212  19.763  0.00  0.00    +0.000 C 
ENDBRANCH  17  18
ENDBRANCH   1  17
TORSDOF 6
ENDMDL
MODEL 7
REMARK VINA RESULT:      -7.8      1.899      2.797
REMARK  Name = 
REMARK  6 active torsions:
REMARK  status: ('A' for Active; 'I' for Inactive)
REMARK    1  A    between atoms: N_3  and  C_4
REMARK    2  A    between atoms: C_4  and  C_5
REMARK    3  A    between atoms: C_5  and  O_6
REMARK    4  A    between atoms: C_5  and  C_7
REMARK    5  A    between atoms: C_7  and  N_8
REMARK    6  A    between atoms: N_18  and  C_19
REMARK                            x       y       z     vdW  Elec       q    Type
REMARK                         _______ _______ _______ _____ _____    ______ ____
ROOT
ATOM      1  C   UNL     1       7.214   6.780  17.916  0.00  0.00    +0.000 C 
ENDROOT
BRANCH   1   2
ATOM      2  O   UNL     1       7.098   7.013  16.503  0.00  0.00    +0.000 OA
ATOM      3  H   UNL     1       6.582   6.278  16.129  0.00  0.00    +0.000 HD
ENDBRANCH   1   2
BRANCH   1   4
ATOM      4  C   UNL     1       8.277   7.728  18.462  0.00  0.00    +0.000 C 
BRANCH   4   7
ATOM      5  O   UNL     1       9.478   9.971  19.426  0.00  0.00    +0.000 OA
ATOM      6  C   UNL     1       8.801  10.103  18.413  0.00  0.00    +0.000 C 
ATOM      7  N   UNL     1       8.107   9.048  17.880  0.00  0.00    +0.000 N 
ATOM      8  N   UNL     1       8.599  11.258  17.706  0.00  0.00    +0.000 N 
ATOM      9  H   UNL     1       8.020   9.054  16.867  0.00  0.00    +0.000 HD
ATOM     10  H   UNL     1       7.782  11.275  17.114  0.00  0.00    +0.000 HD
BRANCH   8  11
ATOM     11  C   UNL     1       9.261  12.484  17.928  0.00  0.00    +0.000 A 
ATOM     12  C   UNL     1      10.576  12.712  17.493  0.00  0.00    +0.000 A 
ATOM     13  C   UNL     1      11.190  13.942  17.712  0.00  0.00    +0.000 A 
ATOM     14  C   UNL     1      10.503  14.962  18.362  0.00  0.00    +0.000 A 
ATOM     15  C   UNL     1       9.194  14.747  18.797  0.00  0.00    +0.000 A 
ATOM     16  C   UNL     1       8.571  13.515  18.576  0.00  0.00    +0.000 A 
ENDBRANCH   8  11
ENDBRANCH   4   7
ENDBRANCH   1   4
BRANCH   1  17
ATOM     17  C   UNL     1       7.561   5.304  18.234  0.00  0.00    +0.000 C 
BRANCH  17  18
ATOM     18  N   UNL     1       6.376   4.455  18.458  0.00  0.00    +0.000 NA
ATOM     19  C   UNL     1       5.836   3.879  17.210  0.00  0.00    +0.000 C 
ATOM     20  C   UNL     1       4.539   4.507  16.684  0.00  0.00    +0.000 C 
ATOM     21  C   UNL     1       3.512   4.419  17.772  0.00  0.00    +0.000 A 
ATOM     22  C   UNL     1       2.184   4.068  17.516  0.00  0.00    +0.000 A 
ATOM     23  C   UNL     1       1.288   3.956  18.576  0.00  0.00    +0.000 A 
ATOM     24  C   UNL     1       1.712   4.201  19.881  0.00  0.00    +0.000 A 
ATOM     25  C   UNL     1       3.036   4.574  20.137  0.00  0.00    +0.000 A 
ATOM     26  C   UNL     1       3.944   4.679  19.084  0.00  0.00    +0.000 A 
ATOM     27  C   UNL     1       5.367   5.160  19.280  0.00  0.00    +0.000 C 
ENDBRANCH  17  18
ENDBRANCH   1  17
TORSDOF 6
ENDMDL
MODEL 8
REMARK VINA RESULT:      -7.7      1.621      2.039
REMARK  Name = 
REMARK  6 active torsions:
REMARK  status: ('A' for Active; 'I' for Inactive)
REMARK    1  A    between atoms: N_3  and  C_4
REMARK    2  A    between atoms: C_4  and  C_5
REMARK    3  A    between atoms: C_5  and  O_6
REMARK    4  A    between atoms: C_5  and  C_7
REMARK    5  A    between atoms: C_7  and  N_8
REMARK    6  A    between atoms: N_18  and  C_19
REMARK                            x       y       z     vdW  Elec       q    Type
REMARK                         _______ _______ _______ _____ _____    ______ ____
ROOT
ATOM      1  C   UNL     1       6.592   6.013  16.788  0.00  0.00    +0.000 C 
ENDROOT
BRANCH   1   2
ATOM      2  O   UNL     1       7.690   5.797  15.885  0.00  0.00    +0.000 OA
ATOM      3  H   UNL     1       7.592   6.431  15.153  0.00  0.00    +0.000 HD
ENDBRANCH   1   2
BRANCH   1   4
ATOM      4  C   UNL     1       6.581   7.490  17.167  0.00  0.00    +0.000 C 
BRANCH   4   7
ATOM      5  O   UNL     1       7.604   9.991  17.479  0.00  0.00    +0.000 OA
ATOM      6  C   UNL     1       8.131   9.097  18.132  0.00  0.00    +0.000 C 
ATOM      7  N   UNL     1       7.729   7.793  18.004  0.00  0.00    +0.000 N 
ATOM      8  N   UNL     1       9.169   9.230  19.014  0.00  0.00    +0.000 N 
ATOM      9  H   UNL     1       7.794   7.235  18.850  0.00  0.00    +0.000 HD
ATOM     10  H   UNL     1       9.689   8.387  19.211  0.00  0.00    +0.000 HD
BRANCH   8  11
ATOM     11  C   UNL     1       9.727  10.449  19.452  0.00  0.00    +0.000 A 
ATOM     12  C   UNL     1      10.610  11.195  18.656  0.00  0.00    +0.000 A 
ATOM     13  C   UNL     1      11.124  12.405  19.114  0.00  0.00    +0.000 A 
ATOM     14  C   UNL     1      10.765  12.889  20.367  0.00  0.00    +0.000 A 
ATOM     15  C   UNL     1       9.886  12.157  21.166  0.00  0.00    +0.000 A 
ATOM     16  C   UNL     1       9.362  10.944  20.710  0.00  0.00    +0.000 A 
ENDBRANCH   8  11
ENDBRANCH   4   7
ENDBRANCH   1   4
BRANCH   1  17
ATOM     17  C   UNL     1       6.689   5.111  18.044  0.00  0.00    +0.000 C 
BRANCH  17  18
ATOM     18  N   UNL     1       5.587   4.139  18.158  0.00  0.00    +0.000 NA
ATOM     19  C   UNL     1       4.587   4.272  17.079  0.00  0.00    +0.000 C 
ATOM     20  C   UNL     1       3.253   4.920  17.473  0.00  0.00    +0.000 C 
ATOM     21  C   UNL     1       2.675   4.129  18.607  0.00  0.00    +0.000 A 
ATOM     22  C   UNL     1       1.316   3.813  18.680  0.00  0.00    +0.000 A 
ATOM     23  C   UNL     1       0.849   3.034  19.734  0.00  0.00    +0.000 A 
ATOM     24  C   UNL     1       1.730   2.580  20.715  0.00  0.00    +0.000 A 
ATOM     25  C   UNL     1       3.087   2.913  20.657  0.00  0.00    +0.000 A 
ATOM     26  C   UNL     1       3.568   3.684  19.599  0.00  0.00    +0.000 A 
ATOM     27  C   UNL     1       5.007   4.152  19.520  0.00  0.00    +0.000 C 
ENDBRANCH  17  18
ENDBRANCH   1  17
TORSDOF 6
ENDMDL
MODEL 9
REMARK VINA RESULT:      -7.7      1.493      2.314
REMARK  Name = 
REMARK  6 active torsions:
REMARK  status: ('A' for Active; 'I' for Inactive)
REMARK    1  A    between atoms: N_3  and  C_4
REMARK    2  A    between atoms: C_4  and  C_5
REMARK    3  A    between atoms: C_5  and  O_6
REMARK    4  A    between atoms: C_5  and  C_7
REMARK    5  A    between atoms: C_7  and  N_8
REMARK    6  A    between atoms: N_18  and  C_19
REMARK                            x       y       z     vdW  Elec       q    Type
REMARK                         _______ _______ _______ _____ _____    ______ ____
ROOT
ATOM      1  C   UNL     1       7.447   6.042  17.796  0.00  0.00    +0.000 C 
ENDROOT
BRANCH   1   2
ATOM      2  O   UNL     1       7.849   4.777  18.348  0.00  0.00    +0.000 OA
ATOM      3  H   UNL     1       8.178   4.232  17.612  0.00  0.00    +0.000 HD
ENDBRANCH   1   2
BRANCH   1   4
ATOM      4  C   UNL     1       8.093   7.145  18.630  0.00  0.00    +0.000 C 
BRANCH   4   7
ATOM      5  O   UNL     1       9.196   9.457  19.542  0.00  0.00    +0.000 OA
ATOM      6  C   UNL     1       8.659   9.502  18.440  0.00  0.00    +0.000 C 
ATOM      7  N   UNL     1       8.023   8.407  17.916  0.00  0.00    +0.000 N 
ATOM      8  N   UNL     1       8.571  10.591  17.615  0.00  0.00    +0.000 N 
ATOM      9  H   UNL     1       8.067   8.324  16.904  0.00  0.00    +0.000 HD
ATOM     10  H   UNL     1       7.838  10.559  16.922  0.00  0.00    +0.000 HD
BRANCH   8  11
ATOM     11  C   UNL     1       9.219  11.828  17.813  0.00  0.00    +0.000 A 
ATOM     12  C   UNL     1       8.520  12.987  18.180  0.00  0.00    +0.000 A 
ATOM     13  C   UNL     1       9.197  14.186  18.386  0.00  0.00    +0.000 A 
ATOM     14  C   UNL     1      10.578  14.246  18.233  0.00  0.00    +0.000 A 
ATOM     15  C   UNL     1      11.284  13.098  17.870  0.00  0.00    +0.000 A 
ATOM     16  C   UNL     1      10.611  11.890  17.666  0.00  0.00    +0.000 A 
ENDBRANCH   8  11
ENDBRANCH   4   7
ENDBRANCH   1   4
BRANCH   1  17
ATOM     17  C   UNL     1       5.905   6.195  17.760  0.00  0.00    +0.000 C 
BRANCH  17  18
ATOM     18  N   UNL     1       5.187   5.062  18.373  0.00  0.00    +0.000 NA
ATOM     19  C   UNL     1       4.682   4.094  17.378  0.00  0.00    +0.000 C 
ATOM     20  C   UNL     1       3.171   4.127  17.113  0.00  0.00    +0.000 C 
ATOM     21  C   UNL     1       2.470   3.924  18.422  0.00  0.00    +0.000 A 
ATOM     22  C   UNL     1       1.348   3.102  18.547  0.00  0.00    +0.000 A 
ATOM     23  C   UNL     1       0.770   2.916  19.799  0.00  0.00    +0.000 A 
ATOM     24  C   UNL     1       1.304   3.552  20.919  0.00  0.00    +0.000 A 
ATOM     25  C   UNL     1       2.415   4.393  20.794  0.00  0.00    +0.000 A 
ATOM     26  C   UNL     1       3.008   4.579  19.545  0.00  0.00    +0.000 A 
ATOM     27  C   UNL     1       4.157   5.539  19.323  0.00  0.00    +0.000 C 
ENDBRANCH  17  18
ENDBRANCH   1  17
TORSDOF 6
ENDMDL
