MODEL 1
REMARK VINA RESULT:      -7.6      0.000      0.000
REMARK  Name = 
REMARK  3 active torsions:
REMARK  status: ('A' for Active; 'I' for Inactive)
REMARK    1  A    between atoms: C_7  and  N_8
REMARK    2  A    between atoms: N_15  and  C_16
REMARK    3  A    between atoms: N_24  and  C_25
REMARK                            x       y       z     vdW  Elec       q    Type
REMARK                         _______ _______ _______ _____ _____    ______ ____
ROOT
ATOM      1  N   UNL     1       1.975   8.200  18.255  0.00  0.00    +0.000 N 
ATOM      2  C   UNL     1       1.534   8.749  19.417  0.00  0.00    +0.000 A 
ATOM      3  N   UNL     1       1.871   8.375  20.637  0.00  0.00    +0.000 NA
ATOM      4  C   UNL     1       1.090   9.110  21.478  0.00  0.00    +0.000 A 
ATOM      5  C   UNL     1       0.972   9.136  22.856  0.00  0.00    +0.000 A 
ATOM      6  N   UNL     1       0.088   9.989  23.430  0.00  0.00    +0.000 NA
ATOM      7  C   UNL     1      -0.654  10.799  22.648  0.00  0.00    +0.000 A 
ATOM      8  N   UNL     1      -1.462  11.667  23.370  0.00  0.00    +0.000 N 
ATOM      9  N   UNL     1      -0.623  10.835  21.301  0.00  0.00    +0.000 NA
ATOM     10  C   UNL     1       0.279   9.979  20.777  0.00  0.00    +0.000 A 
ATOM     11  N   UNL     1       0.596   9.766  19.450  0.00  0.00    +0.000 N 
ATOM     12  H   UNL     1       2.601   8.777  17.694  0.00  0.00    +0.000 HD
ATOM     13  H   UNL     1      -1.418  11.328  24.326  0.00  0.00    +0.000 HD
ENDROOT
BRANCH   1  20
ATOM     14  F   UNL     1       4.605   7.527  17.546  0.00  0.00    +0.000 F 
ATOM     15  C   UNL     1       3.755   6.538  17.863  0.00  0.00    +0.000 A 
ATOM     16  C   UNL     1       4.215   5.220  17.843  0.00  0.00    +0.000 A 
ATOM     17  C   UNL     1       3.351   4.179  18.179  0.00  0.00    +0.000 A 
ATOM     18  C   UNL     1       2.028   4.457  18.506  0.00  0.00    +0.000 A 
ATOM     19  C   UNL     1       1.573   5.778  18.514  0.00  0.00    +0.000 A 
ATOM     20  C   UNL     1       2.439   6.849  18.234  0.00  0.00    +0.000 A 
ENDBRANCH   1  20
BRANCH   8  21
ATOM     21  C   UNL     1      -2.800  11.941  22.855  0.00  0.00    +0.000 C 
ATOM     22  C   UNL     1      -3.716  12.414  23.998  0.00  0.00    +0.000 C 
ATOM     23  C   UNL     1      -3.321  13.769  24.585  0.00  0.00    +0.000 C 
ATOM     24  C   UNL     1      -3.091  14.848  23.530  0.00  0.00    +0.000 C 
ATOM     25  C   UNL     1      -2.288  14.380  22.318  0.00  0.00    +0.000 C 
ATOM     26  C   UNL     1      -2.746  13.026  21.774  0.00  0.00    +0.000 C 
ENDBRANCH   8  21
BRANCH  11  27
ATOM     27  C   UNL     1       0.004  10.443  18.313  0.00  0.00    +0.000 C 
ATOM     28  C   UNL     1      -1.372   9.911  17.910  0.00  0.00    +0.000 C 
ATOM     29  C   UNL     1      -2.010  11.050  17.128  0.00  0.00    +0.000 C 
ATOM     30  C   UNL     1      -1.381  12.339  17.647  0.00  0.00    +0.000 C 
ATOM     31  C   UNL     1      -0.204  11.942  18.530  0.00  0.00    +0.000 C 
ENDBRANCH  11  27
TORSDOF 3
ENDMDL
MODEL 2
REMARK VINA RESULT:      -7.2      4.644      7.090
REMARK  Name = 
REMARK  3 active torsions:
REMARK  status: ('A' for Active; 'I' for Inactive)
REMARK    1  A    between atoms: C_7  and  N_8
REMARK    2  A    between atoms: N_15  and  C_16
REMARK    3  A    between atoms: N_24  and  C_25
REMARK                            x       y       z     vdW  Elec       q    Type
REMARK                         _______ _______ _______ _____ _____    ______ ____
ROOT
ATOM      1  N   UNL     1      -1.773  11.093  19.369  0.00  0.00    +0.000 N 
ATOM      2  C   UNL     1      -0.904  12.120  19.563  0.00  0.00    +0.000 A 
ATOM      3  N   UNL     1      -0.881  13.261  18.899  0.00  0.00    +0.000 NA
ATOM      4  C   UNL     1       0.228  13.921  19.336  0.00  0.00    +0.000 A 
ATOM      5  C   UNL     1       0.787  15.137  18.988  0.00  0.00    +0.000 A 
ATOM      6  N   UNL     1       1.924  15.545  19.603  0.00  0.00    +0.000 NA
ATOM      7  C   UNL     1       2.486  14.760  20.545  0.00  0.00    +0.000 A 
ATOM      8  N   UNL     1       3.603  15.332  21.140  0.00  0.00    +0.000 N 
ATOM      9  N   UNL     1       2.028  13.556  20.939  0.00  0.00    +0.000 NA
ATOM     10  C   UNL     1       0.890  13.198  20.309  0.00  0.00    +0.000 A 
ATOM     11  N   UNL     1       0.134  12.056  20.476  0.00  0.00    +0.000 N 
ATOM     12  H   UNL     1      -2.454  10.934  20.112  0.00  0.00    +0.000 HD
ATOM     13  H   UNL     1       3.820  16.139  20.562  0.00  0.00    +0.000 HD
ENDROOT
BRANCH   1  20
ATOM     14  F   UNL     1      -4.257  12.255  18.781  0.00  0.00    +0.000 F 
ATOM     15  C   UNL     1      -3.661  11.508  17.838  0.00  0.00    +0.000 A 
ATOM     16  C   UNL     1      -4.291  11.352  16.602  0.00  0.00    +0.000 A 
ATOM     17  C   UNL     1      -3.684  10.588  15.606  0.00  0.00    +0.000 A 
ATOM     18  C   UNL     1      -2.467   9.963  15.860  0.00  0.00    +0.000 A 
ATOM     19  C   UNL     1      -1.849  10.117  17.103  0.00  0.00    +0.000 A 
ATOM     20  C   UNL     1      -2.414  10.927  18.103  0.00  0.00    +0.000 A 
ENDBRANCH   1  20
BRANCH   8  21
ATOM     21  C   UNL     1       4.728  14.459  21.458  0.00  0.00    +0.000 C 
ATOM     22  C   UNL     1       6.006  14.980  20.776  0.00  0.00    +0.000 C 
ATOM     23  C   UNL     1       6.488  16.326  21.316  0.00  0.00    +0.000 C 
ATOM     24  C   UNL     1       6.571  16.380  22.840  0.00  0.00    +0.000 C 
ATOM     25  C   UNL     1       5.373  15.758  23.554  0.00  0.00    +0.000 C 
ATOM     26  C   UNL     1       4.954  14.408  22.973  0.00  0.00    +0.000 C 
ENDBRANCH   8  21
BRANCH  11  27
ATOM     27  C   UNL     1       0.421  10.970  21.392  0.00  0.00    +0.000 C 
ATOM     28  C   UNL     1      -0.619  10.787  22.499  0.00  0.00    +0.000 C 
ATOM     29  C   UNL     1      -0.440   9.348  22.960  0.00  0.00    +0.000 C 
ATOM     30  C   UNL     1       0.122   8.577  21.770  0.00  0.00    +0.000 C 
ATOM     31  C   UNL     1       0.514   9.602  20.713  0.00  0.00    +0.000 C 
ENDBRANCH  11  27
TORSDOF 3
ENDMDL
MODEL 3
REMARK VINA RESULT:      -7.2      4.391      6.922
REMARK  Name = 
REMARK  3 active torsions:
REMARK  status: ('A' for Active; 'I' for Inactive)
REMARK    1  A    between atoms: C_7  and  N_8
REMARK    2  A    between atoms: N_15  and  C_16
REMARK    3  A    between atoms: N_24  and  C_25
REMARK                            x       y       z     vdW  Elec       q    Type
REMARK                         _______ _______ _______ _____ _____    ______ ____
ROOT
ATOM      1  N   UNL     1      -1.840  11.160  19.462  0.00  0.00    +0.000 N 
ATOM      2  C   UNL     1      -0.960  12.180  19.640  0.00  0.00    +0.000 A 
ATOM      3  N   UNL     1      -0.926  13.311  18.961  0.00  0.00    +0.000 NA
ATOM      4  C   UNL     1       0.192  13.965  19.387  0.00  0.00    +0.000 A 
ATOM      5  C   UNL     1       0.763  15.170  19.022  0.00  0.00    +0.000 A 
ATOM      6  N   UNL     1       1.906  15.574  19.630  0.00  0.00    +0.000 NA
ATOM      7  C   UNL     1       2.461  14.796  20.581  0.00  0.00    +0.000 A 
ATOM      8  N   UNL     1       3.585  15.364  21.166  0.00  0.00    +0.000 N 
ATOM      9  N   UNL     1       1.990  13.602  20.992  0.00  0.00    +0.000 NA
ATOM     10  C   UNL     1       0.847  13.249  20.369  0.00  0.00    +0.000 A 
ATOM     11  N   UNL     1       0.079  12.117  20.552  0.00  0.00    +0.000 N 
ATOM     12  H   UNL     1      -2.521  11.019  20.208  0.00  0.00    +0.000 HD
ATOM     13  H   UNL     1       3.809  16.160  20.577  0.00  0.00    +0.000 HD
ENDROOT
BRANCH   1  20
ATOM     14  F   UNL     1      -0.681   9.683  17.378  0.00  0.00    +0.000 F 
ATOM     15  C   UNL     1      -1.878  10.253  17.170  0.00  0.00    +0.000 A 
ATOM     16  C   UNL     1      -2.505  10.074  15.935  0.00  0.00    +0.000 A 
ATOM     17  C   UNL     1      -3.753  10.648  15.701  0.00  0.00    +0.000 A 
ATOM     18  C   UNL     1      -4.356  11.418  16.691  0.00  0.00    +0.000 A 
ATOM     19  C   UNL     1      -3.718  11.599  17.920  0.00  0.00    +0.000 A 
ATOM     20  C   UNL     1      -2.485  10.984  18.199  0.00  0.00    +0.000 A 
ENDBRANCH   1  20
BRANCH   8  21
ATOM     21  C   UNL     1       4.701  14.483  21.495  0.00  0.00    +0.000 C 
ATOM     22  C   UNL     1       5.974  14.955  20.769  0.00  0.00    +0.000 C 
ATOM     23  C   UNL     1       6.490  16.311  21.248  0.00  0.00    +0.000 C 
ATOM     24  C   UNL     1       6.605  16.419  22.766  0.00  0.00    +0.000 C 
ATOM     25  C   UNL     1       5.411  15.847  23.528  0.00  0.00    +0.000 C 
ATOM     26  C   UNL     1       4.957  14.483  23.006  0.00  0.00    +0.000 C 
ENDBRANCH   8  21
BRANCH  11  27
ATOM     27  C   UNL     1       0.356  11.040  21.483  0.00  0.00    +0.000 C 
ATOM     28  C   UNL     1      -0.690  10.877  22.587  0.00  0.00    +0.000 C 
ATOM     29  C   UNL     1      -0.521   9.443  23.066  0.00  0.00    +0.000 C 
ATOM     30  C   UNL     1       0.041   8.654  21.889  0.00  0.00    +0.000 C 
ATOM     31  C   UNL     1       0.443   9.664  20.821  0.00  0.00    +0.000 C 
ENDBRANCH  11  27
TORSDOF 3
ENDMDL
MODEL 4
REMARK VINA RESULT:      -7.0      2.342      5.020
REMARK  Name = 
REMARK  3 active torsions:
REMARK  status: ('A' for Active; 'I' for Inactive)
REMARK    1  A    between atoms: C_7  and  N_8
REMARK    2  A    between atoms: N_15  and  C_16
REMARK    3  A    between atoms: N_24  and  C_25
REMARK                            x       y       z     vdW  Elec       q    Type
REMARK                         _______ _______ _______ _____ _____    ______ ____
ROOT
ATOM      1  N   UNL     1       3.766   4.676  18.179  0.00  0.00    +0.000 N 
ATOM      2  C   UNL     1       3.137   5.880  18.239  0.00  0.00    +0.000 A 
ATOM      3  N   UNL     1       3.268   6.873  17.380  0.00  0.00    +0.000 NA
ATOM      4  C   UNL     1       2.562   7.913  17.908  0.00  0.00    +0.000 A 
ATOM      5  C   UNL     1       2.357   9.212  17.481  0.00  0.00    +0.000 A 
ATOM      6  N   UNL     1       1.592  10.044  18.230  0.00  0.00    +0.000 NA
ATOM      7  C   UNL     1       1.042   9.587  19.374  0.00  0.00    +0.000 A 
ATOM      8  N   UNL     1       0.228  10.521  20.001  0.00  0.00    +0.000 N 
ATOM      9  N   UNL     1       1.197   8.348  19.880  0.00  0.00    +0.000 NA
ATOM     10  C   UNL     1       1.954   7.555  19.094  0.00  0.00    +0.000 A 
ATOM     11  N   UNL     1       2.300   6.232  19.283  0.00  0.00    +0.000 N 
ATOM     12  H   UNL     1       3.178   3.871  17.962  0.00  0.00    +0.000 HD
ATOM     13  H   UNL     1       0.413  11.394  19.516  0.00  0.00    +0.000 HD
ENDROOT
BRANCH   1  20
ATOM     14  F   UNL     1       6.236   5.165  19.416  0.00  0.00    +0.000 F 
ATOM     15  C   UNL     1       6.228   4.814  18.120  0.00  0.00    +0.000 A 
ATOM     16  C   UNL     1       7.444   4.690  17.446  0.00  0.00    +0.000 A 
ATOM     17  C   UNL     1       7.458   4.318  16.103  0.00  0.00    +0.000 A 
ATOM     18  C   UNL     1       6.257   4.096  15.435  0.00  0.00    +0.000 A 
ATOM     19  C   UNL     1       5.044   4.231  16.115  0.00  0.00    +0.000 A 
ATOM     20  C   UNL     1       5.007   4.551  17.483  0.00  0.00    +0.000 A 
ENDBRANCH   1  20
BRANCH   8  21
ATOM     21  C   UNL     1       0.263  10.587  21.458  0.00  0.00    +0.000 C 
ATOM     22  C   UNL     1       1.080  11.812  21.910  0.00  0.00    +0.000 C 
ATOM     23  C   UNL     1       0.434  13.150  21.549  0.00  0.00    +0.000 C 
ATOM     24  C   UNL     1      -1.037  13.245  21.945  0.00  0.00    +0.000 C 
ATOM     25  C   UNL     1      -1.854  11.996  21.625  0.00  0.00    +0.000 C 
ATOM     26  C   UNL     1      -1.157  10.695  22.024  0.00  0.00    +0.000 C 
ENDBRANCH   8  21
BRANCH  11  27
ATOM     27  C   UNL     1       1.906   5.399  20.402  0.00  0.00    +0.000 C 
ATOM     28  C   UNL     1       0.860   4.337  20.060  0.00  0.00    +0.000 C 
ATOM     29  C   UNL     1       1.010   3.286  21.150  0.00  0.00    +0.000 C 
ATOM     30  C   UNL     1       2.453   3.364  21.635  0.00  0.00    +0.000 C 
ATOM     31  C   UNL     1       3.066   4.619  21.024  0.00  0.00    +0.000 C 
ENDBRANCH  11  27
TORSDOF 3
ENDMDL
MODEL 5
REMARK VINA RESULT:      -6.8      2.430      4.977
REMARK  Name = 
REMARK  3 active torsions:
REMARK  status: ('A' for Active; 'I' for Inactive)
REMARK    1  A    between atoms: C_7  and  N_8
REMARK    2  A    between atoms: N_15  and  C_16
REMARK    3  A    between atoms: N_24  and  C_25
REMARK                            x       y       z     vdW  Elec       q    Type
REMARK                         _______ _______ _______ _____ _____    ______ ____
ROOT
ATOM      1  N   UNL     1       3.845   4.854  18.283  0.00  0.00    +0.000 N 
ATOM      2  C   UNL     1       3.205   6.053  18.279  0.00  0.00    +0.000 A 
ATOM      3  N   UNL     1       3.459   7.072  17.480  0.00  0.00    +0.000 NA
ATOM      4  C   UNL     1       2.672   8.093  17.923  0.00  0.00    +0.000 A 
ATOM      5  C   UNL     1       2.525   9.404  17.507  0.00  0.00    +0.000 A 
ATOM      6  N   UNL     1       1.648  10.211  18.154  0.00  0.00    +0.000 NA
ATOM      7  C   UNL     1       0.933   9.719  19.187  0.00  0.00    +0.000 A 
ATOM      8  N   UNL     1       0.026  10.632  19.709  0.00  0.00    +0.000 N 
ATOM      9  N   UNL     1       1.018   8.466  19.674  0.00  0.00    +0.000 NA
ATOM     10  C   UNL     1       1.893   7.698  18.992  0.00  0.00    +0.000 A 
ATOM     11  N   UNL     1       2.216   6.371  19.193  0.00  0.00    +0.000 N 
ATOM     12  H   UNL     1       3.303   4.054  17.955  0.00  0.00    +0.000 HD
ATOM     13  H   UNL     1       0.277  11.519  19.283  0.00  0.00    +0.000 HD
ENDROOT
BRANCH   1  20
ATOM     14  F   UNL     1       4.404   4.029  15.661  0.00  0.00    +0.000 F 
ATOM     15  C   UNL     1       5.432   4.326  16.471  0.00  0.00    +0.000 A 
ATOM     16  C   UNL     1       6.734   4.230  15.974  0.00  0.00    +0.000 A 
ATOM     17  C   UNL     1       7.815   4.543  16.795  0.00  0.00    +0.000 A 
ATOM     18  C   UNL     1       7.592   4.925  18.115  0.00  0.00    +0.000 A 
ATOM     19  C   UNL     1       6.288   5.011  18.607  0.00  0.00    +0.000 A 
ATOM     20  C   UNL     1       5.179   4.754  17.781  0.00  0.00    +0.000 A 
ENDBRANCH   1  20
BRANCH   8  21
ATOM     21  C   UNL     1      -0.162  10.654  21.155  0.00  0.00    +0.000 C 
ATOM     22  C   UNL     1       0.840  11.628  21.801  0.00  0.00    +0.000 C 
ATOM     23  C   UNL     1       0.605  13.091  21.430  0.00  0.00    +0.000 C 
ATOM     24  C   UNL     1      -0.844  13.540  21.601  0.00  0.00    +0.000 C 
ATOM     25  C   UNL     1      -1.875  12.540  21.083  0.00  0.00    +0.000 C 
ATOM     26  C   UNL     1      -1.587  11.099  21.503  0.00  0.00    +0.000 C 
ENDBRANCH   8  21
BRANCH  11  27
ATOM     27  C   UNL     1       1.662   5.504  20.214  0.00  0.00    +0.000 C 
ATOM     28  C   UNL     1       0.975   4.250  19.672  0.00  0.00    +0.000 C 
ATOM     29  C   UNL     1       0.978   3.275  20.840  0.00  0.00    +0.000 C 
ATOM     30  C   UNL     1       2.172   3.647  21.713  0.00  0.00    +0.000 C 
ATOM     31  C   UNL     1       2.703   4.982  21.206  0.00  0.00    +0.000 C 
ENDBRANCH  11  27
TORSDOF 3
ENDMDL
MODEL 6
REMARK VINA RESULT:      -6.7      0.925      1.138
REMARK  Name = 
REMARK  3 active torsions:
REMARK  status: ('A' for Active; 'I' for Inactive)
REMARK    1  A    between atoms: C_7  and  N_8
REMARK    2  A    between atoms: N_15  and  C_16
REMARK    3  A    between atoms: N_24  and  C_25
REMARK                            x       y       z     vdW  Elec       q    Type
REMARK                         _______ _______ _______ _____ _____    ______ ____
ROOT
ATOM      1  N   UNL     1       2.029   8.056  18.566  0.00  0.00    +0.000 N 
ATOM      2  C   UNL     1       1.552   8.658  19.688  0.00  0.00    +0.000 A 
ATOM      3  N   UNL     1       1.838   8.329  20.933  0.00  0.00    +0.000 NA
ATOM      4  C   UNL     1       1.038   9.108  21.714  0.00  0.00    +0.000 A 
ATOM      5  C   UNL     1       0.869   9.191  23.084  0.00  0.00    +0.000 A 
ATOM      6  N   UNL     1      -0.024  10.078  23.590  0.00  0.00    +0.000 NA
ATOM      7  C   UNL     1      -0.725  10.865  22.749  0.00  0.00    +0.000 A 
ATOM      8  N   UNL     1      -1.547  11.772  23.404  0.00  0.00    +0.000 N 
ATOM      9  N   UNL     1      -0.643  10.845  21.404  0.00  0.00    +0.000 NA
ATOM     10  C   UNL     1       0.265   9.958  20.949  0.00  0.00    +0.000 A 
ATOM     11  N   UNL     1       0.628   9.687  19.645  0.00  0.00    +0.000 N 
ATOM     12  H   UNL     1       2.684   8.602  18.006  0.00  0.00    +0.000 HD
ATOM     13  H   UNL     1      -1.543  11.471  24.374  0.00  0.00    +0.000 HD
ENDROOT
BRANCH   1  20
ATOM     14  F   UNL     1       0.789   6.013  17.097  0.00  0.00    +0.000 F 
ATOM     15  C   UNL     1       1.829   5.695  17.883  0.00  0.00    +0.000 A 
ATOM     16  C   UNL     1       2.262   4.368  17.926  0.00  0.00    +0.000 A 
ATOM     17  C   UNL     1       3.347   4.018  18.727  0.00  0.00    +0.000 A 
ATOM     18  C   UNL     1       3.976   4.988  19.502  0.00  0.00    +0.000 A 
ATOM     19  C   UNL     1       3.531   6.311  19.460  0.00  0.00    +0.000 A 
ATOM     20  C   UNL     1       2.475   6.699  18.617  0.00  0.00    +0.000 A 
ENDBRANCH   1  20
BRANCH   8  21
ATOM     21  C   UNL     1      -2.860  12.041  22.828  0.00  0.00    +0.000 C 
ATOM     22  C   UNL     1      -3.837  12.485  23.933  0.00  0.00    +0.000 C 
ATOM     23  C   UNL     1      -3.485  13.834  24.560  0.00  0.00    +0.000 C 
ATOM     24  C   UNL     1      -3.216  14.933  23.536  0.00  0.00    +0.000 C 
ATOM     25  C   UNL     1      -2.350  14.493  22.358  0.00  0.00    +0.000 C 
ATOM     26  C   UNL     1      -2.766  13.145  21.770  0.00  0.00    +0.000 C 
ENDBRANCH   8  21
BRANCH  11  27
ATOM     27  C   UNL     1       0.089  10.324  18.459  0.00  0.00    +0.000 C 
ATOM     28  C   UNL     1      -1.335   9.891  18.104  0.00  0.00    +0.000 C 
ATOM     29  C   UNL     1      -1.873  11.019  17.237  0.00  0.00    +0.000 C 
ATOM     30  C   UNL     1      -1.124  12.281  17.651  0.00  0.00    +0.000 C 
ATOM     31  C   UNL     1       0.021  11.849  18.559  0.00  0.00    +0.000 C 
ENDBRANCH  11  27
TORSDOF 3
ENDMDL
MODEL 7
REMARK VINA RESULT:      -6.7      0.802      1.059
REMARK  Name = 
REMARK  3 active torsions:
REMARK  status: ('A' for Active; 'I' for Inactive)
REMARK    1  A    between atoms: C_7  and  N_8
REMARK    2  A    between atoms: N_15  and  C_16
REMARK    3  A    between atoms: N_24  and  C_25
REMARK                            x       y       z     vdW  Elec       q    Type
REMARK                         _______ _______ _______ _____ _____    ______ ____
ROOT
ATOM      1  N   UNL     1       2.341   8.583  18.426  0.00  0.00    +0.000 N 
ATOM      2  C   UNL     1       1.732   8.977  19.576  0.00  0.00    +0.000 A 
ATOM      3  N   UNL     1       1.691   8.302  20.710  0.00  0.00    +0.000 NA
ATOM      4  C   UNL     1       0.870   9.013  21.533  0.00  0.00    +0.000 A 
ATOM      5  C   UNL     1       0.426   8.792  22.824  0.00  0.00    +0.000 A 
ATOM      6  N   UNL     1      -0.408   9.691  23.402  0.00  0.00    +0.000 NA
ATOM      7  C   UNL     1      -0.784  10.786  22.710  0.00  0.00    +0.000 A 
ATOM      8  N   UNL     1      -1.579  11.654  23.447  0.00  0.00    +0.000 N 
ATOM      9  N   UNL     1      -0.420  11.080  21.446  0.00  0.00    +0.000 NA
ATOM     10  C   UNL     1       0.418  10.164  20.918  0.00  0.00    +0.000 A 
ATOM     11  N   UNL     1       1.007  10.152  19.670  0.00  0.00    +0.000 N 
ATOM     12  H   UNL     1       3.176   9.104  18.158  0.00  0.00    +0.000 HD
ATOM     13  H   UNL     1      -1.830  11.131  24.280  0.00  0.00    +0.000 HD
ENDROOT
BRANCH   1  20
ATOM     14  F   UNL     1       4.811   7.578  17.557  0.00  0.00    +0.000 F 
ATOM     15  C   UNL     1       3.793   6.718  17.723  0.00  0.00    +0.000 A 
ATOM     16  C   UNL     1       4.007   5.361  17.473  0.00  0.00    +0.000 A 
ATOM     17  C   UNL     1       2.967   4.451  17.648  0.00  0.00    +0.000 A 
ATOM     18  C   UNL     1       1.712   4.904  18.046  0.00  0.00    +0.000 A 
ATOM     19  C   UNL     1       1.504   6.264  18.285  0.00  0.00    +0.000 A 
ATOM     20  C   UNL     1       2.553   7.194  18.169  0.00  0.00    +0.000 A 
ENDBRANCH   1  20
BRANCH   8  21
ATOM     21  C   UNL     1      -2.682  12.318  22.760  0.00  0.00    +0.000 C 
ATOM     22  C   UNL     1      -3.933  12.324  23.657  0.00  0.00    +0.000 C 
ATOM     23  C   UNL     1      -3.785  13.178  24.915  0.00  0.00    +0.000 C 
ATOM     24  C   UNL     1      -3.251  14.582  24.642  0.00  0.00    +0.000 C 
ATOM     25  C   UNL     1      -2.085  14.628  23.657  0.00  0.00    +0.000 C 
ATOM     26  C   UNL     1      -2.306  13.763  22.415  0.00  0.00    +0.000 C 
ENDBRANCH   8  21
BRANCH  11  27
ATOM     27  C   UNL     1       0.838  11.155  18.637  0.00  0.00    +0.000 C 
ATOM     28  C   UNL     1      -0.589  11.690  18.505  0.00  0.00    +0.000 C 
ATOM     29  C   UNL     1      -0.432  13.037  17.817  0.00  0.00    +0.000 C 
ATOM     30  C   UNL     1       0.960  13.548  18.174  0.00  0.00    +0.000 C 
ATOM     31  C   UNL     1       1.704  12.399  18.843  0.00  0.00    +0.000 C 
ENDBRANCH  11  27
TORSDOF 3
ENDMDL
MODEL 8
REMARK VINA RESULT:      -6.6      2.509      7.981
REMARK  Name = 
REMARK  3 active torsions:
REMARK  status: ('A' for Active; 'I' for Inactive)
REMARK    1  A    between atoms: C_7  and  N_8
REMARK    2  A    between atoms: N_15  and  C_16
REMARK    3  A    between atoms: N_24  and  C_25
REMARK                            x       y       z     vdW  Elec       q    Type
REMARK                         _______ _______ _______ _____ _____    ______ ____
ROOT
ATOM      1  N   UNL     1      -2.132  12.493  20.056  0.00  0.00    +0.000 N 
ATOM      2  C   UNL     1      -1.318  11.459  20.393  0.00  0.00    +0.000 A 
ATOM      3  N   UNL     1      -0.743  11.266  21.565  0.00  0.00    +0.000 NA
ATOM      4  C   UNL     1       0.078  10.190  21.402  0.00  0.00    +0.000 A 
ATOM      5  C   UNL     1       0.949   9.544  22.260  0.00  0.00    +0.000 A 
ATOM      6  N   UNL     1       1.654   8.476  21.810  0.00  0.00    +0.000 NA
ATOM      7  C   UNL     1       1.488   8.062  20.537  0.00  0.00    +0.000 A 
ATOM      8  N   UNL     1       2.216   6.920  20.234  0.00  0.00    +0.000 N 
ATOM      9  N   UNL     1       0.679   8.635  19.624  0.00  0.00    +0.000 NA
ATOM     10  C   UNL     1      -0.010   9.683  20.121  0.00  0.00    +0.000 A 
ATOM     11  N   UNL     1      -0.938  10.484  19.487  0.00  0.00    +0.000 N 
ATOM     12  H   UNL     1      -3.115  12.264  19.912  0.00  0.00    +0.000 HD
ATOM     13  H   UNL     1       2.847   6.798  21.021  0.00  0.00    +0.000 HD
ENDROOT
BRANCH   1  20
ATOM     14  F   UNL     1      -3.841  13.147  22.182  0.00  0.00    +0.000 F 
ATOM     15  C   UNL     1      -2.914  14.042  21.808  0.00  0.00    +0.000 A 
ATOM     16  C   UNL     1      -2.826  15.252  22.500  0.00  0.00    +0.000 A 
ATOM     17  C   UNL     1      -1.863  16.192  22.134  0.00  0.00    +0.000 A 
ATOM     18  C   UNL     1      -1.013  15.930  21.064  0.00  0.00    +0.000 A 
ATOM     19  C   UNL     1      -1.114  14.721  20.372  0.00  0.00    +0.000 A 
ATOM     20  C   UNL     1      -2.039  13.735  20.758  0.00  0.00    +0.000 A 
ENDBRANCH   1  20
BRANCH   8  21
ATOM     21  C   UNL     1       2.828   6.832  18.912  0.00  0.00    +0.000 C 
ATOM     22  C   UNL     1       4.235   6.218  19.023  0.00  0.00    +0.000 C 
ATOM     23  C   UNL     1       4.236   4.756  19.469  0.00  0.00    +0.000 C 
ATOM     24  C   UNL     1       3.270   3.875  18.679  0.00  0.00    +0.000 C 
ATOM     25  C   UNL     1       1.900   4.505  18.440  0.00  0.00    +0.000 C 
ATOM     26  C   UNL     1       1.974   5.963  17.983  0.00  0.00    +0.000 C 
ENDBRANCH   8  21
BRANCH  11  27
ATOM     27  C   UNL     1      -1.376  10.357  18.111  0.00  0.00    +0.000 C 
ATOM     28  C   UNL     1      -2.695   9.602  17.936  0.00  0.00    +0.000 C 
ATOM     29  C   UNL     1      -3.218  10.054  16.581  0.00  0.00    +0.000 C 
ATOM     30  C   UNL     1      -2.649  11.448  16.338  0.00  0.00    +0.000 C 
ATOM     31  C   UNL     1      -1.597  11.699  17.411  0.00  0.00    +0.000 C 
ENDBRANCH  11  27
TORSDOF 3
ENDMDL
MODEL 9
REMARK VINA RESULT:      -6.5      2.186      7.813
REMARK  Name = 
REMARK  3 active torsions:
REMARK  status: ('A' for Active; 'I' for Inactive)
REMARK    1  A    between atoms: C_7  and  N_8
REMARK    2  A    between atoms: N_15  and  C_16
REMARK    3  A    between atoms: N_24  and  C_25
REMARK                            x       y       z     vdW  Elec       q    Type
REMARK                         _______ _______ _______ _____ _____    ______ ____
ROOT
ATOM      1  N   UNL     1      -2.063  12.544  19.867  0.00  0.00    +0.000 N 
ATOM      2  C   UNL     1      -1.260  11.512  20.236  0.00  0.00    +0.000 A 
ATOM      3  N   UNL     1      -0.662  11.365  21.403  0.00  0.00    +0.000 NA
ATOM      4  C   UNL     1       0.136  10.267  21.274  0.00  0.00    +0.000 A 
ATOM      5  C   UNL     1       1.016   9.647  22.142  0.00  0.00    +0.000 A 
ATOM      6  N   UNL     1       1.692   8.547  21.729  0.00  0.00    +0.000 NA
ATOM      7  C   UNL     1       1.489   8.075  20.482  0.00  0.00    +0.000 A 
ATOM      8  N   UNL     1       2.190   6.906  20.217  0.00  0.00    +0.000 N 
ATOM      9  N   UNL     1       0.669   8.618  19.560  0.00  0.00    +0.000 NA
ATOM     10  C   UNL     1       0.011   9.702  20.021  0.00  0.00    +0.000 A 
ATOM     11  N   UNL     1      -0.918  10.488  19.369  0.00  0.00    +0.000 N 
ATOM     12  H   UNL     1      -3.054  12.326  19.756  0.00  0.00    +0.000 HD
ATOM     13  H   UNL     1       2.836   6.810  20.995  0.00  0.00    +0.000 HD
ENDROOT
BRANCH   1  20
ATOM     14  F   UNL     1      -0.221  14.475  19.004  0.00  0.00    +0.000 F 
ATOM     15  C   UNL     1      -0.995  14.758  20.063  0.00  0.00    +0.000 A 
ATOM     16  C   UNL     1      -0.865  16.004  20.680  0.00  0.00    +0.000 A 
ATOM     17  C   UNL     1      -1.666  16.322  21.775  0.00  0.00    +0.000 A 
ATOM     18  C   UNL     1      -2.573  15.386  22.263  0.00  0.00    +0.000 A 
ATOM     19  C   UNL     1      -2.690  14.138  21.645  0.00  0.00    +0.000 A 
ATOM     20  C   UNL     1      -1.933  13.816  20.505  0.00  0.00    +0.000 A 
ENDBRANCH   1  20
BRANCH   8  21
ATOM     21  C   UNL     1       2.770   6.744  18.888  0.00  0.00    +0.000 C 
ATOM     22  C   UNL     1       4.196   6.177  19.002  0.00  0.00    +0.000 C 
ATOM     23  C   UNL     1       4.251   4.750  19.546  0.00  0.00    +0.000 C 
ATOM     24  C   UNL     1       3.291   3.791  18.846  0.00  0.00    +0.000 C 
ATOM     25  C   UNL     1       1.897   4.366  18.603  0.00  0.00    +0.000 C 
ATOM     26  C   UNL     1       1.917   5.790  18.045  0.00  0.00    +0.000 C 
ENDBRANCH   8  21
BRANCH  11  27
ATOM     27  C   UNL     1      -1.390  10.303  18.011  0.00  0.00    +0.000 C 
ATOM     28  C   UNL     1      -2.743   9.599  17.904  0.00  0.00    +0.000 C 
ATOM     29  C   UNL     1      -3.275   9.996  16.535  0.00  0.00    +0.000 C 
ATOM     30  C   UNL     1      -2.652  11.348  16.202  0.00  0.00    +0.000 C 
ATOM     31  C   UNL     1      -1.567  11.612  17.240  0.00  0.00    +0.000 C 
ENDBRANCH  11  27
TORSDOF 3
ENDMDL
