MODEL 1
REMARK VINA RESULT:      -7.9      0.000      0.000
REMARK  Name = 
REMARK  2 active torsions:
REMARK  status: ('A' for Active; 'I' for Inactive)
REMARK    1  A    between atoms: N_14  and  C_15
REMARK    2  A    between atoms: C_15  and  C_16
REMARK                            x       y       z     vdW  Elec       q    Type
REMARK                         _______ _______ _______ _____ _____    ______ ____
ROOT
ATOM      1  N   UNL     1       8.710   9.733  18.432  0.00  0.00    +0.000 N 
ATOM      2  C   UNL     1       8.332   8.424  18.185  0.00  0.00    +0.000 A 
ATOM      3  N   UNL     1       8.511   7.570  19.209  0.00  0.00    +0.000 NA
ATOM      4  C   UNL     1       8.107   6.308  19.047  0.00  0.00    +0.000 A 
ATOM      5  N   UNL     1       8.130   5.483  20.167  0.00  0.00    +0.000 N 
ATOM      6  C   UNL     1       7.553   5.899  17.881  0.00  0.00    +0.000 A 
ATOM      7  C   UNL     1       7.373   6.846  16.908  0.00  0.00    +0.000 A 
ATOM      8  N   UNL     1       7.741   8.127  17.017  0.00  0.00    +0.000 NA
ATOM      9  O   UNL     1       6.456   6.396  15.930  0.00  0.00    +0.000 OA
ATOM     10  C   UNL     1       5.698   5.358  16.684  0.00  0.00    +0.000 C 
ATOM     11  C   UNL     1       4.649   6.164  17.480  0.00  0.00    +0.000 C 
ATOM     12  C   UNL     1       3.978   5.386  18.591  0.00  0.00    +0.000 C 
ATOM     13  C   UNL     1       2.708   4.752  18.067  0.00  0.00    +0.000 C 
ATOM     14  N   UNL     1       2.958   3.535  17.311  0.00  0.00    +0.000 NA
ATOM     15  C   UNL     1       3.622   3.712  16.016  0.00  0.00    +0.000 C 
ATOM     16  C   UNL     1       5.040   4.316  15.742  0.00  0.00    +0.000 C 
ATOM     17  C   UNL     1       6.818   4.677  17.504  0.00  0.00    +0.000 C 
ATOM     18  H   UNL     1       8.707   9.883  19.434  0.00  0.00    +0.000 HD
ATOM     19  H   UNL     1       8.149  10.358  17.874  0.00  0.00    +0.000 HD
ATOM     20  H   UNL     1       8.582   5.983  20.925  0.00  0.00    +0.000 HD
ATOM     21  H   UNL     1       8.555   4.583  19.986  0.00  0.00    +0.000 HD
ENDROOT
BRANCH  14  22
ATOM     22  C   UNL     1       3.289   2.352  18.127  0.00  0.00    +0.000 C 
BRANCH  22  23
ATOM     23  C   UNL     1       2.686   2.406  19.535  0.00  0.00    +0.000 A 
ATOM     24  N   UNL     1       3.395   2.474  20.650  0.00  0.00    +0.000 NA
ATOM     25  C   UNL     1       2.561   2.712  21.728  0.00  0.00    +0.000 A 
ATOM     26  C   UNL     1       1.215   2.752  21.442  0.00  0.00    +0.000 A 
ATOM     27  S   UNL     1       0.975   2.513  19.758  0.00  0.00    +0.000 S 
ENDBRANCH  22  23
ENDBRANCH  14  22
TORSDOF 2
ENDMDL
MODEL 2
REMARK VINA RESULT:      -7.3      3.079      6.831
REMARK  Name = 
REMARK  2 active torsions:
REMARK  status: ('A' for Active; 'I' for Inactive)
REMARK    1  A    between atoms: N_14  and  C_15
REMARK    2  A    between atoms: C_15  and  C_16
REMARK                            x       y       z     vdW  Elec       q    Type
REMARK                         _______ _______ _______ _____ _____    ______ ____
ROOT
ATOM      1  N   UNL     1       0.298   2.950  20.685  0.00  0.00    +0.000 N 
ATOM      2  C   UNL     1       1.627   3.054  20.308  0.00  0.00    +0.000 A 
ATOM      3  N   UNL     1       2.097   2.034  19.568  0.00  0.00    +0.000 NA
ATOM      4  C   UNL     1       3.354   2.112  19.126  0.00  0.00    +0.000 A 
ATOM      5  N   UNL     1       3.771   1.146  18.217  0.00  0.00    +0.000 N 
ATOM      6  C   UNL     1       4.135   3.175  19.431  0.00  0.00    +0.000 A 
ATOM      7  C   UNL     1       3.560   4.186  20.156  0.00  0.00    +0.000 A 
ATOM      8  N   UNL     1       2.303   4.174  20.612  0.00  0.00    +0.000 NA
ATOM      9  O   UNL     1       4.328   5.370  20.069  0.00  0.00    +0.000 OA
ATOM     10  C   UNL     1       5.087   5.143  18.807  0.00  0.00    +0.000 C 
ATOM     11  C   UNL     1       4.097   5.552  17.695  0.00  0.00    +0.000 C 
ATOM     12  C   UNL     1       4.491   5.092  16.309  0.00  0.00    +0.000 C 
ATOM     13  C   UNL     1       5.296   6.176  15.627  0.00  0.00    +0.000 C 
ATOM     14  N   UNL     1       6.686   6.200  16.059  0.00  0.00    +0.000 NA
ATOM     15  C   UNL     1       6.919   6.638  17.437  0.00  0.00    +0.000 C 
ATOM     16  C   UNL     1       6.396   5.973  18.755  0.00  0.00    +0.000 C 
ATOM     17  C   UNL     1       5.433   3.640  18.908  0.00  0.00    +0.000 C 
ATOM     18  H   UNL     1      -0.168   2.323  20.040  0.00  0.00    +0.000 HD
ATOM     19  H   UNL     1      -0.097   3.872  20.792  0.00  0.00    +0.000 HD
ATOM     20  H   UNL     1       3.040   0.448  18.132  0.00  0.00    +0.000 HD
ATOM     21  H   UNL     1       4.669   0.743  18.452  0.00  0.00    +0.000 HD
ENDROOT
BRANCH  14  22
ATOM     22  C   UNL     1       7.531   5.129  15.497  0.00  0.00    +0.000 C 
BRANCH  22  23
ATOM     23  C   UNL     1       7.267   4.876  14.009  0.00  0.00    +0.000 A 
ATOM     24  N   UNL     1       7.881   5.509  13.022  0.00  0.00    +0.000 NA
ATOM     25  C   UNL     1       7.571   4.915  11.812  0.00  0.00    +0.000 A 
ATOM     26  C   UNL     1       6.666   3.879  11.872  0.00  0.00    +0.000 A 
ATOM     27  S   UNL     1       6.202   3.612  13.504  0.00  0.00    +0.000 S 
ENDBRANCH  22  23
ENDBRANCH  14  22
TORSDOF 2
ENDMDL
MODEL 3
REMARK VINA RESULT:      -7.0      4.791      7.071
REMARK  Name = 
REMARK  2 active torsions:
REMARK  status: ('A' for Active; 'I' for Inactive)
REMARK    1  A    between atoms: N_14  and  C_15
REMARK    2  A    between atoms: C_15  and  C_16
REMARK                            x       y       z     vdW  Elec       q    Type
REMARK                         _______ _______ _______ _____ _____    ______ ____
ROOT
ATOM      1  N   UNL     1       4.883   1.659  19.718  0.00  0.00    +0.000 N 
ATOM      2  C   UNL     1       3.982   2.588  19.225  0.00  0.00    +0.000 A 
ATOM      3  N   UNL     1       2.689   2.337  19.501  0.00  0.00    +0.000 NA
ATOM      4  C   UNL     1       1.782   3.232  19.103  0.00  0.00    +0.000 A 
ATOM      5  N   UNL     1       0.476   3.058  19.548  0.00  0.00    +0.000 N 
ATOM      6  C   UNL     1       2.152   4.345  18.425  0.00  0.00    +0.000 A 
ATOM      7  C   UNL     1       3.494   4.537  18.224  0.00  0.00    +0.000 A 
ATOM      8  N   UNL     1       4.450   3.687  18.613  0.00  0.00    +0.000 NA
ATOM      9  O   UNL     1       3.765   5.880  17.872  0.00  0.00    +0.000 OA
ATOM     10  C   UNL     1       2.568   6.580  18.419  0.00  0.00    +0.000 C 
ATOM     11  C   UNL     1       2.897   6.773  19.915  0.00  0.00    +0.000 C 
ATOM     12  C   UNL     1       1.707   7.147  20.771  0.00  0.00    +0.000 C 
ATOM     13  C   UNL     1       1.609   8.653  20.869  0.00  0.00    +0.000 C 
ATOM     14  N   UNL     1       1.002   9.255  19.691  0.00  0.00    +0.000 NA
ATOM     15  C   UNL     1       1.800   9.202  18.464  0.00  0.00    +0.000 C 
ATOM     16  C   UNL     1       2.303   7.930  17.702  0.00  0.00    +0.000 C 
ATOM     17  C   UNL     1       1.433   5.585  18.080  0.00  0.00    +0.000 C 
ATOM     18  H   UNL     1       4.448   1.171  20.492  0.00  0.00    +0.000 HD
ATOM     19  H   UNL     1       5.768   2.108  19.899  0.00  0.00    +0.000 HD
ATOM     20  H   UNL     1       0.418   2.168  20.032  0.00  0.00    +0.000 HD
ATOM     21  H   UNL     1      -0.209   3.144  18.809  0.00  0.00    +0.000 HD
ENDROOT
BRANCH  14  22
ATOM     22  C   UNL     1      -0.462   9.101  19.598  0.00  0.00    +0.000 C 
BRANCH  22  23
ATOM     23  C   UNL     1      -1.140  10.255  18.852  0.00  0.00    +0.000 A 
ATOM     24  N   UNL     1      -0.951  11.536  19.126  0.00  0.00    +0.000 NA
ATOM     25  C   UNL     1      -1.543  12.321  18.153  0.00  0.00    +0.000 A 
ATOM     26  C   UNL     1      -2.243  11.640  17.183  0.00  0.00    +0.000 A 
ATOM     27  S   UNL     1      -2.139   9.951  17.475  0.00  0.00    +0.000 S 
ENDBRANCH  22  23
ENDBRANCH  14  22
TORSDOF 2
ENDMDL
MODEL 4
REMARK VINA RESULT:      -6.9      4.912      7.024
REMARK  Name = 
REMARK  2 active torsions:
REMARK  status: ('A' for Active; 'I' for Inactive)
REMARK    1  A    between atoms: N_14  and  C_15
REMARK    2  A    between atoms: C_15  and  C_16
REMARK                            x       y       z     vdW  Elec       q    Type
REMARK                         _______ _______ _______ _____ _____    ______ ____
ROOT
ATOM      1  N   UNL     1       5.000   1.768  20.097  0.00  0.00    +0.000 N 
ATOM      2  C   UNL     1       4.199   2.690  19.443  0.00  0.00    +0.000 A 
ATOM      3  N   UNL     1       2.884   2.408  19.438  0.00  0.00    +0.000 NA
ATOM      4  C   UNL     1       2.060   3.294  18.874  0.00  0.00    +0.000 A 
ATOM      5  N   UNL     1       0.694   3.084  19.033  0.00  0.00    +0.000 N 
ATOM      6  C   UNL     1       2.536   4.428  18.309  0.00  0.00    +0.000 A 
ATOM      7  C   UNL     1       3.886   4.651  18.397  0.00  0.00    +0.000 A 
ATOM      8  N   UNL     1       4.760   3.811  18.962  0.00  0.00    +0.000 NA
ATOM      9  O   UNL     1       4.192   6.006  18.132  0.00  0.00    +0.000 OA
ATOM     10  C   UNL     1       2.891   6.670  18.428  0.00  0.00    +0.000 C 
ATOM     11  C   UNL     1       2.896   6.837  19.963  0.00  0.00    +0.000 C 
ATOM     12  C   UNL     1       1.545   7.169  20.558  0.00  0.00    +0.000 C 
ATOM     13  C   UNL     1       1.394   8.671  20.659  0.00  0.00    +0.000 C 
ATOM     14  N   UNL     1       1.032   9.286  19.391  0.00  0.00    +0.000 NA
ATOM     15  C   UNL     1       2.070   9.276  18.357  0.00  0.00    +0.000 C 
ATOM     16  C   UNL     1       2.750   8.030  17.695  0.00  0.00    +0.000 C 
ATOM     17  C   UNL     1       1.876   5.662  17.843  0.00  0.00    +0.000 C 
ATOM     18  H   UNL     1       4.424   1.255  20.755  0.00  0.00    +0.000 HD
ATOM     19  H   UNL     1       5.816   2.230  20.467  0.00  0.00    +0.000 HD
ATOM     20  H   UNL     1       0.556   2.183  19.478  0.00  0.00    +0.000 HD
ATOM     21  H   UNL     1       0.177   3.174  18.168  0.00  0.00    +0.000 HD
ENDROOT
BRANCH  14  22
ATOM     22  C   UNL     1      -0.376   9.105  18.991  0.00  0.00    +0.000 C 
BRANCH  22  23
ATOM     23  C   UNL     1      -1.183  10.408  19.032  0.00  0.00    +0.000 A 
ATOM     24  N   UNL     1      -2.228  10.664  18.262  0.00  0.00    +0.000 NA
ATOM     25  C   UNL     1      -2.850  11.827  18.679  0.00  0.00    +0.000 A 
ATOM     26  C   UNL     1      -2.236  12.492  19.717  0.00  0.00    +0.000 A 
ATOM     27  S   UNL     1      -0.843  11.621  20.215  0.00  0.00    +0.000 S 
ENDBRANCH  22  23
ENDBRANCH  14  22
TORSDOF 2
ENDMDL
MODEL 5
REMARK VINA RESULT:      -6.8      3.104      6.728
REMARK  Name = 
REMARK  2 active torsions:
REMARK  status: ('A' for Active; 'I' for Inactive)
REMARK    1  A    between atoms: N_14  and  C_15
REMARK    2  A    between atoms: C_15  and  C_16
REMARK                            x       y       z     vdW  Elec       q    Type
REMARK                         _______ _______ _______ _____ _____    ______ ____
ROOT
ATOM      1  N   UNL     1       1.427   2.675  22.348  0.00  0.00    +0.000 N 
ATOM      2  C   UNL     1       2.043   2.737  21.109  0.00  0.00    +0.000 A 
ATOM      3  N   UNL     1       1.221   2.967  20.069  0.00  0.00    +0.000 NA
ATOM      4  C   UNL     1       1.769   3.097  18.859  0.00  0.00    +0.000 A 
ATOM      5  N   UNL     1       0.938   3.512  17.824  0.00  0.00    +0.000 N 
ATOM      6  C   UNL     1       3.107   2.981  18.683  0.00  0.00    +0.000 A 
ATOM      7  C   UNL     1       3.870   2.787  19.805  0.00  0.00    +0.000 A 
ATOM      8  N   UNL     1       3.382   2.665  21.045  0.00  0.00    +0.000 NA
ATOM      9  O   UNL     1       5.231   3.071  19.546  0.00  0.00    +0.000 OA
ATOM     10  C   UNL     1       5.128   3.970  18.361  0.00  0.00    +0.000 C 
ATOM     11  C   UNL     1       4.822   5.357  18.968  0.00  0.00    +0.000 C 
ATOM     12  C   UNL     1       4.328   6.379  17.968  0.00  0.00    +0.000 C 
ATOM     13  C   UNL     1       5.502   7.166  17.429  0.00  0.00    +0.000 C 
ATOM     14  N   UNL     1       6.233   6.448  16.395  0.00  0.00    +0.000 NA
ATOM     15  C   UNL     1       6.989   5.276  16.844  0.00  0.00    +0.000 C 
ATOM     16  C   UNL     1       6.430   3.978  17.519  0.00  0.00    +0.000 C 
ATOM     17  C   UNL     1       3.994   3.302  17.550  0.00  0.00    +0.000 C 
ATOM     18  H   UNL     1       0.544   3.170  22.291  0.00  0.00    +0.000 HD
ATOM     19  H   UNL     1       2.074   2.973  23.063  0.00  0.00    +0.000 HD
ATOM     20  H   UNL     1      -0.017   3.535  18.168  0.00  0.00    +0.000 HD
ATOM     21  H   UNL     1       1.036   2.951  16.988  0.00  0.00    +0.000 HD
ENDROOT
BRANCH  14  22
ATOM     22  C   UNL     1       5.571   6.409  15.078  0.00  0.00    +0.000 C 
BRANCH  22  23
ATOM     23  C   UNL     1       6.044   5.242  14.204  0.00  0.00    +0.000 A 
ATOM     24  N   UNL     1       5.347   4.138  13.990  0.00  0.00    +0.000 NA
ATOM     25  C   UNL     1       5.953   3.378  13.006  0.00  0.00    +0.000 A 
ATOM     26  C   UNL     1       7.146   3.868  12.525  0.00  0.00    +0.000 A 
ATOM     27  S   UNL     1       7.518   5.351  13.308  0.00  0.00    +0.000 S 
ENDBRANCH  22  23
ENDBRANCH  14  22
TORSDOF 2
ENDMDL
MODEL 6
REMARK VINA RESULT:      -6.7      4.100      5.000
REMARK  Name = 
REMARK  2 active torsions:
REMARK  status: ('A' for Active; 'I' for Inactive)
REMARK    1  A    between atoms: N_14  and  C_15
REMARK    2  A    between atoms: C_15  and  C_16
REMARK                            x       y       z     vdW  Elec       q    Type
REMARK                         _______ _______ _______ _____ _____    ______ ____
ROOT
ATOM      1  N   UNL     1       7.462   4.692  14.321  0.00  0.00    +0.000 N 
ATOM      2  C   UNL     1       7.024   4.949  15.609  0.00  0.00    +0.000 A 
ATOM      3  N   UNL     1       7.477   6.093  16.153  0.00  0.00    +0.000 NA
ATOM      4  C   UNL     1       7.039   6.421  17.370  0.00  0.00    +0.000 A 
ATOM      5  N   UNL     1       7.367   7.686  17.847  0.00  0.00    +0.000 N 
ATOM      6  C   UNL     1       6.182   5.617  18.042  0.00  0.00    +0.000 A 
ATOM      7  C   UNL     1       5.742   4.492  17.394  0.00  0.00    +0.000 A 
ATOM      8  N   UNL     1       6.132   4.118  16.170  0.00  0.00    +0.000 NA
ATOM      9  O   UNL     1       4.588   3.966  18.021  0.00  0.00    +0.000 OA
ATOM     10  C   UNL     1       4.065   5.164  18.737  0.00  0.00    +0.000 C 
ATOM     11  C   UNL     1       3.281   5.936  17.654  0.00  0.00    +0.000 C 
ATOM     12  C   UNL     1       2.941   7.362  18.028  0.00  0.00    +0.000 C 
ATOM     13  C   UNL     1       1.573   7.402  18.673  0.00  0.00    +0.000 C 
ATOM     14  N   UNL     1       1.598   6.998  20.071  0.00  0.00    +0.000 NA
ATOM     15  C   UNL     1       1.878   5.582  20.321  0.00  0.00    +0.000 C 
ATOM     16  C   UNL     1       3.168   4.779  19.942  0.00  0.00    +0.000 C 
ATOM     17  C   UNL     1       5.366   5.822  19.253  0.00  0.00    +0.000 C 
ATOM     18  H   UNL     1       7.738   5.570  13.896  0.00  0.00    +0.000 HD
ATOM     19  H   UNL     1       6.770   4.144  13.831  0.00  0.00    +0.000 HD
ATOM     20  H   UNL     1       8.014   8.117  17.195  0.00  0.00    +0.000 HD
ATOM     21  H   UNL     1       7.722   7.672  18.794  0.00  0.00    +0.000 HD
ENDROOT
BRANCH  14  22
ATOM     22  C   UNL     1       2.138   8.008  21.001  0.00  0.00    +0.000 C 
BRANCH  22  23
ATOM     23  C   UNL     1       1.077   9.001  21.489  0.00  0.00    +0.000 A 
ATOM     24  N   UNL     1       0.437   8.905  22.642  0.00  0.00    +0.000 NA
ATOM     25  C   UNL     1      -0.298  10.053  22.874  0.00  0.00    +0.000 A 
ATOM     26  C   UNL     1      -0.275  10.989  21.864  0.00  0.00    +0.000 A 
ATOM     27  S   UNL     1       0.726  10.432  20.585  0.00  0.00    +0.000 S 
ENDBRANCH  22  23
ENDBRANCH  14  22
TORSDOF 2
ENDMDL
MODEL 7
REMARK VINA RESULT:      -6.6      4.932      7.032
REMARK  Name = 
REMARK  2 active torsions:
REMARK  status: ('A' for Active; 'I' for Inactive)
REMARK    1  A    between atoms: N_14  and  C_15
REMARK    2  A    between atoms: C_15  and  C_16
REMARK                            x       y       z     vdW  Elec       q    Type
REMARK                         _______ _______ _______ _____ _____    ______ ____
ROOT
ATOM      1  N   UNL     1       5.207   2.534  19.581  0.00  0.00    +0.000 N 
ATOM      2  C   UNL     1       4.233   3.392  19.098  0.00  0.00    +0.000 A 
ATOM      3  N   UNL     1       2.964   3.009  19.326  0.00  0.00    +0.000 NA
ATOM      4  C   UNL     1       1.986   3.829  18.935  0.00  0.00    +0.000 A 
ATOM      5  N   UNL     1       0.692   3.513  19.335  0.00  0.00    +0.000 N 
ATOM      6  C   UNL     1       2.265   4.998  18.311  0.00  0.00    +0.000 A 
ATOM      7  C   UNL     1       3.587   5.325  18.157  0.00  0.00    +0.000 A 
ATOM      8  N   UNL     1       4.610   4.555  18.541  0.00  0.00    +0.000 NA
ATOM      9  O   UNL     1       3.736   6.701  17.863  0.00  0.00    +0.000 OA
ATOM     10  C   UNL     1       2.463   7.261  18.401  0.00  0.00    +0.000 C 
ATOM     11  C   UNL     1       2.734   7.424  19.912  0.00  0.00    +0.000 C 
ATOM     12  C   UNL     1       1.492   7.648  20.746  0.00  0.00    +0.000 C 
ATOM     13  C   UNL     1       1.247   9.134  20.898  0.00  0.00    +0.000 C 
ATOM     14  N   UNL     1       0.615   9.722  19.727  0.00  0.00    +0.000 NA
ATOM     15  C   UNL     1       1.446   9.795  18.522  0.00  0.00    +0.000 C 
ATOM     16  C   UNL     1       2.088   8.607  17.728  0.00  0.00    +0.000 C 
ATOM     17  C   UNL     1       1.439   6.178  17.992  0.00  0.00    +0.000 C 
ATOM     18  H   UNL     1       4.801   1.976  20.323  0.00  0.00    +0.000 HD
ATOM     19  H   UNL     1       6.039   3.058  19.805  0.00  0.00    +0.000 HD
ATOM     20  H   UNL     1       0.707   2.603  19.782  0.00  0.00    +0.000 HD
ATOM     21  H   UNL     1       0.021   3.564  18.579  0.00  0.00    +0.000 HD
ENDROOT
BRANCH  14  22
ATOM     22  C   UNL     1      -0.824   9.433  19.585  0.00  0.00    +0.000 C 
BRANCH  22  23
ATOM     23  C   UNL     1      -1.460  10.132  18.378  0.00  0.00    +0.000 A 
ATOM     24  N   UNL     1      -1.602   9.581  17.184  0.00  0.00    +0.000 NA
ATOM     25  C   UNL     1      -2.386  10.388  16.379  0.00  0.00    +0.000 A 
ATOM     26  C   UNL     1      -2.779  11.584  16.938  0.00  0.00    +0.000 A 
ATOM     27  S   UNL     1      -2.171  11.699  18.540  0.00  0.00    +0.000 S 
ENDBRANCH  22  23
ENDBRANCH  14  22
TORSDOF 2
ENDMDL
MODEL 8
REMARK VINA RESULT:      -6.6      4.667      6.842
REMARK  Name = 
REMARK  2 active torsions:
REMARK  status: ('A' for Active; 'I' for Inactive)
REMARK    1  A    between atoms: N_14  and  C_15
REMARK    2  A    between atoms: C_15  and  C_16
REMARK                            x       y       z     vdW  Elec       q    Type
REMARK                         _______ _______ _______ _____ _____    ______ ____
ROOT
ATOM      1  N   UNL     1       4.336   0.926  18.611  0.00  0.00    +0.000 N 
ATOM      2  C   UNL     1       3.516   2.007  18.333  0.00  0.00    +0.000 A 
ATOM      3  N   UNL     1       2.241   1.882  18.744  0.00  0.00    +0.000 NA
ATOM      4  C   UNL     1       1.422   2.919  18.557  0.00  0.00    +0.000 A 
ATOM      5  N   UNL     1       0.163   2.852  19.145  0.00  0.00    +0.000 N 
ATOM      6  C   UNL     1       1.857   4.051  17.953  0.00  0.00    +0.000 A 
ATOM      7  C   UNL     1       3.181   4.103  17.603  0.00  0.00    +0.000 A 
ATOM      8  N   UNL     1       4.054   3.105  17.780  0.00  0.00    +0.000 NA
ATOM      9  O   UNL     1       3.585   5.436  17.356  0.00  0.00    +0.000 OA
ATOM     10  C   UNL     1       2.562   6.206  18.118  0.00  0.00    +0.000 C 
ATOM     11  C   UNL     1       3.081   6.183  19.573  0.00  0.00    +0.000 C 
ATOM     12  C   UNL     1       2.057   6.595  20.606  0.00  0.00    +0.000 C 
ATOM     13  C   UNL     1       2.171   8.080  20.867  0.00  0.00    +0.000 C 
ATOM     14  N   UNL     1       1.519   8.883  19.843  0.00  0.00    +0.000 NA
ATOM     15  C   UNL     1       2.159   8.878  18.524  0.00  0.00    +0.000 C 
ATOM     16  C   UNL     1       2.398   7.651  17.581  0.00  0.00    +0.000 C 
ATOM     17  C   UNL     1       1.275   5.400  17.829  0.00  0.00    +0.000 C 
ATOM     18  H   UNL     1       3.931   0.407  19.381  0.00  0.00    +0.000 HD
ATOM     19  H   UNL     1       5.287   1.243  18.722  0.00  0.00    +0.000 HD
ATOM     20  H   UNL     1       0.042   1.925  19.540  0.00  0.00    +0.000 HD
ATOM     21  H   UNL     1      -0.583   3.104  18.511  0.00  0.00    +0.000 HD
ENDROOT
BRANCH  14  22
ATOM     22  C   UNL     1       0.047   8.916  19.921  0.00  0.00    +0.000 C 
BRANCH  22  23
ATOM     23  C   UNL     1      -0.472   9.763  21.089  0.00  0.00    +0.000 A 
ATOM     24  N   UNL     1      -0.663   9.308  22.316  0.00  0.00    +0.000 NA
ATOM     25  C   UNL     1      -0.940  10.357  23.174  0.00  0.00    +0.000 A 
ATOM     26  C   UNL     1      -1.032  11.599  22.585  0.00  0.00    +0.000 A 
ATOM     27  S   UNL     1      -0.734  11.461  20.899  0.00  0.00    +0.000 S 
ENDBRANCH  22  23
ENDBRANCH  14  22
TORSDOF 2
ENDMDL
MODEL 9
REMARK VINA RESULT:      -6.6      6.035      7.433
REMARK  Name = 
REMARK  2 active torsions:
REMARK  status: ('A' for Active; 'I' for Inactive)
REMARK    1  A    between atoms: N_14  and  C_15
REMARK    2  A    between atoms: C_15  and  C_16
REMARK                            x       y       z     vdW  Elec       q    Type
REMARK                         _______ _______ _______ _____ _____    ______ ____
ROOT
ATOM      1  N   UNL     1      -0.479  14.660  18.593  0.00  0.00    +0.000 N 
ATOM      2  C   UNL     1      -0.574  13.295  18.808  0.00  0.00    +0.000 A 
ATOM      3  N   UNL     1      -1.264  12.612  17.877  0.00  0.00    +0.000 NA
ATOM      4  C   UNL     1      -1.336  11.285  18.003  0.00  0.00    +0.000 A 
ATOM      5  N   UNL     1      -1.892  10.574  16.945  0.00  0.00    +0.000 N 
ATOM      6  C   UNL     1      -0.749  10.652  19.045  0.00  0.00    +0.000 A 
ATOM      7  C   UNL     1      -0.033  11.424  19.923  0.00  0.00    +0.000 A 
ATOM      8  N   UNL     1       0.089  12.753  19.842  0.00  0.00    +0.000 NA
ATOM      9  O   UNL     1       0.829  10.625  20.711  0.00  0.00    +0.000 OA
ATOM     10  C   UNL     1       0.973   9.411  19.859  0.00  0.00    +0.000 C 
ATOM     11  C   UNL     1       2.061   9.799  18.833  0.00  0.00    +0.000 C 
ATOM     12  C   UNL     1       2.152   8.873  17.641  0.00  0.00    +0.000 C 
ATOM     13  C   UNL     1       3.172   7.791  17.918  0.00  0.00    +0.000 C 
ATOM     14  N   UNL     1       2.646   6.725  18.757  0.00  0.00    +0.000 NA
ATOM     15  C   UNL     1       2.376   7.084  20.152  0.00  0.00    +0.000 C 
ATOM     16  C   UNL     1       1.373   8.161  20.686  0.00  0.00    +0.000 C 
ATOM     17  C   UNL     1      -0.462   9.230  19.313  0.00  0.00    +0.000 C 
ATOM     18  H   UNL     1      -0.626  14.838  17.606  0.00  0.00    +0.000 HD
ATOM     19  H   UNL     1       0.376  15.008  18.999  0.00  0.00    +0.000 HD
ATOM     20  H   UNL     1      -2.270  11.236  16.275  0.00  0.00    +0.000 HD
ATOM     21  H   UNL     1      -2.576   9.891  17.244  0.00  0.00    +0.000 HD
ENDROOT
BRANCH  14  22
ATOM     22  C   UNL     1       1.739   5.784  18.073  0.00  0.00    +0.000 C 
BRANCH  22  23
ATOM     23  C   UNL     1       2.226   4.332  18.129  0.00  0.00    +0.000 A 
ATOM     24  N   UNL     1       1.487   3.282  17.811  0.00  0.00    +0.000 NA
ATOM     25  C   UNL     1       2.272   2.144  17.772  0.00  0.00    +0.000 A 
ATOM     26  C   UNL     1       3.590   2.317  18.131  0.00  0.00    +0.000 A 
ATOM     27  S   UNL     1       3.874   3.968  18.506  0.00  0.00    +0.000 S 
ENDBRANCH  22  23
ENDBRANCH  14  22
TORSDOF 2
ENDMDL
