MODEL 1
REMARK VINA RESULT:      -7.2      0.000      0.000
REMARK  Name = 
REMARK  7 active torsions:
REMARK  status: ('A' for Active; 'I' for Inactive)
REMARK    1  A    between atoms: C_2  and  C_3
REMARK    2  A    between atoms: C_3  and  C_4
REMARK    3  A    between atoms: C_4  and  C_5
REMARK    4  A    between atoms: C_8  and  C_9
REMARK    5  A    between atoms: N_15  and  C_16
REMARK    6  A    between atoms: C_16  and  C_17
REMARK    7  A    between atoms: N_20  and  C_21
REMARK                            x       y       z     vdW  Elec       q    Type
REMARK                         _______ _______ _______ _____ _____    ______ ____
ROOT
ATOM      1  O   UNL     1       0.983   3.763  17.572  0.00  0.00    +0.000 OA
ATOM      2  C   UNL     1       1.640   3.556  18.590  0.00  0.00    +0.000 C 
ATOM      3  N   UNL     1       2.979   3.234  18.587  0.00  0.00    +0.000 N 
ATOM      4  H   UNL     1       3.424   2.958  19.455  0.00  0.00    +0.000 HD
ENDROOT
BRANCH   2   5
ATOM      5  C   UNL     1       1.029   3.660  19.966  0.00  0.00    +0.000 C 
BRANCH   5   6
ATOM      6  C   UNL     1       1.932   4.458  20.895  0.00  0.00    +0.000 C 
BRANCH   6   7
ATOM      7  C   UNL     1       1.888   5.906  20.586  0.00  0.00    +0.000 A 
ATOM      8  N   UNL     1       2.525   6.577  19.651  0.00  0.00    +0.000 NA
ATOM      9  N   UNL     1       2.105   7.885  19.771  0.00  0.00    +0.000 NA
ATOM     10  C   UNL     1       1.245   7.927  20.772  0.00  0.00    +0.000 A 
ATOM     11  O   UNL     1       1.073   6.690  21.350  0.00  0.00    +0.000 OA
BRANCH  10  12
ATOM     12  C   UNL     1       0.515   9.154  21.197  0.00  0.00    +0.000 A 
ATOM     13  C   UNL     1       0.132   9.453  22.538  0.00  0.00    +0.000 A 
ATOM     14  C   UNL     1      -0.483  10.680  22.636  0.00  0.00    +0.000 A 
ATOM     15  S   UNL     1      -0.632  11.450  21.114  0.00  0.00    +0.000 S 
ATOM     16  C   UNL     1       0.150  10.149  20.318  0.00  0.00    +0.000 A 
ENDBRANCH  10  12
ENDBRANCH   6   7
ENDBRANCH   5   6
ENDBRANCH   2   5
BRANCH   3  17
ATOM     17  C   UNL     1       3.751   3.116  17.361  0.00  0.00    +0.000 C 
BRANCH  17  18
ATOM     18  C   UNL     1       4.391   4.451  16.959  0.00  0.00    +0.000 C 
ATOM     19  C   UNL     1       5.139   4.378  15.631  0.00  0.00    +0.000 C 
ATOM     20  C   UNL     1       6.567   4.080  16.047  0.00  0.00    +0.000 C 
ATOM     21  N   UNL     1       6.770   4.879  17.267  0.00  0.00    +0.000 NA
ATOM     22  C   UNL     1       5.471   4.869  17.967  0.00  0.00    +0.000 C 
BRANCH  21  23
ATOM     23  C   UNL     1       7.272   6.240  16.981  0.00  0.00    +0.000 C 
ATOM     24  C   UNL     1       6.533   7.442  17.511  0.00  0.00    +0.000 C 
ATOM     25  C   UNL     1       7.843   7.046  18.121  0.00  0.00    +0.000 C 
ENDBRANCH  21  23
ENDBRANCH  17  18
ENDBRANCH   3  17
TORSDOF 7
ENDMDL
MODEL 2
REMARK VINA RESULT:      -7.0      5.199      7.928
REMARK  Name = 
REMARK  7 active torsions:
REMARK  status: ('A' for Active; 'I' for Inactive)
REMARK    1  A    between atoms: C_2  and  C_3
REMARK    2  A    between atoms: C_3  and  C_4
REMARK    3  A    between atoms: C_4  and  C_5
REMARK    4  A    between atoms: C_8  and  C_9
REMARK    5  A    between atoms: N_15  and  C_16
REMARK    6  A    between atoms: C_16  and  C_17
REMARK    7  A    between atoms: N_20  and  C_21
REMARK                            x       y       z     vdW  Elec       q    Type
REMARK                         _______ _______ _______ _____ _____    ______ ____
ROOT
ATOM      1  O   UNL     1       7.630   6.203  15.904  0.00  0.00    +0.000 OA
ATOM      2  C   UNL     1       7.157   6.252  17.037  0.00  0.00    +0.000 C 
ATOM      3  N   UNL     1       6.159   5.416  17.489  0.00  0.00    +0.000 N 
ATOM      4  H   UNL     1       5.735   5.594  18.392  0.00  0.00    +0.000 HD
ENDROOT
BRANCH   2   5
ATOM      5  C   UNL     1       7.651   7.239  18.065  0.00  0.00    +0.000 C 
BRANCH   5   6
ATOM      6  C   UNL     1       7.382   8.666  17.611  0.00  0.00    +0.000 C 
BRANCH   6   7
ATOM      7  C   UNL     1       8.368   9.614  18.179  0.00  0.00    +0.000 A 
ATOM      8  N   UNL     1       9.145   9.476  19.230  0.00  0.00    +0.000 NA
ATOM      9  N   UNL     1       9.895  10.631  19.302  0.00  0.00    +0.000 NA
ATOM     10  C   UNL     1       9.523  11.399  18.293  0.00  0.00    +0.000 A 
ATOM     11  O   UNL     1       8.532  10.810  17.542  0.00  0.00    +0.000 OA
BRANCH  10  12
ATOM     12  C   UNL     1      10.133  12.721  17.980  0.00  0.00    +0.000 A 
ATOM     13  C   UNL     1       9.466  13.977  18.103  0.00  0.00    +0.000 A 
ATOM     14  C   UNL     1      10.295  15.031  17.794  0.00  0.00    +0.000 A 
ATOM     15  S   UNL     1      11.855  14.508  17.322  0.00  0.00    +0.000 S 
ATOM     16  C   UNL     1      11.434  12.863  17.553  0.00  0.00    +0.000 A 
ENDBRANCH  10  12
ENDBRANCH   6   7
ENDBRANCH   5   6
ENDBRANCH   2   5
BRANCH   3  17
ATOM     17  C   UNL     1       5.573   4.378  16.656  0.00  0.00    +0.000 C 
BRANCH  17  18
ATOM     18  C   UNL     1       4.565   3.524  17.436  0.00  0.00    +0.000 C 
ATOM     19  C   UNL     1       3.114   3.857  17.097  0.00  0.00    +0.000 C 
ATOM     20  C   UNL     1       2.730   4.872  18.158  0.00  0.00    +0.000 C 
ATOM     21  N   UNL     1       3.385   4.389  19.384  0.00  0.00    +0.000 NA
ATOM     22  C   UNL     1       4.663   3.796  18.943  0.00  0.00    +0.000 C 
BRANCH  21  23
ATOM     23  C   UNL     1       2.538   3.453  20.154  0.00  0.00    +0.000 C 
ATOM     24  C   UNL     1       2.244   3.725  21.606  0.00  0.00    +0.000 C 
ATOM     25  C   UNL     1       1.168   3.915  20.582  0.00  0.00    +0.000 C 
ENDBRANCH  21  23
ENDBRANCH  17  18
ENDBRANCH   3  17
TORSDOF 7
ENDMDL
MODEL 3
REMARK VINA RESULT:      -7.0      5.910      8.314
REMARK  Name = 
REMARK  7 active torsions:
REMARK  status: ('A' for Active; 'I' for Inactive)
REMARK    1  A    between atoms: C_2  and  C_3
REMARK    2  A    between atoms: C_3  and  C_4
REMARK    3  A    between atoms: C_4  and  C_5
REMARK    4  A    between atoms: C_8  and  C_9
REMARK    5  A    between atoms: N_15  and  C_16
REMARK    6  A    between atoms: C_16  and  C_17
REMARK    7  A    between atoms: N_20  and  C_21
REMARK                            x       y       z     vdW  Elec       q    Type
REMARK                         _______ _______ _______ _____ _____    ______ ____
ROOT
ATOM      1  O   UNL     1       8.403   7.203  18.778  0.00  0.00    +0.000 OA
ATOM      2  C   UNL     1       7.930   7.841  17.841  0.00  0.00    +0.000 C 
ATOM      3  N   UNL     1       7.232   7.271  16.799  0.00  0.00    +0.000 N 
ATOM      4  H   UNL     1       6.977   7.844  16.002  0.00  0.00    +0.000 HD
ENDROOT
BRANCH   2   5
ATOM      5  C   UNL     1       8.056   9.342  17.756  0.00  0.00    +0.000 C 
BRANCH   5   6
ATOM      6  C   UNL     1       8.979   9.866  18.846  0.00  0.00    +0.000 C 
BRANCH   6   7
ATOM      7  C   UNL     1       9.581  11.166  18.473  0.00  0.00    +0.000 A 
ATOM      8  N   UNL     1      10.583  11.417  17.659  0.00  0.00    +0.000 NA
ATOM      9  N   UNL     1      10.718  12.789  17.634  0.00  0.00    +0.000 NA
ATOM     10  C   UNL     1       9.793  13.284  18.438  0.00  0.00    +0.000 A 
ATOM     11  O   UNL     1       9.039  12.293  19.021  0.00  0.00    +0.000 OA
BRANCH  10  12
ATOM     12  C   UNL     1       9.565  14.741  18.651  0.00  0.00    +0.000 A 
ATOM     13  C   UNL     1       9.791  15.754  17.673  0.00  0.00    +0.000 A 
ATOM     14  C   UNL     1       9.444  17.003  18.136  0.00  0.00    +0.000 A 
ATOM     15  S   UNL     1       8.884  16.958  19.753  0.00  0.00    +0.000 S 
ATOM     16  C   UNL     1       9.083  15.257  19.833  0.00  0.00    +0.000 A 
ENDBRANCH  10  12
ENDBRANCH   6   7
ENDBRANCH   5   6
ENDBRANCH   2   5
BRANCH   3  17
ATOM     17  C   UNL     1       6.979   5.842  16.717  0.00  0.00    +0.000 C 
BRANCH  17  18
ATOM     18  C   UNL     1       5.509   5.540  16.397  0.00  0.00    +0.000 C 
ATOM     19  C   UNL     1       4.565   6.666  16.813  0.00  0.00    +0.000 C 
ATOM     20  C   UNL     1       4.112   6.251  18.199  0.00  0.00    +0.000 C 
ATOM     21  N   UNL     1       3.949   4.790  18.112  0.00  0.00    +0.000 NA
ATOM     22  C   UNL     1       5.009   4.328  17.195  0.00  0.00    +0.000 C 
BRANCH  21  23
ATOM     23  C   UNL     1       2.591   4.391  17.687  0.00  0.00    +0.000 C 
ATOM     24  C   UNL     1       2.238   2.931  17.566  0.00  0.00    +0.000 C 
ATOM     25  C   UNL     1       1.687   3.738  18.702  0.00  0.00    +0.000 C 
ENDBRANCH  21  23
ENDBRANCH  17  18
ENDBRANCH   3  17
TORSDOF 7
ENDMDL
MODEL 4
REMARK VINA RESULT:      -7.0      5.922      8.419
REMARK  Name = 
REMARK  7 active torsions:
REMARK  status: ('A' for Active; 'I' for Inactive)
REMARK    1  A    between atoms: C_2  and  C_3
REMARK    2  A    between atoms: C_3  and  C_4
REMARK    3  A    between atoms: C_4  and  C_5
REMARK    4  A    between atoms: C_8  and  C_9
REMARK    5  A    between atoms: N_15  and  C_16
REMARK    6  A    between atoms: C_16  and  C_17
REMARK    7  A    between atoms: N_20  and  C_21
REMARK                            x       y       z     vdW  Elec       q    Type
REMARK                         _______ _______ _______ _____ _____    ______ ____
ROOT
ATOM      1  O   UNL     1       8.229   7.084  18.730  0.00  0.00    +0.000 OA
ATOM      2  C   UNL     1       7.836   7.848  17.851  0.00  0.00    +0.000 C 
ATOM      3  N   UNL     1       7.059   7.455  16.784  0.00  0.00    +0.000 N 
ATOM      4  H   UNL     1       6.876   8.114  16.036  0.00  0.00    +0.000 HD
ENDROOT
BRANCH   2   5
ATOM      5  C   UNL     1       8.158   9.322  17.875  0.00  0.00    +0.000 C 
BRANCH   5   6
ATOM      6  C   UNL     1       9.006   9.666  19.090  0.00  0.00    +0.000 C 
BRANCH   6   7
ATOM      7  C   UNL     1       9.770  10.918  18.885  0.00  0.00    +0.000 A 
ATOM      8  N   UNL     1      11.070  11.115  18.915  0.00  0.00    +0.000 NA
ATOM      9  N   UNL     1      11.259  12.450  18.624  0.00  0.00    +0.000 NA
ATOM     10  C   UNL     1      10.062  12.980  18.441  0.00  0.00    +0.000 A 
ATOM     11  O   UNL     1       9.061  12.052  18.611  0.00  0.00    +0.000 OA
BRANCH  10  12
ATOM     12  C   UNL     1       9.828  14.399  18.054  0.00  0.00    +0.000 A 
ATOM     13  C   UNL     1       8.580  15.081  18.172  0.00  0.00    +0.000 A 
ATOM     14  C   UNL     1       8.677  16.399  17.786  0.00  0.00    +0.000 A 
ATOM     15  S   UNL     1      10.252  16.800  17.249  0.00  0.00    +0.000 S 
ATOM     16  C   UNL     1      10.820  15.212  17.554  0.00  0.00    +0.000 A 
ENDBRANCH  10  12
ENDBRANCH   6   7
ENDBRANCH   5   6
ENDBRANCH   2   5
BRANCH   3  17
ATOM     17  C   UNL     1       6.620   6.081  16.601  0.00  0.00    +0.000 C 
BRANCH  17  18
ATOM     18  C   UNL     1       5.091   5.979  16.513  0.00  0.00    +0.000 C 
ATOM     19  C   UNL     1       4.374   6.922  17.476  0.00  0.00    +0.000 C 
ATOM     20  C   UNL     1       4.133   6.059  18.699  0.00  0.00    +0.000 C 
ATOM     21  N   UNL     1       3.791   4.735  18.156  0.00  0.00    +0.000 NA
ATOM     22  C   UNL     1       4.608   4.584  16.936  0.00  0.00    +0.000 C 
BRANCH  21  23
ATOM     23  C   UNL     1       2.341   4.574  17.914  0.00  0.00    +0.000 C 
ATOM     24  C   UNL     1       1.733   3.196  17.877  0.00  0.00    +0.000 C 
ATOM     25  C   UNL     1       1.476   4.091  19.051  0.00  0.00    +0.000 C 
ENDBRANCH  21  23
ENDBRANCH  17  18
ENDBRANCH   3  17
TORSDOF 7
ENDMDL
MODEL 5
REMARK VINA RESULT:      -7.0      5.037      7.807
REMARK  Name = 
REMARK  7 active torsions:
REMARK  status: ('A' for Active; 'I' for Inactive)
REMARK    1  A    between atoms: C_2  and  C_3
REMARK    2  A    between atoms: C_3  and  C_4
REMARK    3  A    between atoms: C_4  and  C_5
REMARK    4  A    between atoms: C_8  and  C_9
REMARK    5  A    between atoms: N_15  and  C_16
REMARK    6  A    between atoms: C_16  and  C_17
REMARK    7  A    between atoms: N_20  and  C_21
REMARK                            x       y       z     vdW  Elec       q    Type
REMARK                         _______ _______ _______ _____ _____    ______ ____
ROOT
ATOM      1  O   UNL     1       7.597   7.569  17.042  0.00  0.00    +0.000 OA
ATOM      2  C   UNL     1       8.006   7.420  18.191  0.00  0.00    +0.000 C 
ATOM      3  N   UNL     1       8.633   8.408  18.916  0.00  0.00    +0.000 N 
ATOM      4  H   UNL     1       9.051   8.177  19.810  0.00  0.00    +0.000 HD
ENDROOT
BRANCH   2   5
ATOM      5  C   UNL     1       7.836   6.117  18.933  0.00  0.00    +0.000 C 
BRANCH   5   6
ATOM      6  C   UNL     1       7.693   4.958  17.958  0.00  0.00    +0.000 C 
BRANCH   6   7
ATOM      7  C   UNL     1       6.271   4.673  17.657  0.00  0.00    +0.000 A 
ATOM      8  N   UNL     1       5.619   4.801  16.522  0.00  0.00    +0.000 NA
ATOM      9  N   UNL     1       4.334   4.367  16.772  0.00  0.00    +0.000 NA
ATOM     10  C   UNL     1       4.286   4.008  18.043  0.00  0.00    +0.000 A 
ATOM     11  O   UNL     1       5.494   4.195  18.673  0.00  0.00    +0.000 OA
BRANCH  10  12
ATOM     12  C   UNL     1       3.082   3.428  18.702  0.00  0.00    +0.000 A 
ATOM     13  C   UNL     1       2.056   2.699  18.031  0.00  0.00    +0.000 A 
ATOM     14  C   UNL     1       1.096   2.241  18.905  0.00  0.00    +0.000 A 
ATOM     15  S   UNL     1       1.411   2.719  20.518  0.00  0.00    +0.000 S 
ATOM     16  C   UNL     1       2.852   3.525  20.056  0.00  0.00    +0.000 A 
ENDBRANCH  10  12
ENDBRANCH   6   7
ENDBRANCH   5   6
ENDBRANCH   2   5
BRANCH   3  17
ATOM     17  C   UNL     1       8.862   9.742  18.385  0.00  0.00    +0.000 C 
BRANCH  17  18
ATOM     18  C   UNL     1       9.919  10.505  19.194  0.00  0.00    +0.000 C 
ATOM     19  C   UNL     1       9.328  11.262  20.381  0.00  0.00    +0.000 C 
ATOM     20  C   UNL     1       9.081  12.651  19.824  0.00  0.00    +0.000 C 
ATOM     21  N   UNL     1      10.236  12.909  18.948  0.00  0.00    +0.000 NA
ATOM     22  C   UNL     1      10.574  11.604  18.346  0.00  0.00    +0.000 C 
BRANCH  21  23
ATOM     23  C   UNL     1      11.368  13.535  19.664  0.00  0.00    +0.000 C 
ATOM     24  C   UNL     1      12.024  14.769  19.102  0.00  0.00    +0.000 C 
ATOM     25  C   UNL     1      11.148  14.879  20.312  0.00  0.00    +0.000 C 
ENDBRANCH  21  23
ENDBRANCH  17  18
ENDBRANCH   3  17
TORSDOF 7
ENDMDL
MODEL 6
REMARK VINA RESULT:      -7.0      4.383      7.110
REMARK  Name = 
REMARK  7 active torsions:
REMARK  status: ('A' for Active; 'I' for Inactive)
REMARK    1  A    between atoms: C_2  and  C_3
REMARK    2  A    between atoms: C_3  and  C_4
REMARK    3  A    between atoms: C_4  and  C_5
REMARK    4  A    between atoms: C_8  and  C_9
REMARK    5  A    between atoms: N_15  and  C_16
REMARK    6  A    between atoms: C_16  and  C_17
REMARK    7  A    between atoms: N_20  and  C_21
REMARK                            x       y       z     vdW  Elec       q    Type
REMARK                         _______ _______ _______ _____ _____    ______ ____
ROOT
ATOM      1  O   UNL     1       5.784   6.084  15.718  0.00  0.00    +0.000 OA
ATOM      2  C   UNL     1       6.258   5.287  16.523  0.00  0.00    +0.000 C 
ATOM      3  N   UNL     1       5.597   4.165  16.972  0.00  0.00    +0.000 N 
ATOM      4  H   UNL     1       6.000   3.621  17.726  0.00  0.00    +0.000 HD
ENDROOT
BRANCH   2   5
ATOM      5  C   UNL     1       7.646   5.457  17.088  0.00  0.00    +0.000 C 
BRANCH   5   6
ATOM      6  C   UNL     1       7.601   6.226  18.400  0.00  0.00    +0.000 C 
BRANCH   6   7
ATOM      7  C   UNL     1       7.947   7.653  18.208  0.00  0.00    +0.000 A 
ATOM      8  N   UNL     1       7.556   8.484  17.268  0.00  0.00    +0.000 NA
ATOM      9  N   UNL     1       8.135   9.699  17.570  0.00  0.00    +0.000 NA
ATOM     10  C   UNL     1       8.845   9.527  18.671  0.00  0.00    +0.000 A 
ATOM     11  O   UNL     1       8.780   8.229  19.123  0.00  0.00    +0.000 OA
BRANCH  10  12
ATOM     12  C   UNL     1       9.590  10.615  19.364  0.00  0.00    +0.000 A 
ATOM     13  C   UNL     1       9.316  11.077  20.686  0.00  0.00    +0.000 A 
ATOM     14  C   UNL     1      10.199  12.056  21.081  0.00  0.00    +0.000 A 
ATOM     15  S   UNL     1      11.326  12.442  19.852  0.00  0.00    +0.000 S 
ATOM     16  C   UNL     1      10.649  11.279  18.790  0.00  0.00    +0.000 A 
ENDBRANCH  10  12
ENDBRANCH   6   7
ENDBRANCH   5   6
ENDBRANCH   2   5
BRANCH   3  17
ATOM     17  C   UNL     1       4.261   3.812  16.520  0.00  0.00    +0.000 C 
BRANCH  17  18
ATOM     18  C   UNL     1       3.187   4.229  17.534  0.00  0.00    +0.000 C 
ATOM     19  C   UNL     1       3.592   5.444  18.365  0.00  0.00    +0.000 C 
ATOM     20  C   UNL     1       4.206   4.830  19.610  0.00  0.00    +0.000 C 
ATOM     21  N   UNL     1       3.363   3.658  19.897  0.00  0.00    +0.000 NA
ATOM     22  C   UNL     1       2.961   3.127  18.580  0.00  0.00    +0.000 C 
BRANCH  21  23
ATOM     23  C   UNL     1       2.218   3.979  20.775  0.00  0.00    +0.000 C 
ATOM     24  C   UNL     1       0.952   3.167  20.688  0.00  0.00    +0.000 C 
ATOM     25  C   UNL     1       1.860   3.005  21.869  0.00  0.00    +0.000 C 
ENDBRANCH  21  23
ENDBRANCH  17  18
ENDBRANCH   3  17
TORSDOF 7
ENDMDL
MODEL 7
REMARK VINA RESULT:      -6.8      2.162      3.062
REMARK  Name = 
REMARK  7 active torsions:
REMARK  status: ('A' for Active; 'I' for Inactive)
REMARK    1  A    between atoms: C_2  and  C_3
REMARK    2  A    between atoms: C_3  and  C_4
REMARK    3  A    between atoms: C_4  and  C_5
REMARK    4  A    between atoms: C_8  and  C_9
REMARK    5  A    between atoms: N_15  and  C_16
REMARK    6  A    between atoms: C_16  and  C_17
REMARK    7  A    between atoms: N_20  and  C_21
REMARK                            x       y       z     vdW  Elec       q    Type
REMARK                         _______ _______ _______ _____ _____    ______ ____
ROOT
ATOM      1  O   UNL     1       1.475   3.688  21.264  0.00  0.00    +0.000 OA
ATOM      2  C   UNL     1       1.525   4.545  20.386  0.00  0.00    +0.000 C 
ATOM      3  N   UNL     1       1.443   4.269  19.039  0.00  0.00    +0.000 N 
ATOM      4  H   UNL     1       1.614   5.011  18.370  0.00  0.00    +0.000 HD
ENDROOT
BRANCH   2   5
ATOM      5  C   UNL     1       1.661   6.012  20.711  0.00  0.00    +0.000 C 
BRANCH   5   6
ATOM      6  C   UNL     1       2.731   6.657  19.843  0.00  0.00    +0.000 C 
BRANCH   6   7
ATOM      7  C   UNL     1       2.199   7.823  19.100  0.00  0.00    +0.000 A 
ATOM      8  N   UNL     1       2.487   8.238  17.886  0.00  0.00    +0.000 NA
ATOM      9  N   UNL     1       1.690   9.342  17.663  0.00  0.00    +0.000 NA
ATOM     10  C   UNL     1       0.973   9.530  18.757  0.00  0.00    +0.000 A 
ATOM     11  O   UNL     1       1.264   8.597  19.725  0.00  0.00    +0.000 OA
BRANCH  10  12
ATOM     12  C   UNL     1      -0.058  10.595  18.907  0.00  0.00    +0.000 A 
ATOM     13  C   UNL     1      -1.172  10.780  18.036  0.00  0.00    +0.000 A 
ATOM     14  C   UNL     1      -1.984  11.810  18.452  0.00  0.00    +0.000 A 
ATOM     15  S   UNL     1      -1.385  12.573  19.863  0.00  0.00    +0.000 S 
ATOM     16  C   UNL     1      -0.044  11.509  19.936  0.00  0.00    +0.000 A 
ENDBRANCH  10  12
ENDBRANCH   6   7
ENDBRANCH   5   6
ENDBRANCH   2   5
BRANCH   3  17
ATOM     17  C   UNL     1       1.279   2.918  18.527  0.00  0.00    +0.000 C 
BRANCH  17  18
ATOM     18  C   UNL     1       2.466   2.491  17.653  0.00  0.00    +0.000 C 
ATOM     19  C   UNL     1       3.583   1.824  18.452  0.00  0.00    +0.000 C 
ATOM     20  C   UNL     1       4.523   2.971  18.770  0.00  0.00    +0.000 C 
ATOM     21  N   UNL     1       4.521   3.799  17.552  0.00  0.00    +0.000 NA
ATOM     22  C   UNL     1       3.148   3.711  17.017  0.00  0.00    +0.000 C 
BRANCH  21  23
ATOM     23  C   UNL     1       5.556   3.388  16.580  0.00  0.00    +0.000 C 
ATOM     24  C   UNL     1       5.577   3.993  15.201  0.00  0.00    +0.000 C 
ATOM     25  C   UNL     1       6.619   4.388  16.202  0.00  0.00    +0.000 C 
ENDBRANCH  21  23
ENDBRANCH  17  18
ENDBRANCH   3  17
TORSDOF 7
ENDMDL
MODEL 8
REMARK VINA RESULT:      -6.8      1.596      1.904
REMARK  Name = 
REMARK  7 active torsions:
REMARK  status: ('A' for Active; 'I' for Inactive)
REMARK    1  A    between atoms: C_2  and  C_3
REMARK    2  A    between atoms: C_3  and  C_4
REMARK    3  A    between atoms: C_4  and  C_5
REMARK    4  A    between atoms: C_8  and  C_9
REMARK    5  A    between atoms: N_15  and  C_16
REMARK    6  A    between atoms: C_16  and  C_17
REMARK    7  A    between atoms: N_20  and  C_21
REMARK                            x       y       z     vdW  Elec       q    Type
REMARK                         _______ _______ _______ _____ _____    ______ ____
ROOT
ATOM      1  O   UNL     1       2.290   2.977  17.154  0.00  0.00    +0.000 OA
ATOM      2  C   UNL     1       2.716   3.991  17.701  0.00  0.00    +0.000 C 
ATOM      3  N   UNL     1       3.887   4.622  17.343  0.00  0.00    +0.000 N 
ATOM      4  H   UNL     1       4.236   5.381  17.917  0.00  0.00    +0.000 HD
ENDROOT
BRANCH   2   5
ATOM      5  C   UNL     1       1.967   4.663  18.825  0.00  0.00    +0.000 C 
BRANCH   5   6
ATOM      6  C   UNL     1       2.826   5.737  19.475  0.00  0.00    +0.000 C 
BRANCH   6   7
ATOM      7  C   UNL     1       2.423   7.095  19.041  0.00  0.00    +0.000 A 
ATOM      8  N   UNL     1       2.601   7.684  17.879  0.00  0.00    +0.000 NA
ATOM      9  N   UNL     1       2.007   8.924  17.987  0.00  0.00    +0.000 NA
ATOM     10  C   UNL     1       1.511   9.011  19.208  0.00  0.00    +0.000 A 
ATOM     11  O   UNL     1       1.759   7.875  19.943  0.00  0.00    +0.000 OA
BRANCH  10  12
ATOM     12  C   UNL     1       0.738  10.179  19.715  0.00  0.00    +0.000 A 
ATOM     13  C   UNL     1      -0.335  10.103  20.652  0.00  0.00    +0.000 A 
ATOM     14  C   UNL     1      -0.825  11.348  20.974  0.00  0.00    +0.000 A 
ATOM     15  S   UNL     1      -0.022  12.598  20.123  0.00  0.00    +0.000 S 
ATOM     16  C   UNL     1       1.005  11.475  19.334  0.00  0.00    +0.000 A 
ENDBRANCH  10  12
ENDBRANCH   6   7
ENDBRANCH   5   6
ENDBRANCH   2   5
BRANCH   3  17
ATOM     17  C   UNL     1       4.734   4.143  16.262  0.00  0.00    +0.000 C 
BRANCH  17  18
ATOM     18  C   UNL     1       5.969   5.033  16.068  0.00  0.00    +0.000 C 
ATOM     19  C   UNL     1       7.212   4.486  16.766  0.00  0.00    +0.000 C 
ATOM     20  C   UNL     1       7.198   5.189  18.111  0.00  0.00    +0.000 C 
ATOM     21  N   UNL     1       6.740   6.555  17.808  0.00  0.00    +0.000 NA
ATOM     22  C   UNL     1       5.761   6.410  16.713  0.00  0.00    +0.000 C 
BRANCH  21  23
ATOM     23  C   UNL     1       7.853   7.472  17.483  0.00  0.00    +0.000 C 
ATOM     24  C   UNL     1       7.660   8.961  17.603  0.00  0.00    +0.000 C 
ATOM     25  C   UNL     1       8.501   8.237  18.609  0.00  0.00    +0.000 C 
ENDBRANCH  21  23
ENDBRANCH  17  18
ENDBRANCH   3  17
TORSDOF 7
ENDMDL
MODEL 9
REMARK VINA RESULT:      -6.8      4.936      7.663
REMARK  Name = 
REMARK  7 active torsions:
REMARK  status: ('A' for Active; 'I' for Inactive)
REMARK    1  A    between atoms: C_2  and  C_3
REMARK    2  A    between atoms: C_3  and  C_4
REMARK    3  A    between atoms: C_4  and  C_5
REMARK    4  A    between atoms: C_8  and  C_9
REMARK    5  A    between atoms: N_15  and  C_16
REMARK    6  A    between atoms: C_16  and  C_17
REMARK    7  A    between atoms: N_20  and  C_21
REMARK                            x       y       z     vdW  Elec       q    Type
REMARK                         _______ _______ _______ _____ _____    ______ ____
ROOT
ATOM      1  O   UNL     1       8.342   6.945  18.874  0.00  0.00    +0.000 OA
ATOM      2  C   UNL     1       7.808   7.723  18.087  0.00  0.00    +0.000 C 
ATOM      3  N   UNL     1       8.131   9.059  17.990  0.00  0.00    +0.000 N 
ATOM      4  H   UNL     1       7.565   9.664  17.406  0.00  0.00    +0.000 HD
ENDROOT
BRANCH   2   5
ATOM      5  C   UNL     1       6.740   7.271  17.122  0.00  0.00    +0.000 C 
BRANCH   5   6
ATOM      6  C   UNL     1       7.041   5.872  16.605  0.00  0.00    +0.000 C 
BRANCH   6   7
ATOM      7  C   UNL     1       5.885   4.965  16.782  0.00  0.00    +0.000 A 
ATOM      8  N   UNL     1       5.592   3.855  16.140  0.00  0.00    +0.000 NA
ATOM      9  N   UNL     1       4.431   3.380  16.714  0.00  0.00    +0.000 NA
ATOM     10  C   UNL     1       4.089   4.234  17.662  0.00  0.00    +0.000 A 
ATOM     11  O   UNL     1       4.974   5.285  17.747  0.00  0.00    +0.000 OA
BRANCH  10  12
ATOM     12  C   UNL     1       2.915   4.058  18.562  0.00  0.00    +0.000 A 
ATOM     13  C   UNL     1       1.848   3.137  18.339  0.00  0.00    +0.000 A 
ATOM     14  C   UNL     1       0.929   3.159  19.364  0.00  0.00    +0.000 A 
ATOM     15  S   UNL     1       1.330   4.308  20.567  0.00  0.00    +0.000 S 
ATOM     16  C   UNL     1       2.754   4.768  19.730  0.00  0.00    +0.000 A 
ENDBRANCH  10  12
ENDBRANCH   6   7
ENDBRANCH   5   6
ENDBRANCH   2   5
BRANCH   3  17
ATOM     17  C   UNL     1       9.157   9.676  18.815  0.00  0.00    +0.000 C 
BRANCH  17  18
ATOM     18  C   UNL     1       9.335  11.164  18.484  0.00  0.00    +0.000 C 
ATOM     19  C   UNL     1      10.686  11.475  17.846  0.00  0.00    +0.000 C 
ATOM     20  C   UNL     1      11.551  11.868  19.029  0.00  0.00    +0.000 C 
ATOM     21  N   UNL     1      10.654  12.645  19.900  0.00  0.00    +0.000 NA
ATOM     22  C   UNL     1       9.326  12.016  19.762  0.00  0.00    +0.000 C 
BRANCH  21  23
ATOM     23  C   UNL     1      10.656  14.088  19.581  0.00  0.00    +0.000 C 
ATOM     24  C   UNL     1       9.515  14.961  20.035  0.00  0.00    +0.000 C 
ATOM     25  C   UNL     1      10.848  15.070  20.710  0.00  0.00    +0.000 C 
ENDBRANCH  21  23
ENDBRANCH  17  18
ENDBRANCH   3  17
TORSDOF 7
ENDMDL
