MODEL 1
REMARK VINA RESULT:      -8.3      0.000      0.000
REMARK  Name = 
REMARK  12 active torsions:
REMARK  status: ('A' for Active; 'I' for Inactive)
REMARK    1  A    between atoms: C_1  and  C_2
REMARK    2  A    between atoms: C_2  and  C_3
REMARK    3  A    between atoms: C_3  and  C_4
REMARK    4  A    between atoms: C_4  and  C_5
REMARK    5  A    between atoms: C_5  and  C_6
REMARK    6  A    between atoms: C_6  and  C_7
REMARK    7  A    between atoms: C_7  and  N_8
REMARK    8  A    between atoms: N_8  and  C_17
REMARK    9  A    between atoms: C_20  and  C_21
REMARK   10  A    between atoms: C_21  and  O_22
REMARK   11  A    between atoms: C_21  and  C_23
REMARK   12  A    between atoms: C_21  and  C_27
REMARK                            x       y       z     vdW  Elec       q    Type
REMARK                         _______ _______ _______ _____ _____    ______ ____
ROOT
ATOM      1  C   UNL     1       2.530   7.568  18.888  0.00  0.00    +0.000 A 
ATOM      2  C   UNL     1       2.762   6.364  19.558  0.00  0.00    +0.000 A 
ATOM      3  C   UNL     1       3.717   5.456  19.085  0.00  0.00    +0.000 A 
ATOM      4  C   UNL     1       4.484   5.728  17.934  0.00  0.00    +0.000 A 
ATOM      5  C   UNL     1       4.257   6.959  17.286  0.00  0.00    +0.000 A 
ATOM      6  C   UNL     1       3.285   7.853  17.746  0.00  0.00    +0.000 A 
ENDROOT
BRANCH   1   7
ATOM      7  N   UNL     1       1.591   8.528  19.394  0.00  0.00    +0.000 N 
ATOM      8  C   UNL     1       1.200   8.396  20.729  0.00  0.00    +0.000 C 
ATOM      9  O   UNL     1       1.199   7.299  21.297  0.00  0.00    +0.000 OA
ATOM     10  N   UNL     1       0.818   9.518  21.448  0.00  0.00    +0.000 N 
ATOM     11  C   UNL     1       0.324   9.330  22.821  0.00  0.00    +0.000 C 
ATOM     12  C   UNL     1      -0.821  10.311  23.133  0.00  0.00    +0.000 C 
ATOM     13  O   UNL     1      -0.515  11.670  22.775  0.00  0.00    +0.000 OA
ATOM     14  C   UNL     1      -0.086  11.762  21.408  0.00  0.00    +0.000 C 
ATOM     15  C   UNL     1       1.177  10.921  21.222  0.00  0.00    +0.000 C 
BRANCH   7  16
ATOM     16  C   UNL     1       1.249   9.645  18.501  0.00  0.00    +0.000 C 
BRANCH  16  17
ATOM     17  C   UNL     1      -0.064   9.558  17.714  0.00  0.00    +0.000 C 
BRANCH  17  18
ATOM     18  C   UNL     1      -1.277  10.159  18.439  0.00  0.00    +0.000 C 
BRANCH  18  19
ATOM     19  C   UNL     1      -2.558   9.749  17.699  0.00  0.00    +0.000 C 
BRANCH  19  20
ATOM     20  C   UNL     1      -3.514  10.890  17.352  0.00  0.00    +0.000 C 
BRANCH  20  22
ATOM     21  C   UNL     1      -2.932  10.178  15.010  0.00  0.00    +0.000 C 
ATOM     22  C   UNL     1      -3.935  10.918  15.882  0.00  0.00    +0.000 C 
ENDBRANCH  20  22
ENDBRANCH  19  20
ENDBRANCH  18  19
ENDBRANCH  17  18
ENDBRANCH  16  17
ENDBRANCH   7  16
ENDBRANCH   1   7
BRANCH   4  23
ATOM     23  C   UNL     1       5.522   4.724  17.385  0.00  0.00    +0.000 C 
BRANCH  23  24
ATOM     24  C   UNL     1       5.231   4.355  15.904  0.00  0.00    +0.000 C 
ATOM     25  F   UNL     1       4.057   3.689  15.753  0.00  0.00    +0.000 F 
ATOM     26  F   UNL     1       5.200   5.365  15.018  0.00  0.00    +0.000 F 
ATOM     27  F   UNL     1       6.181   3.482  15.460  0.00  0.00    +0.000 F 
ENDBRANCH  23  24
BRANCH  23  28
ATOM     28  C   UNL     1       6.984   5.238  17.536  0.00  0.00    +0.000 C 
ATOM     29  F   UNL     1       7.889   4.227  17.580  0.00  0.00    +0.000 F 
ATOM     30  F   UNL     1       7.351   6.011  16.479  0.00  0.00    +0.000 F 
ATOM     31  F   UNL     1       7.224   5.985  18.632  0.00  0.00    +0.000 F 
ENDBRANCH  23  28
BRANCH  23  32
ATOM     32  O   UNL     1       5.372   3.503  18.205  0.00  0.00    +0.000 OA
ATOM     33  H   UNL     1       5.657   3.726  19.110  0.00  0.00    +0.000 HD
ENDBRANCH  23  32
ENDBRANCH   4  23
TORSDOF 11
ENDMDL
MODEL 2
REMARK VINA RESULT:      -8.2      0.421      1.100
REMARK  Name = 
REMARK  12 active torsions:
REMARK  status: ('A' for Active; 'I' for Inactive)
REMARK    1  A    between atoms: C_1  and  C_2
REMARK    2  A    between atoms: C_2  and  C_3
REMARK    3  A    between atoms: C_3  and  C_4
REMARK    4  A    between atoms: C_4  and  C_5
REMARK    5  A    between atoms: C_5  and  C_6
REMARK    6  A    between atoms: C_6  and  C_7
REMARK    7  A    between atoms: C_7  and  N_8
REMARK    8  A    between atoms: N_8  and  C_17
REMARK    9  A    between atoms: C_20  and  C_21
REMARK   10  A    between atoms: C_21  and  O_22
REMARK   11  A    between atoms: C_21  and  C_23
REMARK   12  A    between atoms: C_21  and  C_27
REMARK                            x       y       z     vdW  Elec       q    Type
REMARK                         _______ _______ _______ _____ _____    ______ ____
ROOT
ATOM      1  C   UNL     1       2.509   7.607  18.956  0.00  0.00    +0.000 A 
ATOM      2  C   UNL     1       2.772   6.442  19.681  0.00  0.00    +0.000 A 
ATOM      3  C   UNL     1       3.737   5.529  19.239  0.00  0.00    +0.000 A 
ATOM      4  C   UNL     1       4.483   5.758  18.065  0.00  0.00    +0.000 A 
ATOM      5  C   UNL     1       4.225   6.951  17.361  0.00  0.00    +0.000 A 
ATOM      6  C   UNL     1       3.243   7.849  17.791  0.00  0.00    +0.000 A 
ENDROOT
BRANCH   1   7
ATOM      7  N   UNL     1       1.559   8.574  19.428  0.00  0.00    +0.000 N 
ATOM      8  C   UNL     1       1.158   8.477  20.763  0.00  0.00    +0.000 C 
ATOM      9  O   UNL     1       1.161   7.395  21.362  0.00  0.00    +0.000 OA
ATOM     10  N   UNL     1       0.763   9.615  21.448  0.00  0.00    +0.000 N 
ATOM     11  C   UNL     1       0.260   9.462  22.822  0.00  0.00    +0.000 C 
ATOM     12  C   UNL     1      -0.894  10.443  23.098  0.00  0.00    +0.000 C 
ATOM     13  O   UNL     1      -0.595  11.793  22.704  0.00  0.00    +0.000 OA
ATOM     14  C   UNL     1      -0.156  11.850  21.339  0.00  0.00    +0.000 C 
ATOM     15  C   UNL     1       1.114  11.014  21.186  0.00  0.00    +0.000 C 
BRANCH   7  16
ATOM     16  C   UNL     1       1.216   9.664  18.502  0.00  0.00    +0.000 C 
BRANCH  16  17
ATOM     17  C   UNL     1      -0.065   9.522  17.671  0.00  0.00    +0.000 C 
BRANCH  17  18
ATOM     18  C   UNL     1      -1.194  10.479  18.081  0.00  0.00    +0.000 C 
BRANCH  18  19
ATOM     19  C   UNL     1      -2.546   9.821  17.775  0.00  0.00    +0.000 C 
BRANCH  19  20
ATOM     20  C   UNL     1      -2.943   9.782  16.299  0.00  0.00    +0.000 C 
BRANCH  20  22
ATOM     21  C   UNL     1      -4.603  11.631  16.697  0.00  0.00    +0.000 C 
ATOM     22  C   UNL     1      -3.511  11.101  15.777  0.00  0.00    +0.000 C 
ENDBRANCH  20  22
ENDBRANCH  19  20
ENDBRANCH  18  19
ENDBRANCH  17  18
ENDBRANCH  16  17
ENDBRANCH   7  16
ENDBRANCH   1   7
BRANCH   4  23
ATOM     23  C   UNL     1       5.532   4.746  17.551  0.00  0.00    +0.000 C 
BRANCH  23  24
ATOM     24  C   UNL     1       5.118   4.142  16.180  0.00  0.00    +0.000 C 
ATOM     25  F   UNL     1       5.961   3.162  15.766  0.00  0.00    +0.000 F 
ATOM     26  F   UNL     1       3.879   3.629  16.089  0.00  0.00    +0.000 F 
ATOM     27  F   UNL     1       5.208   5.104  15.216  0.00  0.00    +0.000 F 
ENDBRANCH  23  24
BRANCH  23  28
ATOM     28  C   UNL     1       6.958   5.364  17.459  0.00  0.00    +0.000 C 
ATOM     29  F   UNL     1       7.264   6.128  18.540  0.00  0.00    +0.000 F 
ATOM     30  F   UNL     1       7.916   4.401  17.409  0.00  0.00    +0.000 F 
ATOM     31  F   UNL     1       7.179   6.152  16.388  0.00  0.00    +0.000 F 
ENDBRANCH  23  28
BRANCH  23  32
ATOM     32  O   UNL     1       5.560   3.656  18.548  0.00  0.00    +0.000 OA
ATOM     33  H   UNL     1       5.320   4.046  19.409  0.00  0.00    +0.000 HD
ENDBRANCH  23  32
ENDBRANCH   4  23
TORSDOF 11
ENDMDL
MODEL 3
REMARK VINA RESULT:      -8.2      0.390      1.408
REMARK  Name = 
REMARK  12 active torsions:
REMARK  status: ('A' for Active; 'I' for Inactive)
REMARK    1  A    between atoms: C_1  and  C_2
REMARK    2  A    between atoms: C_2  and  C_3
REMARK    3  A    between atoms: C_3  and  C_4
REMARK    4  A    between atoms: C_4  and  C_5
REMARK    5  A    between atoms: C_5  and  C_6
REMARK    6  A    between atoms: C_6  and  C_7
REMARK    7  A    between atoms: C_7  and  N_8
REMARK    8  A    between atoms: N_8  and  C_17
REMARK    9  A    between atoms: C_20  and  C_21
REMARK   10  A    between atoms: C_21  and  O_22
REMARK   11  A    between atoms: C_21  and  C_23
REMARK   12  A    between atoms: C_21  and  C_27
REMARK                            x       y       z     vdW  Elec       q    Type
REMARK                         _______ _______ _______ _____ _____    ______ ____
ROOT
ATOM      1  C   UNL     1       2.563   7.688  18.976  0.00  0.00    +0.000 A 
ATOM      2  C   UNL     1       3.285   7.920  17.803  0.00  0.00    +0.000 A 
ATOM      3  C   UNL     1       4.219   6.984  17.343  0.00  0.00    +0.000 A 
ATOM      4  C   UNL     1       4.453   5.778  18.034  0.00  0.00    +0.000 A 
ATOM      5  C   UNL     1       3.697   5.547  19.201  0.00  0.00    +0.000 A 
ATOM      6  C   UNL     1       2.782   6.495  19.671  0.00  0.00    +0.000 A 
ENDROOT
BRANCH   1   7
ATOM      7  N   UNL     1       1.566   8.616  19.428  0.00  0.00    +0.000 N 
ATOM      8  C   UNL     1       1.170   8.527  20.765  0.00  0.00    +0.000 C 
ATOM      9  O   UNL     1       1.226   7.460  21.386  0.00  0.00    +0.000 OA
ATOM     10  N   UNL     1       0.717   9.658  21.426  0.00  0.00    +0.000 N 
ATOM     11  C   UNL     1       0.222   9.509  22.803  0.00  0.00    +0.000 C 
ATOM     12  C   UNL     1      -0.981  10.435  23.060  0.00  0.00    +0.000 C 
ATOM     13  O   UNL     1      -0.750  11.791  22.637  0.00  0.00    +0.000 OA
ATOM     14  C   UNL     1      -0.313  11.841  21.270  0.00  0.00    +0.000 C 
ATOM     15  C   UNL     1       0.997  11.067  21.135  0.00  0.00    +0.000 C 
BRANCH   7  16
ATOM     16  C   UNL     1       1.169   9.667  18.479  0.00  0.00    +0.000 C 
BRANCH  16  17
ATOM     17  C   UNL     1      -0.170   9.506  17.749  0.00  0.00    +0.000 C 
BRANCH  17  18
ATOM     18  C   UNL     1      -1.371  10.113  18.489  0.00  0.00    +0.000 C 
BRANCH  18  19
ATOM     19  C   UNL     1      -2.650   9.830  17.689  0.00  0.00    +0.000 C 
BRANCH  19  20
ATOM     20  C   UNL     1      -2.521   9.959  16.172  0.00  0.00    +0.000 C 
BRANCH  20  22
ATOM     21  C   UNL     1      -4.506  11.454  16.572  0.00  0.00    +0.000 C 
ATOM     22  C   UNL     1      -3.650  10.761  15.522  0.00  0.00    +0.000 C 
ENDBRANCH  20  22
ENDBRANCH  19  20
ENDBRANCH  18  19
ENDBRANCH  17  18
ENDBRANCH  16  17
ENDBRANCH   7  16
ENDBRANCH   1   7
BRANCH   4  23
ATOM     23  C   UNL     1       5.501   4.748  17.553  0.00  0.00    +0.000 C 
BRANCH  23  24
ATOM     24  C   UNL     1       5.120   4.149  16.171  0.00  0.00    +0.000 C 
ATOM     25  F   UNL     1       5.075   5.087  15.190  0.00  0.00    +0.000 F 
ATOM     26  F   UNL     1       5.896   3.158  15.701  0.00  0.00    +0.000 F 
ATOM     27  F   UNL     1       3.851   3.650  16.229  0.00  0.00    +0.000 F 
ENDBRANCH  23  24
BRANCH  23  28
ATOM     28  C   UNL     1       6.939   5.344  17.505  0.00  0.00    +0.000 C 
ATOM     29  F   UNL     1       7.203   6.150  18.566  0.00  0.00    +0.000 F 
ATOM     30  F   UNL     1       7.884   4.366  17.546  0.00  0.00    +0.000 F 
ATOM     31  F   UNL     1       7.224   6.080  16.413  0.00  0.00    +0.000 F 
ENDBRANCH  23  28
BRANCH  23  32
ATOM     32  O   UNL     1       5.481   3.660  18.553  0.00  0.00    +0.000 OA
ATOM     33  H   UNL     1       6.076   3.922  19.278  0.00  0.00    +0.000 HD
ENDBRANCH  23  32
ENDBRANCH   4  23
TORSDOF 11
ENDMDL
MODEL 4
REMARK VINA RESULT:      -8.1      0.424      1.150
REMARK  Name = 
REMARK  12 active torsions:
REMARK  status: ('A' for Active; 'I' for Inactive)
REMARK    1  A    between atoms: C_1  and  C_2
REMARK    2  A    between atoms: C_2  and  C_3
REMARK    3  A    between atoms: C_3  and  C_4
REMARK    4  A    between atoms: C_4  and  C_5
REMARK    5  A    between atoms: C_5  and  C_6
REMARK    6  A    between atoms: C_6  and  C_7
REMARK    7  A    between atoms: C_7  and  N_8
REMARK    8  A    between atoms: N_8  and  C_17
REMARK    9  A    between atoms: C_20  and  C_21
REMARK   10  A    between atoms: C_21  and  O_22
REMARK   11  A    between atoms: C_21  and  C_23
REMARK   12  A    between atoms: C_21  and  C_27
REMARK                            x       y       z     vdW  Elec       q    Type
REMARK                         _______ _______ _______ _____ _____    ______ ____
ROOT
ATOM      1  C   UNL     1       2.548   7.689  18.978  0.00  0.00    +0.000 A 
ATOM      2  C   UNL     1       3.252   7.909  17.791  0.00  0.00    +0.000 A 
ATOM      3  C   UNL     1       4.187   6.973  17.332  0.00  0.00    +0.000 A 
ATOM      4  C   UNL     1       4.439   5.779  18.037  0.00  0.00    +0.000 A 
ATOM      5  C   UNL     1       3.700   5.560  19.218  0.00  0.00    +0.000 A 
ATOM      6  C   UNL     1       2.785   6.508  19.686  0.00  0.00    +0.000 A 
ENDROOT
BRANCH   1   7
ATOM      7  N   UNL     1       1.550   8.617  19.429  0.00  0.00    +0.000 N 
ATOM      8  C   UNL     1       1.155   8.528  20.767  0.00  0.00    +0.000 C 
ATOM      9  O   UNL     1       1.213   7.461  21.389  0.00  0.00    +0.000 OA
ATOM     10  N   UNL     1       0.703   9.659  21.428  0.00  0.00    +0.000 N 
ATOM     11  C   UNL     1       0.208   9.510  22.805  0.00  0.00    +0.000 C 
ATOM     12  C   UNL     1      -0.995  10.436  23.062  0.00  0.00    +0.000 C 
ATOM     13  O   UNL     1      -0.765  11.791  22.638  0.00  0.00    +0.000 OA
ATOM     14  C   UNL     1      -0.330  11.841  21.271  0.00  0.00    +0.000 C 
ATOM     15  C   UNL     1       0.981  11.068  21.135  0.00  0.00    +0.000 C 
BRANCH   7  16
ATOM     16  C   UNL     1       1.152   9.667  18.480  0.00  0.00    +0.000 C 
BRANCH  16  17
ATOM     17  C   UNL     1      -0.249   9.581  17.863  0.00  0.00    +0.000 C 
BRANCH  17  18
ATOM     18  C   UNL     1      -1.074  10.872  17.986  0.00  0.00    +0.000 C 
BRANCH  18  19
ATOM     19  C   UNL     1      -2.560  10.508  18.106  0.00  0.00    +0.000 C 
BRANCH  19  20
ATOM     20  C   UNL     1      -3.195   9.903  16.854  0.00  0.00    +0.000 C 
BRANCH  20  22
ATOM     21  C   UNL     1      -2.999  10.041  14.349  0.00  0.00    +0.000 C 
ATOM     22  C   UNL     1      -3.171  10.831  15.639  0.00  0.00    +0.000 C 
ENDBRANCH  20  22
ENDBRANCH  19  20
ENDBRANCH  18  19
ENDBRANCH  17  18
ENDBRANCH  16  17
ENDBRANCH   7  16
ENDBRANCH   1   7
BRANCH   4  23
ATOM     23  C   UNL     1       5.487   4.750  17.557  0.00  0.00    +0.000 C 
BRANCH  23  24
ATOM     24  C   UNL     1       5.086   4.119  16.195  0.00  0.00    +0.000 C 
ATOM     25  F   UNL     1       5.975   3.184  15.770  0.00  0.00    +0.000 F 
ATOM     26  F   UNL     1       3.876   3.538  16.124  0.00  0.00    +0.000 F 
ATOM     27  F   UNL     1       5.109   5.081  15.227  0.00  0.00    +0.000 F 
ENDBRANCH  23  24
BRANCH  23  28
ATOM     28  C   UNL     1       6.918   5.357  17.470  0.00  0.00    +0.000 C 
ATOM     29  F   UNL     1       7.890   4.410  17.536  0.00  0.00    +0.000 F 
ATOM     30  F   UNL     1       7.115   6.000  16.288  0.00  0.00    +0.000 F 
ATOM     31  F   UNL     1       7.225   6.255  18.428  0.00  0.00    +0.000 F 
ENDBRANCH  23  28
BRANCH  23  32
ATOM     32  O   UNL     1       5.497   3.681  18.578  0.00  0.00    +0.000 OA
ATOM     33  H   UNL     1       4.868   3.942  19.275  0.00  0.00    +0.000 HD
ENDBRANCH  23  32
ENDBRANCH   4  23
TORSDOF 11
ENDMDL
MODEL 5
REMARK VINA RESULT:      -7.7      1.409      2.411
REMARK  Name = 
REMARK  12 active torsions:
REMARK  status: ('A' for Active; 'I' for Inactive)
REMARK    1  A    between atoms: C_1  and  C_2
REMARK    2  A    between atoms: C_2  and  C_3
REMARK    3  A    between atoms: C_3  and  C_4
REMARK    4  A    between atoms: C_4  and  C_5
REMARK    5  A    between atoms: C_5  and  C_6
REMARK    6  A    between atoms: C_6  and  C_7
REMARK    7  A    between atoms: C_7  and  N_8
REMARK    8  A    between atoms: N_8  and  C_17
REMARK    9  A    between atoms: C_20  and  C_21
REMARK   10  A    between atoms: C_21  and  O_22
REMARK   11  A    between atoms: C_21  and  C_23
REMARK   12  A    between atoms: C_21  and  C_27
REMARK                            x       y       z     vdW  Elec       q    Type
REMARK                         _______ _______ _______ _____ _____    ______ ____
ROOT
ATOM      1  C   UNL     1       1.718   8.431  19.078  0.00  0.00    +0.000 A 
ATOM      2  C   UNL     1       2.052   7.322  19.860  0.00  0.00    +0.000 A 
ATOM      3  C   UNL     1       2.971   6.373  19.397  0.00  0.00    +0.000 A 
ATOM      4  C   UNL     1       3.600   6.509  18.143  0.00  0.00    +0.000 A 
ATOM      5  C   UNL     1       3.273   7.647  17.379  0.00  0.00    +0.000 A 
ATOM      6  C   UNL     1       2.336   8.581  17.833  0.00  0.00    +0.000 A 
ENDROOT
BRANCH   1   7
ATOM      7  N   UNL     1       0.818   9.437  19.565  0.00  0.00    +0.000 N 
ATOM      8  C   UNL     1       0.355   9.298  20.877  0.00  0.00    +0.000 C 
ATOM      9  O   UNL     1       0.259   8.190  21.415  0.00  0.00    +0.000 OA
ATOM     10  N   UNL     1       0.010  10.425  21.607  0.00  0.00    +0.000 N 
ATOM     11  C   UNL     1      -0.560  10.236  22.951  0.00  0.00    +0.000 C 
ATOM     12  C   UNL     1      -1.656  11.279  23.235  0.00  0.00    +0.000 C 
ATOM     13  O   UNL     1      -1.250  12.624  22.927  0.00  0.00    +0.000 OA
ATOM     14  C   UNL     1      -0.751  12.721  21.584  0.00  0.00    +0.000 C 
ATOM     15  C   UNL     1       0.465  11.807  21.436  0.00  0.00    +0.000 C 
BRANCH   7  16
ATOM     16  C   UNL     1       0.588  10.594  18.687  0.00  0.00    +0.000 C 
BRANCH  16  17
ATOM     17  C   UNL     1      -0.848  10.871  18.228  0.00  0.00    +0.000 C 
BRANCH  17  18
ATOM     18  C   UNL     1      -1.488   9.727  17.428  0.00  0.00    +0.000 C 
BRANCH  18  19
ATOM     19  C   UNL     1      -3.009   9.931  17.389  0.00  0.00    +0.000 C 
BRANCH  19  20
ATOM     20  C   UNL     1      -3.508  10.992  16.409  0.00  0.00    +0.000 C 
BRANCH  20  22
ATOM     21  C   UNL     1      -5.418  10.984  18.048  0.00  0.00    +0.000 C 
ATOM     22  C   UNL     1      -4.787  11.697  16.860  0.00  0.00    +0.000 C 
ENDBRANCH  20  22
ENDBRANCH  19  20
ENDBRANCH  18  19
ENDBRANCH  17  18
ENDBRANCH  16  17
ENDBRANCH   7  16
ENDBRANCH   1   7
BRANCH   4  23
ATOM     23  C   UNL     1       4.596   5.455  17.607  0.00  0.00    +0.000 C 
BRANCH  23  24
ATOM     24  C   UNL     1       5.960   5.531  18.348  0.00  0.00    +0.000 C 
ATOM     25  F   UNL     1       6.640   6.673  18.071  0.00  0.00    +0.000 F 
ATOM     26  F   UNL     1       5.933   5.432  19.687  0.00  0.00    +0.000 F 
ATOM     27  F   UNL     1       6.772   4.529  17.902  0.00  0.00    +0.000 F 
ENDBRANCH  23  24
BRANCH  23  28
ATOM     28  C   UNL     1       4.024   4.009  17.677  0.00  0.00    +0.000 C 
ATOM     29  F   UNL     1       2.701   3.958  17.374  0.00  0.00    +0.000 F 
ATOM     30  F   UNL     1       4.635   3.188  16.782  0.00  0.00    +0.000 F 
ATOM     31  F   UNL     1       4.144   3.396  18.872  0.00  0.00    +0.000 F 
ENDBRANCH  23  28
BRANCH  23  32
ATOM     32  O   UNL     1       4.819   5.800  16.187  0.00  0.00    +0.000 OA
ATOM     33  H   UNL     1       5.701   5.466  15.944  0.00  0.00    +0.000 HD
ENDBRANCH  23  32
ENDBRANCH   4  23
TORSDOF 11
ENDMDL
MODEL 6
REMARK VINA RESULT:      -7.7      1.680      2.457
REMARK  Name = 
REMARK  12 active torsions:
REMARK  status: ('A' for Active; 'I' for Inactive)
REMARK    1  A    between atoms: C_1  and  C_2
REMARK    2  A    between atoms: C_2  and  C_3
REMARK    3  A    between atoms: C_3  and  C_4
REMARK    4  A    between atoms: C_4  and  C_5
REMARK    5  A    between atoms: C_5  and  C_6
REMARK    6  A    between atoms: C_6  and  C_7
REMARK    7  A    between atoms: C_7  and  N_8
REMARK    8  A    between atoms: N_8  and  C_17
REMARK    9  A    between atoms: C_20  and  C_21
REMARK   10  A    between atoms: C_21  and  O_22
REMARK   11  A    between atoms: C_21  and  C_23
REMARK   12  A    between atoms: C_21  and  C_27
REMARK                            x       y       z     vdW  Elec       q    Type
REMARK                         _______ _______ _______ _____ _____    ______ ____
ROOT
ATOM      1  C   UNL     1       1.248   8.996  19.401  0.00  0.00    +0.000 A 
ATOM      2  C   UNL     1       1.768   8.946  18.105  0.00  0.00    +0.000 A 
ATOM      3  C   UNL     1       2.636   7.917  17.723  0.00  0.00    +0.000 A 
ATOM      4  C   UNL     1       3.003   6.893  18.620  0.00  0.00    +0.000 A 
ATOM      5  C   UNL     1       2.449   6.942  19.915  0.00  0.00    +0.000 A 
ATOM      6  C   UNL     1       1.601   7.985  20.301  0.00  0.00    +0.000 A 
ENDROOT
BRANCH   1   7
ATOM      7  N   UNL     1       0.317  10.016  19.787  0.00  0.00    +0.000 N 
ATOM      8  C   UNL     1      -0.229   9.930  21.071  0.00  0.00    +0.000 C 
ATOM      9  O   UNL     1      -0.358   8.844  21.647  0.00  0.00    +0.000 OA
ATOM     10  N   UNL     1      -0.622  11.083  21.731  0.00  0.00    +0.000 N 
ATOM     11  C   UNL     1      -1.276  10.947  23.042  0.00  0.00    +0.000 C 
ATOM     12  C   UNL     1      -2.390  11.997  23.213  0.00  0.00    +0.000 C 
ATOM     13  O   UNL     1      -1.966  13.330  22.877  0.00  0.00    +0.000 OA
ATOM     14  C   UNL     1      -1.382  13.374  21.566  0.00  0.00    +0.000 C 
ATOM     15  C   UNL     1      -0.158  12.459  21.533  0.00  0.00    +0.000 C 
BRANCH   7  16
ATOM     16  C   UNL     1       0.143  11.136  18.850  0.00  0.00    +0.000 C 
BRANCH  16  17
ATOM     17  C   UNL     1      -1.237  11.326  18.209  0.00  0.00    +0.000 C 
BRANCH  17  18
ATOM     18  C   UNL     1      -1.645  10.204  17.243  0.00  0.00    +0.000 C 
BRANCH  18  19
ATOM     19  C   UNL     1      -3.019   9.660  17.657  0.00  0.00    +0.000 C 
BRANCH  19  20
ATOM     20  C   UNL     1      -4.077  10.715  17.980  0.00  0.00    +0.000 C 
BRANCH  20  22
ATOM     21  C   UNL     1      -5.723  12.421  17.137  0.00  0.00    +0.000 C 
ATOM     22  C   UNL     1      -4.682  11.382  16.745  0.00  0.00    +0.000 C 
ENDBRANCH  20  22
ENDBRANCH  19  20
ENDBRANCH  18  19
ENDBRANCH  17  18
ENDBRANCH  16  17
ENDBRANCH   7  16
ENDBRANCH   1   7
BRANCH   4  23
ATOM     23  C   UNL     1       3.982   5.766  18.220  0.00  0.00    +0.000 C 
BRANCH  23  24
ATOM     24  C   UNL     1       3.228   4.523  17.670  0.00  0.00    +0.000 C 
ATOM     25  F   UNL     1       1.928   4.788  17.383  0.00  0.00    +0.000 F 
ATOM     26  F   UNL     1       3.737   3.936  16.574  0.00  0.00    +0.000 F 
ATOM     27  F   UNL     1       3.179   3.560  18.636  0.00  0.00    +0.000 F 
ENDBRANCH  23  24
BRANCH  23  28
ATOM     28  C   UNL     1       5.053   6.245  17.195  0.00  0.00    +0.000 C 
ATOM     29  F   UNL     1       6.066   5.353  17.048  0.00  0.00    +0.000 F 
ATOM     30  F   UNL     1       4.519   6.401  15.954  0.00  0.00    +0.000 F 
ATOM     31  F   UNL     1       5.646   7.420  17.486  0.00  0.00    +0.000 F 
ENDBRANCH  23  28
BRANCH  23  32
ATOM     32  O   UNL     1       4.673   5.375  19.467  0.00  0.00    +0.000 OA
ATOM     33  H   UNL     1       4.667   4.401  19.507  0.00  0.00    +0.000 HD
ENDBRANCH  23  32
ENDBRANCH   4  23
TORSDOF 11
ENDMDL
MODEL 7
REMARK VINA RESULT:      -7.6      1.265      2.269
REMARK  Name = 
REMARK  12 active torsions:
REMARK  status: ('A' for Active; 'I' for Inactive)
REMARK    1  A    between atoms: C_1  and  C_2
REMARK    2  A    between atoms: C_2  and  C_3
REMARK    3  A    between atoms: C_3  and  C_4
REMARK    4  A    between atoms: C_4  and  C_5
REMARK    5  A    between atoms: C_5  and  C_6
REMARK    6  A    between atoms: C_6  and  C_7
REMARK    7  A    between atoms: C_7  and  N_8
REMARK    8  A    between atoms: N_8  and  C_17
REMARK    9  A    between atoms: C_20  and  C_21
REMARK   10  A    between atoms: C_21  and  O_22
REMARK   11  A    between atoms: C_21  and  C_23
REMARK   12  A    between atoms: C_21  and  C_27
REMARK                            x       y       z     vdW  Elec       q    Type
REMARK                         _______ _______ _______ _____ _____    ______ ____
ROOT
ATOM      1  C   UNL     1       1.902   8.161  18.990  0.00  0.00    +0.000 A 
ATOM      2  C   UNL     1       2.197   6.991  19.695  0.00  0.00    +0.000 A 
ATOM      3  C   UNL     1       3.166   6.098  19.222  0.00  0.00    +0.000 A 
ATOM      4  C   UNL     1       3.885   6.352  18.037  0.00  0.00    +0.000 A 
ATOM      5  C   UNL     1       3.595   7.550  17.352  0.00  0.00    +0.000 A 
ATOM      6  C   UNL     1       2.609   8.428  17.814  0.00  0.00    +0.000 A 
ENDROOT
BRANCH   1   7
ATOM      7  N   UNL     1       0.948   9.108  19.493  0.00  0.00    +0.000 N 
ATOM      8  C   UNL     1       0.629   9.032  20.851  0.00  0.00    +0.000 C 
ATOM      9  O   UNL     1       0.703   7.968  21.475  0.00  0.00    +0.000 OA
ATOM     10  N   UNL     1       0.234  10.174  21.530  0.00  0.00    +0.000 N 
ATOM     11  C   UNL     1      -0.183  10.041  22.935  0.00  0.00    +0.000 C 
ATOM     12  C   UNL     1      -1.353  10.990  23.254  0.00  0.00    +0.000 C 
ATOM     13  O   UNL     1      -1.124  12.339  22.810  0.00  0.00    +0.000 OA
ATOM     14  C   UNL     1      -0.767  12.374  21.420  0.00  0.00    +0.000 C 
ATOM     15  C   UNL     1       0.520  11.577  21.214  0.00  0.00    +0.000 C 
BRANCH   7  16
ATOM     16  C   UNL     1       0.514  10.160  18.562  0.00  0.00    +0.000 C 
BRANCH  16  17
ATOM     17  C   UNL     1      -0.992  10.385  18.386  0.00  0.00    +0.000 C 
BRANCH  17  18
ATOM     18  C   UNL     1      -1.559   9.865  17.057  0.00  0.00    +0.000 C 
BRANCH  18  19
ATOM     19  C   UNL     1      -2.590  10.868  16.523  0.00  0.00    +0.000 C 
BRANCH  19  20
ATOM     20  C   UNL     1      -3.614  10.303  15.540  0.00  0.00    +0.000 C 
BRANCH  20  22
ATOM     21  C   UNL     1      -4.192   9.797  13.143  0.00  0.00    +0.000 C 
ATOM     22  C   UNL     1      -3.070  10.108  14.124  0.00  0.00    +0.000 C 
ENDBRANCH  20  22
ENDBRANCH  19  20
ENDBRANCH  18  19
ENDBRANCH  17  18
ENDBRANCH  16  17
ENDBRANCH   7  16
ENDBRANCH   1   7
BRANCH   4  23
ATOM     23  C   UNL     1       4.938   5.362  17.489  0.00  0.00    +0.000 C 
BRANCH  23  24
ATOM     24  C   UNL     1       6.248   5.404  18.323  0.00  0.00    +0.000 C 
ATOM     25  F   UNL     1       6.017   5.348  19.660  0.00  0.00    +0.000 F 
ATOM     26  F   UNL     1       7.166   4.457  18.065  0.00  0.00    +0.000 F 
ATOM     27  F   UNL     1       6.868   6.605  18.130  0.00  0.00    +0.000 F 
ENDBRANCH  23  24
BRANCH  23  28
ATOM     28  C   UNL     1       4.397   3.905  17.407  0.00  0.00    +0.000 C 
ATOM     29  F   UNL     1       3.098   3.854  17.012  0.00  0.00    +0.000 F 
ATOM     30  F   UNL     1       5.085   3.169  16.494  0.00  0.00    +0.000 F 
ATOM     31  F   UNL     1       4.452   3.202  18.556  0.00  0.00    +0.000 F 
ENDBRANCH  23  28
BRANCH  23  32
ATOM     32  O   UNL     1       5.245   5.823  16.118  0.00  0.00    +0.000 OA
ATOM     33  H   UNL     1       5.684   6.689  16.196  0.00  0.00    +0.000 HD
ENDBRANCH  23  32
ENDBRANCH   4  23
TORSDOF 11
ENDMDL
MODEL 8
REMARK VINA RESULT:      -7.6      1.281      2.407
REMARK  Name = 
REMARK  12 active torsions:
REMARK  status: ('A' for Active; 'I' for Inactive)
REMARK    1  A    between atoms: C_1  and  C_2
REMARK    2  A    between atoms: C_2  and  C_3
REMARK    3  A    between atoms: C_3  and  C_4
REMARK    4  A    between atoms: C_4  and  C_5
REMARK    5  A    between atoms: C_5  and  C_6
REMARK    6  A    between atoms: C_6  and  C_7
REMARK    7  A    between atoms: C_7  and  N_8
REMARK    8  A    between atoms: N_8  and  C_17
REMARK    9  A    between atoms: C_20  and  C_21
REMARK   10  A    between atoms: C_21  and  O_22
REMARK   11  A    between atoms: C_21  and  C_23
REMARK   12  A    between atoms: C_21  and  C_27
REMARK                            x       y       z     vdW  Elec       q    Type
REMARK                         _______ _______ _______ _____ _____    ______ ____
ROOT
ATOM      1  C   UNL     1       1.881   8.338  19.037  0.00  0.00    +0.000 A 
ATOM      2  C   UNL     1       2.530   8.538  17.816  0.00  0.00    +0.000 A 
ATOM      3  C   UNL     1       3.445   7.597  17.332  0.00  0.00    +0.000 A 
ATOM      4  C   UNL     1       3.732   6.415  18.045  0.00  0.00    +0.000 A 
ATOM      5  C   UNL     1       3.049   6.215  19.261  0.00  0.00    +0.000 A 
ATOM      6  C   UNL     1       2.153   7.169  19.755  0.00  0.00    +0.000 A 
ENDROOT
BRANCH   1   7
ATOM      7  N   UNL     1       0.902   9.271  19.518  0.00  0.00    +0.000 N 
ATOM      8  C   UNL     1       0.545   9.183  20.866  0.00  0.00    +0.000 C 
ATOM      9  O   UNL     1       0.614   8.116  21.485  0.00  0.00    +0.000 OA
ATOM     10  N   UNL     1       0.118  10.317  21.540  0.00  0.00    +0.000 N 
ATOM     11  C   UNL     1      -0.338  10.170  22.931  0.00  0.00    +0.000 C 
ATOM     12  C   UNL     1      -1.527  11.103  23.222  0.00  0.00    +0.000 C 
ATOM     13  O   UNL     1      -1.301  12.458  22.793  0.00  0.00    +0.000 OA
ATOM     14  C   UNL     1      -0.904  12.506  21.414  0.00  0.00    +0.000 C 
ATOM     15  C   UNL     1       0.397  11.724  21.241  0.00  0.00    +0.000 C 
BRANCH   7  16
ATOM     16  C   UNL     1       0.483  10.325  18.581  0.00  0.00    +0.000 C 
BRANCH  16  17
ATOM     17  C   UNL     1      -0.981  10.340  18.128  0.00  0.00    +0.000 C 
BRANCH  17  18
ATOM     18  C   UNL     1      -1.580  11.746  17.969  0.00  0.00    +0.000 C 
BRANCH  18  19
ATOM     19  C   UNL     1      -3.102  11.629  17.814  0.00  0.00    +0.000 C 
BRANCH  19  20
ATOM     20  C   UNL     1      -3.602  10.342  17.161  0.00  0.00    +0.000 C 
BRANCH  20  22
ATOM     21  C   UNL     1      -2.909  10.155  14.749  0.00  0.00    +0.000 C 
ATOM     22  C   UNL     1      -4.037  10.515  15.705  0.00  0.00    +0.000 C 
ENDBRANCH  20  22
ENDBRANCH  19  20
ENDBRANCH  18  19
ENDBRANCH  17  18
ENDBRANCH  16  17
ENDBRANCH   7  16
ENDBRANCH   1   7
BRANCH   4  23
ATOM     23  C   UNL     1       4.760   5.379  17.536  0.00  0.00    +0.000 C 
BRANCH  23  24
ATOM     24  C   UNL     1       6.083   5.443  18.348  0.00  0.00    +0.000 C 
ATOM     25  F   UNL     1       6.902   4.389  18.096  0.00  0.00    +0.000 F 
ATOM     26  F   UNL     1       6.840   6.543  18.198  0.00  0.00    +0.000 F 
ATOM     27  F   UNL     1       5.800   5.348  19.680  0.00  0.00    +0.000 F 
ENDBRANCH  23  24
BRANCH  23  28
ATOM     28  C   UNL     1       4.194   3.929  17.538  0.00  0.00    +0.000 C 
ATOM     29  F   UNL     1       4.845   3.116  16.666  0.00  0.00    +0.000 F 
ATOM     30  F   UNL     1       4.332   3.343  18.757  0.00  0.00    +0.000 F 
ATOM     31  F   UNL     1       2.887   3.818  17.228  0.00  0.00    +0.000 F 
ENDBRANCH  23  28
BRANCH  23  32
ATOM     32  O   UNL     1       5.056   5.762  16.139  0.00  0.00    +0.000 OA
ATOM     33  H   UNL     1       4.983   6.732  16.083  0.00  0.00    +0.000 HD
ENDBRANCH  23  32
ENDBRANCH   4  23
TORSDOF 11
ENDMDL
MODEL 9
REMARK VINA RESULT:      -7.6      1.619      2.568
REMARK  Name = 
REMARK  12 active torsions:
REMARK  status: ('A' for Active; 'I' for Inactive)
REMARK    1  A    between atoms: C_1  and  C_2
REMARK    2  A    between atoms: C_2  and  C_3
REMARK    3  A    between atoms: C_3  and  C_4
REMARK    4  A    between atoms: C_4  and  C_5
REMARK    5  A    between atoms: C_5  and  C_6
REMARK    6  A    between atoms: C_6  and  C_7
REMARK    7  A    between atoms: C_7  and  N_8
REMARK    8  A    between atoms: N_8  and  C_17
REMARK    9  A    between atoms: C_20  and  C_21
REMARK   10  A    between atoms: C_21  and  O_22
REMARK   11  A    between atoms: C_21  and  C_23
REMARK   12  A    between atoms: C_21  and  C_27
REMARK                            x       y       z     vdW  Elec       q    Type
REMARK                         _______ _______ _______ _____ _____    ______ ____
ROOT
ATOM      1  C   UNL     1       1.342   8.929  19.367  0.00  0.00    +0.000 A 
ATOM      2  C   UNL     1       1.842   8.866  18.064  0.00  0.00    +0.000 A 
ATOM      3  C   UNL     1       2.689   7.823  17.674  0.00  0.00    +0.000 A 
ATOM      4  C   UNL     1       3.053   6.797  18.570  0.00  0.00    +0.000 A 
ATOM      5  C   UNL     1       2.518   6.860  19.872  0.00  0.00    +0.000 A 
ATOM      6  C   UNL     1       1.692   7.917  20.266  0.00  0.00    +0.000 A 
ENDROOT
BRANCH   1   7
ATOM      7  N   UNL     1       0.431   9.966  19.762  0.00  0.00    +0.000 N 
ATOM      8  C   UNL     1      -0.141   9.862  21.033  0.00  0.00    +0.000 C 
ATOM      9  O   UNL     1      -0.311   8.766  21.578  0.00  0.00    +0.000 OA
ATOM     10  N   UNL     1      -0.515  11.009  21.715  0.00  0.00    +0.000 N 
ATOM     11  C   UNL     1      -1.198  10.859  23.009  0.00  0.00    +0.000 C 
ATOM     12  C   UNL     1      -2.285  11.935  23.186  0.00  0.00    +0.000 C 
ATOM     13  O   UNL     1      -1.819  13.263  22.892  0.00  0.00    +0.000 OA
ATOM     14  C   UNL     1      -1.209  13.324  21.594  0.00  0.00    +0.000 C 
ATOM     15  C   UNL     1      -0.010  12.377  21.560  0.00  0.00    +0.000 C 
BRANCH   7  16
ATOM     16  C   UNL     1       0.306  11.113  18.850  0.00  0.00    +0.000 C 
BRANCH  16  17
ATOM     17  C   UNL     1      -1.049  11.343  18.169  0.00  0.00    +0.000 C 
BRANCH  17  18
ATOM     18  C   UNL     1      -1.753  10.056  17.713  0.00  0.00    +0.000 C 
BRANCH  18  19
ATOM     19  C   UNL     1      -2.461  10.318  16.377  0.00  0.00    +0.000 C 
BRANCH  19  20
ATOM     20  C   UNL     1      -3.758  11.122  16.464  0.00  0.00    +0.000 C 
BRANCH  20  22
ATOM     21  C   UNL     1      -4.898  11.918  18.561  0.00  0.00    +0.000 C 
ATOM     22  C   UNL     1      -4.651  10.731  17.641  0.00  0.00    +0.000 C 
ENDBRANCH  20  22
ENDBRANCH  19  20
ENDBRANCH  18  19
ENDBRANCH  17  18
ENDBRANCH  16  17
ENDBRANCH   7  16
ENDBRANCH   1   7
BRANCH   4  23
ATOM     23  C   UNL     1       4.009   5.653  18.161  0.00  0.00    +0.000 C 
BRANCH  23  24
ATOM     24  C   UNL     1       3.228   4.415  17.641  0.00  0.00    +0.000 C 
ATOM     25  F   UNL     1       3.700   3.963  16.450  0.00  0.00    +0.000 F 
ATOM     26  F   UNL     1       3.174   3.343  18.449  0.00  0.00    +0.000 F 
ATOM     27  F   UNL     1       1.935   4.771  17.386  0.00  0.00    +0.000 F 
ENDBRANCH  23  24
BRANCH  23  28
ATOM     28  C   UNL     1       5.063   6.108  17.109  0.00  0.00    +0.000 C 
ATOM     29  F   UNL     1       5.727   7.230  17.490  0.00  0.00    +0.000 F 
ATOM     30  F   UNL     1       6.021   5.161  16.923  0.00  0.00    +0.000 F 
ATOM     31  F   UNL     1       4.575   6.377  15.881  0.00  0.00    +0.000 F 
ENDBRANCH  23  28
BRANCH  23  32
ATOM     32  O   UNL     1       4.722   5.266  19.397  0.00  0.00    +0.000 OA
ATOM     33  H   UNL     1       5.269   4.489  19.183  0.00  0.00    +0.000 HD
ENDBRANCH  23  32
ENDBRANCH   4  23
TORSDOF 11
ENDMDL
