MODEL 1
REMARK VINA RESULT:      -7.1      0.000      0.000
REMARK  Name = 
REMARK  11 active torsions:
REMARK  status: ('A' for Active; 'I' for Inactive)
REMARK    1  A    between atoms: C_1  and  O_2
REMARK    2  A    between atoms: O_2  and  C_3
REMARK    3  A    between atoms: C_6  and  C_7
REMARK    4  A    between atoms: C_9  and  N_10
REMARK    5  A    between atoms: C_11  and  C_13
REMARK    6  A    between atoms: C_13  and  C_14
REMARK    7  A    between atoms: C_13  and  N_20
REMARK    8  A    between atoms: C_14  and  C_15
REMARK    9  A    between atoms: C_15  and  S_16
REMARK   10  A    between atoms: S_16  and  C_17
REMARK   11  A    between atoms: C_21  and  C_22
REMARK                            x       y       z     vdW  Elec       q    Type
REMARK                         _______ _______ _______ _____ _____    ______ ____
ROOT
ATOM      1  N   UNL     1       3.946   5.184  18.624  0.00  0.00    +0.000 N 
ATOM      2  C   UNL     1       3.180   6.344  18.730  0.00  0.00    +0.000 C 
ATOM      3  O   UNL     1       3.299   7.348  18.030  0.00  0.00    +0.000 OA
ATOM      4  H   UNL     1       3.710   4.383  19.205  0.00  0.00    +0.000 HD
ENDROOT
BRANCH   1  11
ATOM      5  C   UNL     1       6.376   5.021  18.223  0.00  0.00    +0.000 A 
ATOM      6  C   UNL     1       7.453   4.791  17.345  0.00  0.00    +0.000 A 
ATOM      7  C   UNL     1       7.237   4.536  15.990  0.00  0.00    +0.000 A 
ATOM      8  C   UNL     1       5.940   4.498  15.495  0.00  0.00    +0.000 A 
ATOM      9  C   UNL     1       5.671   4.194  14.050  0.00  0.00    +0.000 C 
ATOM     10  C   UNL     1       4.862   4.720  16.369  0.00  0.00    +0.000 A 
ATOM     11  C   UNL     1       5.049   4.977  17.732  0.00  0.00    +0.000 A 
BRANCH   5  13
ATOM     12  C   UNL     1       7.888   5.639  19.953  0.00  0.00    +0.000 C 
ATOM     13  O   UNL     1       6.554   5.295  19.563  0.00  0.00    +0.000 OA
ENDBRANCH   5  13
ENDBRANCH   1  11
BRANCH   2  14
ATOM     14  C   UNL     1       2.005   6.290  19.742  0.00  0.00    +0.000 C 
BRANCH  14  15
ATOM     15  N   UNL     1       2.222   7.380  20.695  0.00  0.00    +0.000 N 
ATOM     16  C   UNL     1       1.182   8.058  21.267  0.00  0.00    +0.000 C 
ATOM     17  C   UNL     1       1.610   9.196  22.156  0.00  0.00    +0.000 C 
ATOM     18  O   UNL     1       0.007   7.757  21.087  0.00  0.00    +0.000 OA
ATOM     19  H   UNL     1       3.118   7.852  20.634  0.00  0.00    +0.000 HD
ENDBRANCH  14  15
BRANCH  14  20
ATOM     20  C   UNL     1       2.025   4.961  20.522  0.00  0.00    +0.000 C 
BRANCH  20  21
ATOM     21  C   UNL     1       0.823   4.069  20.204  0.00  0.00    +0.000 C 
BRANCH  21  22
ATOM     22  S   UNL     1       1.170   2.945  18.859  0.00  0.00    +0.000 S 
ATOM     23  C   UNL     1       2.710   2.198  19.342  0.00  0.00    +0.000 C 
ATOM     24  O   UNL     1       0.160   1.905  18.866  0.00  0.00    +0.000 OA
ATOM     25  O   UNL     1       1.428   3.733  17.668  0.00  0.00    +0.000 OA
ENDBRANCH  21  22
ENDBRANCH  20  21
ENDBRANCH  14  20
ENDBRANCH   2  14
TORSDOF 7
ENDMDL
MODEL 2
REMARK VINA RESULT:      -6.7      2.782      6.106
REMARK  Name = 
REMARK  11 active torsions:
REMARK  status: ('A' for Active; 'I' for Inactive)
REMARK    1  A    between atoms: C_1  and  O_2
REMARK    2  A    between atoms: O_2  and  C_3
REMARK    3  A    between atoms: C_6  and  C_7
REMARK    4  A    between atoms: C_9  and  N_10
REMARK    5  A    between atoms: C_11  and  C_13
REMARK    6  A    between atoms: C_13  and  C_14
REMARK    7  A    between atoms: C_13  and  N_20
REMARK    8  A    between atoms: C_14  and  C_15
REMARK    9  A    between atoms: C_15  and  S_16
REMARK   10  A    between atoms: S_16  and  C_17
REMARK   11  A    between atoms: C_21  and  C_22
REMARK                            x       y       z     vdW  Elec       q    Type
REMARK                         _______ _______ _______ _____ _____    ______ ____
ROOT
ATOM      1  N   UNL     1       5.120   5.208  18.538  0.00  0.00    +0.000 N 
ATOM      2  C   UNL     1       6.395   5.215  19.103  0.00  0.00    +0.000 C 
ATOM      3  O   UNL     1       6.654   5.017  20.289  0.00  0.00    +0.000 OA
ATOM      4  H   UNL     1       5.028   5.308  17.530  0.00  0.00    +0.000 HD
ENDROOT
BRANCH   1  11
ATOM      5  C   UNL     1       3.394   3.736  19.508  0.00  0.00    +0.000 A 
ATOM      6  C   UNL     1       2.190   3.575  20.223  0.00  0.00    +0.000 A 
ATOM      7  C   UNL     1       1.460   4.680  20.661  0.00  0.00    +0.000 A 
ATOM      8  C   UNL     1       1.926   5.962  20.400  0.00  0.00    +0.000 A 
ATOM      9  C   UNL     1       1.181   7.171  20.885  0.00  0.00    +0.000 C 
ATOM     10  C   UNL     1       3.129   6.127  19.693  0.00  0.00    +0.000 A 
ATOM     11  C   UNL     1       3.883   5.037  19.242  0.00  0.00    +0.000 A 
BRANCH   5  13
ATOM     12  C   UNL     1       3.441   1.773  18.164  0.00  0.00    +0.000 C 
ATOM     13  O   UNL     1       4.131   2.666  19.044  0.00  0.00    +0.000 OA
ENDBRANCH   5  13
ENDBRANCH   1  11
BRANCH   2  14
ATOM     14  C   UNL     1       7.576   5.366  18.108  0.00  0.00    +0.000 C 
BRANCH  14  15
ATOM     15  N   UNL     1       7.475   6.712  17.540  0.00  0.00    +0.000 N 
ATOM     16  C   UNL     1       8.057   7.795  18.139  0.00  0.00    +0.000 C 
ATOM     17  C   UNL     1       7.772   9.102  17.446  0.00  0.00    +0.000 C 
ATOM     18  O   UNL     1       8.761   7.709  19.139  0.00  0.00    +0.000 OA
ATOM     19  H   UNL     1       6.684   6.878  16.928  0.00  0.00    +0.000 HD
ENDBRANCH  14  15
BRANCH  14  20
ATOM     20  C   UNL     1       7.446   4.349  16.957  0.00  0.00    +0.000 C 
BRANCH  20  21
ATOM     21  C   UNL     1       7.305   5.019  15.589  0.00  0.00    +0.000 C 
BRANCH  21  22
ATOM     22  S   UNL     1       5.626   4.937  14.981  0.00  0.00    +0.000 S 
ATOM     23  C   UNL     1       5.791   4.039  13.455  0.00  0.00    +0.000 C 
ATOM     24  O   UNL     1       4.856   4.111  15.891  0.00  0.00    +0.000 OA
ATOM     25  O   UNL     1       5.202   6.283  14.645  0.00  0.00    +0.000 OA
ENDBRANCH  21  22
ENDBRANCH  20  21
ENDBRANCH  14  20
ENDBRANCH   2  14
TORSDOF 7
ENDMDL
MODEL 3
REMARK VINA RESULT:      -6.7      0.986      1.112
REMARK  Name = 
REMARK  11 active torsions:
REMARK  status: ('A' for Active; 'I' for Inactive)
REMARK    1  A    between atoms: C_1  and  O_2
REMARK    2  A    between atoms: O_2  and  C_3
REMARK    3  A    between atoms: C_6  and  C_7
REMARK    4  A    between atoms: C_9  and  N_10
REMARK    5  A    between atoms: C_11  and  C_13
REMARK    6  A    between atoms: C_13  and  C_14
REMARK    7  A    between atoms: C_13  and  N_20
REMARK    8  A    between atoms: C_14  and  C_15
REMARK    9  A    between atoms: C_15  and  S_16
REMARK   10  A    between atoms: S_16  and  C_17
REMARK   11  A    between atoms: C_21  and  C_22
REMARK                            x       y       z     vdW  Elec       q    Type
REMARK                         _______ _______ _______ _____ _____    ______ ____
ROOT
ATOM      1  N   UNL     1       3.901   5.204  18.472  0.00  0.00    +0.000 N 
ATOM      2  C   UNL     1       3.262   6.429  18.657  0.00  0.00    +0.000 C 
ATOM      3  O   UNL     1       3.494   7.460  18.028  0.00  0.00    +0.000 OA
ATOM      4  H   UNL     1       3.575   4.395  18.996  0.00  0.00    +0.000 HD
ENDROOT
BRANCH   1  11
ATOM      5  C   UNL     1       6.315   4.926  18.044  0.00  0.00    +0.000 A 
ATOM      6  C   UNL     1       7.370   4.642  17.155  0.00  0.00    +0.000 A 
ATOM      7  C   UNL     1       7.127   4.389  15.805  0.00  0.00    +0.000 A 
ATOM      8  C   UNL     1       5.823   4.409  15.324  0.00  0.00    +0.000 A 
ATOM      9  C   UNL     1       5.524   4.109  13.885  0.00  0.00    +0.000 C 
ATOM     10  C   UNL     1       4.767   4.686  16.209  0.00  0.00    +0.000 A 
ATOM     11  C   UNL     1       4.982   4.941  17.569  0.00  0.00    +0.000 A 
BRANCH   5  13
ATOM     12  C   UNL     1       7.828   5.674  19.721  0.00  0.00    +0.000 C 
ATOM     13  O   UNL     1       6.522   5.199  19.381  0.00  0.00    +0.000 OA
ENDBRANCH   5  13
ENDBRANCH   1  11
BRANCH   2  14
ATOM     14  C   UNL     1       2.079   6.433  19.662  0.00  0.00    +0.000 C 
BRANCH  14  15
ATOM     15  N   UNL     1       2.175   7.683  20.418  0.00  0.00    +0.000 N 
ATOM     16  C   UNL     1       1.110   8.196  21.103  0.00  0.00    +0.000 C 
ATOM     17  C   UNL     1       1.385   9.530  21.749  0.00  0.00    +0.000 C 
ATOM     18  O   UNL     1       0.033   7.617  21.200  0.00  0.00    +0.000 OA
ATOM     19  H   UNL     1       2.903   8.326  20.123  0.00  0.00    +0.000 HD
ENDBRANCH  14  15
BRANCH  14  20
ATOM     20  C   UNL     1       2.212   5.262  20.655  0.00  0.00    +0.000 C 
BRANCH  20  21
ATOM     21  C   UNL     1       1.106   4.217  20.490  0.00  0.00    +0.000 C 
BRANCH  21  22
ATOM     22  S   UNL     1       1.715   2.559  20.764  0.00  0.00    +0.000 S 
ATOM     23  C   UNL     1       3.478   2.748  20.631  0.00  0.00    +0.000 C 
ATOM     24  O   UNL     1       1.418   2.189  22.134  0.00  0.00    +0.000 OA
ATOM     25  O   UNL     1       1.285   1.732  19.652  0.00  0.00    +0.000 OA
ENDBRANCH  21  22
ENDBRANCH  20  21
ENDBRANCH  14  20
ENDBRANCH   2  14
TORSDOF 7
ENDMDL
MODEL 4
REMARK VINA RESULT:      -6.7      2.338      6.037
REMARK  Name = 
REMARK  11 active torsions:
REMARK  status: ('A' for Active; 'I' for Inactive)
REMARK    1  A    between atoms: C_1  and  O_2
REMARK    2  A    between atoms: O_2  and  C_3
REMARK    3  A    between atoms: C_6  and  C_7
REMARK    4  A    between atoms: C_9  and  N_10
REMARK    5  A    between atoms: C_11  and  C_13
REMARK    6  A    between atoms: C_13  and  C_14
REMARK    7  A    between atoms: C_13  and  N_20
REMARK    8  A    between atoms: C_14  and  C_15
REMARK    9  A    between atoms: C_15  and  S_16
REMARK   10  A    between atoms: S_16  and  C_17
REMARK   11  A    between atoms: C_21  and  C_22
REMARK                            x       y       z     vdW  Elec       q    Type
REMARK                         _______ _______ _______ _____ _____    ______ ____
ROOT
ATOM      1  N   UNL     1       3.406   5.359  18.496  0.00  0.00    +0.000 N 
ATOM      2  C   UNL     1       2.917   4.372  17.640  0.00  0.00    +0.000 C 
ATOM      3  O   UNL     1       1.791   4.347  17.146  0.00  0.00    +0.000 OA
ATOM      4  H   UNL     1       4.381   5.320  18.785  0.00  0.00    +0.000 HD
ENDROOT
BRANCH   1  11
ATOM      5  C   UNL     1       2.052   6.404  20.275  0.00  0.00    +0.000 A 
ATOM      6  C   UNL     1       1.352   7.518  20.778  0.00  0.00    +0.000 A 
ATOM      7  C   UNL     1       1.244   8.695  20.038  0.00  0.00    +0.000 A 
ATOM      8  C   UNL     1       1.840   8.780  18.786  0.00  0.00    +0.000 A 
ATOM      9  C   UNL     1       1.770  10.042  17.977  0.00  0.00    +0.000 C 
ATOM     10  C   UNL     1       2.544   7.672  18.283  0.00  0.00    +0.000 A 
ATOM     11  C   UNL     1       2.671   6.479  19.004  0.00  0.00    +0.000 A 
BRANCH   5  13
ATOM     12  C   UNL     1       1.141   4.250  20.713  0.00  0.00    +0.000 C 
ATOM     13  O   UNL     1       2.163   5.218  20.971  0.00  0.00    +0.000 OA
ENDBRANCH   5  13
ENDBRANCH   1  11
BRANCH   2  14
ATOM     14  C   UNL     1       3.939   3.294  17.195  0.00  0.00    +0.000 C 
BRANCH  14  15
ATOM     15  N   UNL     1       4.605   2.820  18.410  0.00  0.00    +0.000 N 
ATOM     16  C   UNL     1       3.974   2.005  19.308  0.00  0.00    +0.000 C 
ATOM     17  C   UNL     1       4.796   1.693  20.532  0.00  0.00    +0.000 C 
ATOM     18  O   UNL     1       2.848   1.553  19.127  0.00  0.00    +0.000 OA
ATOM     19  H   UNL     1       5.374   3.389  18.747  0.00  0.00    +0.000 HD
ENDBRANCH  14  15
BRANCH  14  20
ATOM     20  C   UNL     1       5.009   3.912  16.273  0.00  0.00    +0.000 C 
BRANCH  20  21
ATOM     21  C   UNL     1       5.476   5.289  16.750  0.00  0.00    +0.000 C 
BRANCH  21  22
ATOM     22  S   UNL     1       6.968   5.179  17.728  0.00  0.00    +0.000 S 
ATOM     23  C   UNL     1       7.541   6.861  17.786  0.00  0.00    +0.000 C 
ATOM     24  O   UNL     1       6.597   4.798  19.077  0.00  0.00    +0.000 OA
ATOM     25  O   UNL     1       7.946   4.416  16.974  0.00  0.00    +0.000 OA
ENDBRANCH  21  22
ENDBRANCH  20  21
ENDBRANCH  14  20
ENDBRANCH   2  14
TORSDOF 7
ENDMDL
MODEL 5
REMARK VINA RESULT:      -6.3      1.794      1.977
REMARK  Name = 
REMARK  11 active torsions:
REMARK  status: ('A' for Active; 'I' for Inactive)
REMARK    1  A    between atoms: C_1  and  O_2
REMARK    2  A    between atoms: O_2  and  C_3
REMARK    3  A    between atoms: C_6  and  C_7
REMARK    4  A    between atoms: C_9  and  N_10
REMARK    5  A    between atoms: C_11  and  C_13
REMARK    6  A    between atoms: C_13  and  C_14
REMARK    7  A    between atoms: C_13  and  N_20
REMARK    8  A    between atoms: C_14  and  C_15
REMARK    9  A    between atoms: C_15  and  S_16
REMARK   10  A    between atoms: S_16  and  C_17
REMARK   11  A    between atoms: C_21  and  C_22
REMARK                            x       y       z     vdW  Elec       q    Type
REMARK                         _______ _______ _______ _____ _____    ______ ____
ROOT
ATOM      1  N   UNL     1       3.843   5.507  17.991  0.00  0.00    +0.000 N 
ATOM      2  C   UNL     1       3.356   6.808  18.114  0.00  0.00    +0.000 C 
ATOM      3  O   UNL     1       3.788   7.793  17.518  0.00  0.00    +0.000 OA
ATOM      4  H   UNL     1       3.359   4.753  18.473  0.00  0.00    +0.000 HD
ENDROOT
BRANCH   1  11
ATOM      5  C   UNL     1       6.255   5.027  17.790  0.00  0.00    +0.000 A 
ATOM      6  C   UNL     1       7.352   4.597  17.018  0.00  0.00    +0.000 A 
ATOM      7  C   UNL     1       7.196   4.250  15.675  0.00  0.00    +0.000 A 
ATOM      8  C   UNL     1       5.940   4.321  15.087  0.00  0.00    +0.000 A 
ATOM      9  C   UNL     1       5.731   3.925  13.654  0.00  0.00    +0.000 C 
ATOM     10  C   UNL     1       4.842   4.743  15.855  0.00  0.00    +0.000 A 
ATOM     11  C   UNL     1       4.968   5.095  17.204  0.00  0.00    +0.000 A 
BRANCH   5  13
ATOM     12  C   UNL     1       7.697   5.741  19.542  0.00  0.00    +0.000 C 
ATOM     13  O   UNL     1       6.376   5.394  19.114  0.00  0.00    +0.000 OA
ENDBRANCH   5  13
ENDBRANCH   1  11
BRANCH   2  14
ATOM     14  C   UNL     1       2.086   6.977  18.989  0.00  0.00    +0.000 C 
BRANCH  14  15
ATOM     15  N   UNL     1       1.981   8.403  19.304  0.00  0.00    +0.000 N 
ATOM     16  C   UNL     1       1.266   9.265  18.521  0.00  0.00    +0.000 C 
ATOM     17  C   UNL     1       1.345  10.703  18.965  0.00  0.00    +0.000 C 
ATOM     18  O   UNL     1       0.605   8.901  17.554  0.00  0.00    +0.000 OA
ATOM     19  H   UNL     1       2.727   8.788  19.874  0.00  0.00    +0.000 HD
ENDBRANCH  14  15
BRANCH  14  20
ATOM     20  C   UNL     1       2.237   6.203  20.314  0.00  0.00    +0.000 C 
BRANCH  20  21
ATOM     21  C   UNL     1       1.327   4.975  20.388  0.00  0.00    +0.000 C 
BRANCH  21  22
ATOM     22  S   UNL     1       2.257   3.482  20.706  0.00  0.00    +0.000 S 
ATOM     23  C   UNL     1       1.431   2.268  19.703  0.00  0.00    +0.000 C 
ATOM     24  O   UNL     1       3.592   3.657  20.168  0.00  0.00    +0.000 OA
ATOM     25  O   UNL     1       2.049   3.108  22.093  0.00  0.00    +0.000 OA
ENDBRANCH  21  22
ENDBRANCH  20  21
ENDBRANCH  14  20
ENDBRANCH   2  14
TORSDOF 7
ENDMDL
MODEL 6
REMARK VINA RESULT:      -6.3      2.535      6.888
REMARK  Name = 
REMARK  11 active torsions:
REMARK  status: ('A' for Active; 'I' for Inactive)
REMARK    1  A    between atoms: C_1  and  O_2
REMARK    2  A    between atoms: O_2  and  C_3
REMARK    3  A    between atoms: C_6  and  C_7
REMARK    4  A    between atoms: C_9  and  N_10
REMARK    5  A    between atoms: C_11  and  C_13
REMARK    6  A    between atoms: C_13  and  C_14
REMARK    7  A    between atoms: C_13  and  N_20
REMARK    8  A    between atoms: C_14  and  C_15
REMARK    9  A    between atoms: C_15  and  S_16
REMARK   10  A    between atoms: S_16  and  C_17
REMARK   11  A    between atoms: C_21  and  C_22
REMARK                            x       y       z     vdW  Elec       q    Type
REMARK                         _______ _______ _______ _____ _____    ______ ____
ROOT
ATOM      1  N   UNL     1       2.093   7.782  19.204  0.00  0.00    +0.000 N 
ATOM      2  C   UNL     1       2.361   6.498  19.676  0.00  0.00    +0.000 C 
ATOM      3  O   UNL     1       2.028   6.055  20.774  0.00  0.00    +0.000 OA
ATOM      4  H   UNL     1       2.348   8.019  18.248  0.00  0.00    +0.000 HD
ENDROOT
BRANCH   1  11
ATOM      5  C   UNL     1       1.263  10.103  19.333  0.00  0.00    +0.000 A 
ATOM      6  C   UNL     1       0.603  11.123  20.044  0.00  0.00    +0.000 A 
ATOM      7  C   UNL     1       0.136  10.911  21.342  0.00  0.00    +0.000 A 
ATOM      8  C   UNL     1       0.315   9.672  21.944  0.00  0.00    +0.000 A 
ATOM      9  C   UNL     1      -0.203   9.400  23.326  0.00  0.00    +0.000 C 
ATOM     10  C   UNL     1       0.968   8.649  21.235  0.00  0.00    +0.000 A 
ATOM     11  C   UNL     1       1.445   8.834  19.932  0.00  0.00    +0.000 A 
BRANCH   5  13
ATOM     12  C   UNL     1       2.424  11.527  17.821  0.00  0.00    +0.000 C 
ATOM     13  O   UNL     1       1.753  10.284  18.056  0.00  0.00    +0.000 OA
ENDBRANCH   5  13
ENDBRANCH   1  11
BRANCH   2  14
ATOM     14  C   UNL     1       3.028   5.529  18.665  0.00  0.00    +0.000 C 
BRANCH  14  15
ATOM     15  N   UNL     1       2.497   4.195  18.950  0.00  0.00    +0.000 N 
ATOM     16  C   UNL     1       1.489   3.645  18.209  0.00  0.00    +0.000 C 
ATOM     17  C   UNL     1       1.027   2.301  18.709  0.00  0.00    +0.000 C 
ATOM     18  O   UNL     1       1.013   4.188  17.217  0.00  0.00    +0.000 OA
ATOM     19  H   UNL     1       2.625   3.859  19.899  0.00  0.00    +0.000 HD
ENDBRANCH  14  15
BRANCH  14  20
ATOM     20  C   UNL     1       4.554   5.493  18.878  0.00  0.00    +0.000 C 
BRANCH  20  21
ATOM     21  C   UNL     1       5.324   6.212  17.768  0.00  0.00    +0.000 C 
BRANCH  21  22
ATOM     22  S   UNL     1       6.659   5.207  17.132  0.00  0.00    +0.000 S 
ATOM     23  C   UNL     1       5.817   4.002  16.131  0.00  0.00    +0.000 C 
ATOM     24  O   UNL     1       7.460   6.028  16.244  0.00  0.00    +0.000 OA
ATOM     25  O   UNL     1       7.260   4.497  18.246  0.00  0.00    +0.000 OA
ENDBRANCH  21  22
ENDBRANCH  20  21
ENDBRANCH  14  20
ENDBRANCH   2  14
TORSDOF 7
ENDMDL
MODEL 7
REMARK VINA RESULT:      -6.2      2.208      4.076
REMARK  Name = 
REMARK  11 active torsions:
REMARK  status: ('A' for Active; 'I' for Inactive)
REMARK    1  A    between atoms: C_1  and  O_2
REMARK    2  A    between atoms: O_2  and  C_3
REMARK    3  A    between atoms: C_6  and  C_7
REMARK    4  A    between atoms: C_9  and  N_10
REMARK    5  A    between atoms: C_11  and  C_13
REMARK    6  A    between atoms: C_13  and  C_14
REMARK    7  A    between atoms: C_13  and  N_20
REMARK    8  A    between atoms: C_14  and  C_15
REMARK    9  A    between atoms: C_15  and  S_16
REMARK   10  A    between atoms: S_16  and  C_17
REMARK   11  A    between atoms: C_21  and  C_22
REMARK                            x       y       z     vdW  Elec       q    Type
REMARK                         _______ _______ _______ _____ _____    ______ ____
ROOT
ATOM      1  N   UNL     1       4.249   5.267  18.978  0.00  0.00    +0.000 N 
ATOM      2  C   UNL     1       3.414   6.384  19.004  0.00  0.00    +0.000 C 
ATOM      3  O   UNL     1       3.370   7.264  18.147  0.00  0.00    +0.000 OA
ATOM      4  H   UNL     1       4.148   4.560  19.703  0.00  0.00    +0.000 HD
ENDROOT
BRANCH   1  11
ATOM      5  C   UNL     1       6.609   4.889  18.363  0.00  0.00    +0.000 A 
ATOM      6  C   UNL     1       7.581   4.580  17.392  0.00  0.00    +0.000 A 
ATOM      7  C   UNL     1       7.226   4.375  16.058  0.00  0.00    +0.000 A 
ATOM      8  C   UNL     1       5.893   4.468  15.677  0.00  0.00    +0.000 A 
ATOM      9  C   UNL     1       5.473   4.222  14.257  0.00  0.00    +0.000 C 
ATOM     10  C   UNL     1       4.920   4.770  16.645  0.00  0.00    +0.000 A 
ATOM     11  C   UNL     1       5.247   4.978  17.990  0.00  0.00    +0.000 A 
BRANCH   5  13
ATOM     12  C   UNL     1       8.209   5.707  19.924  0.00  0.00    +0.000 C 
ATOM     13  O   UNL     1       6.927   5.116  19.687  0.00  0.00    +0.000 OA
ENDBRANCH   5  13
ENDBRANCH   1  11
BRANCH   2  14
ATOM     14  C   UNL     1       2.380   6.430  20.159  0.00  0.00    +0.000 C 
BRANCH  14  15
ATOM     15  N   UNL     1       1.465   5.307  19.948  0.00  0.00    +0.000 N 
ATOM     16  C   UNL     1       1.617   4.118  20.606  0.00  0.00    +0.000 C 
ATOM     17  C   UNL     1       0.626   3.061  20.193  0.00  0.00    +0.000 C 
ATOM     18  O   UNL     1       2.470   3.933  21.467  0.00  0.00    +0.000 OA
ATOM     19  H   UNL     1       0.968   5.298  19.064  0.00  0.00    +0.000 HD
ENDBRANCH  14  15
BRANCH  14  20
ATOM     20  C   UNL     1       1.559   7.734  20.096  0.00  0.00    +0.000 C 
BRANCH  20  21
ATOM     21  C   UNL     1       0.675   7.936  21.329  0.00  0.00    +0.000 C 
BRANCH  21  22
ATOM     22  S   UNL     1       0.887   9.564  22.035  0.00  0.00    +0.000 S 
ATOM     23  C   UNL     1      -0.624   9.813  22.940  0.00  0.00    +0.000 C 
ATOM     24  O   UNL     1       1.967   9.502  23.000  0.00  0.00    +0.000 OA
ATOM     25  O   UNL     1       0.903  10.528  20.950  0.00  0.00    +0.000 OA
ENDBRANCH  21  22
ENDBRANCH  20  21
ENDBRANCH  14  20
ENDBRANCH   2  14
TORSDOF 7
ENDMDL
MODEL 8
REMARK VINA RESULT:      -6.2      2.572      6.828
REMARK  Name = 
REMARK  11 active torsions:
REMARK  status: ('A' for Active; 'I' for Inactive)
REMARK    1  A    between atoms: C_1  and  O_2
REMARK    2  A    between atoms: O_2  and  C_3
REMARK    3  A    between atoms: C_6  and  C_7
REMARK    4  A    between atoms: C_9  and  N_10
REMARK    5  A    between atoms: C_11  and  C_13
REMARK    6  A    between atoms: C_13  and  C_14
REMARK    7  A    between atoms: C_13  and  N_20
REMARK    8  A    between atoms: C_14  and  C_15
REMARK    9  A    between atoms: C_15  and  S_16
REMARK   10  A    between atoms: S_16  and  C_17
REMARK   11  A    between atoms: C_21  and  C_22
REMARK                            x       y       z     vdW  Elec       q    Type
REMARK                         _______ _______ _______ _____ _____    ______ ____
ROOT
ATOM      1  N   UNL     1       2.149   7.765  19.319  0.00  0.00    +0.000 N 
ATOM      2  C   UNL     1       2.310   6.451  19.757  0.00  0.00    +0.000 C 
ATOM      3  O   UNL     1       1.804   5.967  20.768  0.00  0.00    +0.000 OA
ATOM      4  H   UNL     1       2.552   8.039  18.426  0.00  0.00    +0.000 HD
ENDROOT
BRANCH   1  11
ATOM      5  C   UNL     1       1.154  10.024  19.336  0.00  0.00    +0.000 A 
ATOM      6  C   UNL     1       0.420  11.027  19.998  0.00  0.00    +0.000 A 
ATOM      7  C   UNL     1      -0.035  10.843  21.304  0.00  0.00    +0.000 A 
ATOM      8  C   UNL     1       0.230   9.650  21.965  0.00  0.00    +0.000 A 
ATOM      9  C   UNL     1      -0.272   9.408  23.358  0.00  0.00    +0.000 C 
ATOM     10  C   UNL     1       0.957   8.645  21.305  0.00  0.00    +0.000 A 
ATOM     11  C   UNL     1       1.424   8.801  19.995  0.00  0.00    +0.000 A 
BRANCH   5  13
ATOM     12  C   UNL     1       2.387  11.373  17.812  0.00  0.00    +0.000 C 
ATOM     13  O   UNL     1       1.635  10.179  18.052  0.00  0.00    +0.000 OA
ENDBRANCH   5  13
ENDBRANCH   1  11
BRANCH   2  14
ATOM     14  C   UNL     1       3.098   5.511  18.808  0.00  0.00    +0.000 C 
BRANCH  14  15
ATOM     15  N   UNL     1       2.583   4.159  19.034  0.00  0.00    +0.000 N 
ATOM     16  C   UNL     1       1.588   3.628  18.263  0.00  0.00    +0.000 C 
ATOM     17  C   UNL     1       1.140   2.258  18.703  0.00  0.00    +0.000 C 
ATOM     18  O   UNL     1       1.112   4.204  17.291  0.00  0.00    +0.000 OA
ATOM     19  H   UNL     1       2.709   3.786  19.969  0.00  0.00    +0.000 HD
ENDBRANCH  14  15
BRANCH  14  20
ATOM     20  C   UNL     1       4.598   5.518  19.165  0.00  0.00    +0.000 C 
BRANCH  20  21
ATOM     21  C   UNL     1       5.376   4.397  18.472  0.00  0.00    +0.000 C 
BRANCH  21  22
ATOM     22  S   UNL     1       6.259   4.994  17.037  0.00  0.00    +0.000 S 
ATOM     23  C   UNL     1       6.421   6.736  17.355  0.00  0.00    +0.000 C 
ATOM     24  O   UNL     1       7.592   4.422  17.056  0.00  0.00    +0.000 OA
ATOM     25  O   UNL     1       5.394   4.845  15.882  0.00  0.00    +0.000 OA
ENDBRANCH  21  22
ENDBRANCH  20  21
ENDBRANCH  14  20
ENDBRANCH   2  14
TORSDOF 7
ENDMDL
MODEL 9
REMARK VINA RESULT:      -6.2      2.781      7.043
REMARK  Name = 
REMARK  11 active torsions:
REMARK  status: ('A' for Active; 'I' for Inactive)
REMARK    1  A    between atoms: C_1  and  O_2
REMARK    2  A    between atoms: O_2  and  C_3
REMARK    3  A    between atoms: C_6  and  C_7
REMARK    4  A    between atoms: C_9  and  N_10
REMARK    5  A    between atoms: C_11  and  C_13
REMARK    6  A    between atoms: C_13  and  C_14
REMARK    7  A    between atoms: C_13  and  N_20
REMARK    8  A    between atoms: C_14  and  C_15
REMARK    9  A    between atoms: C_15  and  S_16
REMARK   10  A    between atoms: S_16  and  C_17
REMARK   11  A    between atoms: C_21  and  C_22
REMARK                            x       y       z     vdW  Elec       q    Type
REMARK                         _______ _______ _______ _____ _____    ______ ____
ROOT
ATOM      1  N   UNL     1       2.057   8.024  18.969  0.00  0.00    +0.000 N 
ATOM      2  C   UNL     1       2.365   6.725  19.372  0.00  0.00    +0.000 C 
ATOM      3  O   UNL     1       2.083   6.226  20.460  0.00  0.00    +0.000 OA
ATOM      4  H   UNL     1       2.271   8.307  18.016  0.00  0.00    +0.000 HD
ENDROOT
BRANCH   1  11
ATOM      5  C   UNL     1       1.342  10.362  19.301  0.00  0.00    +0.000 A 
ATOM      6  C   UNL     1       0.693  11.339  20.080  0.00  0.00    +0.000 A 
ATOM      7  C   UNL     1       0.135  11.019  21.318  0.00  0.00    +0.000 A 
ATOM      8  C   UNL     1       0.211   9.715  21.792  0.00  0.00    +0.000 A 
ATOM      9  C   UNL     1      -0.406   9.330  23.105  0.00  0.00    +0.000 C 
ATOM     10  C   UNL     1       0.853   8.737  21.015  0.00  0.00    +0.000 A 
ATOM     11  C   UNL     1       1.420   9.029  19.769  0.00  0.00    +0.000 A 
BRANCH   5  13
ATOM     12  C   UNL     1       2.469  11.963  17.949  0.00  0.00    +0.000 C 
ATOM     13  O   UNL     1       1.921  10.648  18.081  0.00  0.00    +0.000 OA
ENDBRANCH   5  13
ENDBRANCH   1  11
BRANCH   2  14
ATOM     14  C   UNL     1       3.009   5.815  18.293  0.00  0.00    +0.000 C 
BRANCH  14  15
ATOM     15  N   UNL     1       2.687   4.435  18.662  0.00  0.00    +0.000 N 
ATOM     16  C   UNL     1       1.656   3.753  18.079  0.00  0.00    +0.000 C 
ATOM     17  C   UNL     1       1.434   2.376  18.650  0.00  0.00    +0.000 C 
ATOM     18  O   UNL     1       0.982   4.212  17.163  0.00  0.00    +0.000 OA
ATOM     19  H   UNL     1       2.989   4.139  19.584  0.00  0.00    +0.000 HD
ENDBRANCH  14  15
BRANCH  14  20
ATOM     20  C   UNL     1       4.543   5.968  18.303  0.00  0.00    +0.000 C 
BRANCH  20  21
ATOM     21  C   UNL     1       5.120   6.233  16.910  0.00  0.00    +0.000 C 
BRANCH  21  22
ATOM     22  S   UNL     1       6.896   6.431  16.958  0.00  0.00    +0.000 S 
ATOM     23  C   UNL     1       7.370   5.504  18.399  0.00  0.00    +0.000 C 
ATOM     24  O   UNL     1       7.457   5.758  15.802  0.00  0.00    +0.000 OA
ATOM     25  O   UNL     1       7.187   7.827  17.228  0.00  0.00    +0.000 OA
ENDBRANCH  21  22
ENDBRANCH  20  21
ENDBRANCH  14  20
ENDBRANCH   2  14
TORSDOF 7
ENDMDL
