MODEL 1
REMARK VINA RESULT:      -6.2      0.000      0.000
REMARK  Name = 
REMARK  2 active torsions:
REMARK  status: ('A' for Active; 'I' for Inactive)
REMARK    1  A    between atoms: C_6  and  N_7
REMARK    2  A    between atoms: N_8  and  N_9
REMARK                            x       y       z     vdW  Elec       q    Type
REMARK                         _______ _______ _______ _____ _____    ______ ____
ROOT
ATOM      1 BR   UNL     1       6.308   3.822  13.064  0.00  0.00    +0.000 Br
ATOM      2  C   UNL     1       6.213   4.156  14.925  0.00  0.00    +0.000 A 
ATOM      3  C   UNL     1       7.316   4.683  15.591  0.00  0.00    +0.000 A 
ATOM      4  C   UNL     1       7.243   4.927  16.960  0.00  0.00    +0.000 A 
ATOM      5  C   UNL     1       6.060   4.654  17.656  0.00  0.00    +0.000 A 
ATOM      6  C   UNL     1       4.941   4.123  16.992  0.00  0.00    +0.000 A 
ATOM      7  C   UNL     1       5.034   3.881  15.613  0.00  0.00    +0.000 A 
ENDROOT
BRANCH   6   8
ATOM      8  N   UNL     1       3.752   3.921  17.723  0.00  0.00    +0.000 NA
ATOM      9  N   UNL     1       3.968   3.314  18.790  0.00  0.00    +0.000 NA
BRANCH   9  10
ATOM     10  N   UNL     1       2.843   3.039  19.494  0.00  0.00    +0.000 N 
ATOM     11  C   UNL     1       1.502   3.456  19.144  0.00  0.00    +0.000 C 
ATOM     12  C   UNL     1       0.889   3.825  20.488  0.00  0.00    +0.000 C 
ATOM     13  C   UNL     1       1.561   2.860  21.460  0.00  0.00    +0.000 C 
ATOM     14  C   UNL     1       2.962   2.673  20.888  0.00  0.00    +0.000 C 
ENDBRANCH   9  10
ENDBRANCH   6   8
TORSDOF 2
ENDMDL
MODEL 2
REMARK VINA RESULT:      -6.1      1.768      2.103
REMARK  Name = 
REMARK  2 active torsions:
REMARK  status: ('A' for Active; 'I' for Inactive)
REMARK    1  A    between atoms: C_6  and  N_7
REMARK    2  A    between atoms: N_8  and  N_9
REMARK                            x       y       z     vdW  Elec       q    Type
REMARK                         _______ _______ _______ _____ _____    ______ ____
ROOT
ATOM      1 BR   UNL     1       7.672   7.782  17.505  0.00  0.00    +0.000 Br
ATOM      2  C   UNL     1       6.730   6.226  16.980  0.00  0.00    +0.000 A 
ATOM      3  C   UNL     1       7.238   5.418  15.966  0.00  0.00    +0.000 A 
ATOM      4  C   UNL     1       6.543   4.275  15.582  0.00  0.00    +0.000 A 
ATOM      5  C   UNL     1       5.345   3.938  16.222  0.00  0.00    +0.000 A 
ATOM      6  C   UNL     1       4.824   4.747  17.246  0.00  0.00    +0.000 A 
ATOM      7  C   UNL     1       5.537   5.896  17.618  0.00  0.00    +0.000 A 
ENDROOT
BRANCH   6   8
ATOM      8  N   UNL     1       3.646   4.335  17.902  0.00  0.00    +0.000 NA
ATOM      9  N   UNL     1       3.898   3.630  18.899  0.00  0.00    +0.000 NA
BRANCH   9  10
ATOM     10  N   UNL     1       2.792   3.157  19.522  0.00  0.00    +0.000 N 
ATOM     11  C   UNL     1       1.424   3.368  19.095  0.00  0.00    +0.000 C 
ATOM     12  C   UNL     1       0.681   3.589  20.405  0.00  0.00    +0.000 C 
ATOM     13  C   UNL     1       1.439   2.710  21.396  0.00  0.00    +0.000 C 
ATOM     14  C   UNL     1       2.884   2.767  20.912  0.00  0.00    +0.000 C 
ENDBRANCH   9  10
ENDBRANCH   6   8
TORSDOF 2
ENDMDL
MODEL 3
REMARK VINA RESULT:      -6.0      1.908      2.443
REMARK  Name = 
REMARK  2 active torsions:
REMARK  status: ('A' for Active; 'I' for Inactive)
REMARK    1  A    between atoms: C_6  and  N_7
REMARK    2  A    between atoms: N_8  and  N_9
REMARK                            x       y       z     vdW  Elec       q    Type
REMARK                         _______ _______ _______ _____ _____    ______ ____
ROOT
ATOM      1 BR   UNL     1       7.647   7.744  17.512  0.00  0.00    +0.000 Br
ATOM      2  C   UNL     1       6.715   6.192  16.958  0.00  0.00    +0.000 A 
ATOM      3  C   UNL     1       7.169   5.467  15.860  0.00  0.00    +0.000 A 
ATOM      4  C   UNL     1       6.480   4.326  15.455  0.00  0.00    +0.000 A 
ATOM      5  C   UNL     1       5.345   3.909  16.159  0.00  0.00    +0.000 A 
ATOM      6  C   UNL     1       4.880   4.634  17.269  0.00  0.00    +0.000 A 
ATOM      7  C   UNL     1       5.585   5.782  17.661  0.00  0.00    +0.000 A 
ENDROOT
BRANCH   6   8
ATOM      8  N   UNL     1       3.768   4.141  17.982  0.00  0.00    +0.000 NA
ATOM      9  N   UNL     1       3.311   4.995  18.767  0.00  0.00    +0.000 NA
BRANCH   9  10
ATOM     10  N   UNL     1       2.282   4.542  19.522  0.00  0.00    +0.000 N 
ATOM     11  C   UNL     1       2.218   4.563  20.968  0.00  0.00    +0.000 C 
ATOM     12  C   UNL     1       1.564   3.231  21.308  0.00  0.00    +0.000 C 
ATOM     13  C   UNL     1       0.621   2.988  20.133  0.00  0.00    +0.000 C 
ATOM     14  C   UNL     1       1.350   3.600  18.941  0.00  0.00    +0.000 C 
ENDBRANCH   9  10
ENDBRANCH   6   8
TORSDOF 2
ENDMDL
MODEL 4
REMARK VINA RESULT:      -5.9      0.774      1.259
REMARK  Name = 
REMARK  2 active torsions:
REMARK  status: ('A' for Active; 'I' for Inactive)
REMARK    1  A    between atoms: C_6  and  N_7
REMARK    2  A    between atoms: N_8  and  N_9
REMARK                            x       y       z     vdW  Elec       q    Type
REMARK                         _______ _______ _______ _____ _____    ______ ____
ROOT
ATOM      1 BR   UNL     1       6.439   4.016  13.463  0.00  0.00    +0.000 Br
ATOM      2  C   UNL     1       6.311   4.251  15.336  0.00  0.00    +0.000 A 
ATOM      3  C   UNL     1       7.396   4.757  16.047  0.00  0.00    +0.000 A 
ATOM      4  C   UNL     1       7.298   4.929  17.426  0.00  0.00    +0.000 A 
ATOM      5  C   UNL     1       6.108   4.605  18.087  0.00  0.00    +0.000 A 
ATOM      6  C   UNL     1       5.007   4.095  17.378  0.00  0.00    +0.000 A 
ATOM      7  C   UNL     1       5.126   3.925  15.990  0.00  0.00    +0.000 A 
ENDROOT
BRANCH   6   8
ATOM      8  N   UNL     1       3.810   3.838  18.079  0.00  0.00    +0.000 NA
ATOM      9  N   UNL     1       3.681   4.597  19.059  0.00  0.00    +0.000 NA
BRANCH   9  10
ATOM     10  N   UNL     1       2.576   4.342  19.800  0.00  0.00    +0.000 N 
ATOM     11  C   UNL     1       2.538   4.190  21.239  0.00  0.00    +0.000 C 
ATOM     12  C   UNL     1       1.551   3.049  21.443  0.00  0.00    +0.000 C 
ATOM     13  C   UNL     1       0.563   3.225  20.293  0.00  0.00    +0.000 C 
ATOM     14  C   UNL     1       1.416   3.770  19.152  0.00  0.00    +0.000 C 
ENDBRANCH   9  10
ENDBRANCH   6   8
TORSDOF 2
ENDMDL
MODEL 5
REMARK VINA RESULT:      -5.8      3.429      6.205
REMARK  Name = 
REMARK  2 active torsions:
REMARK  status: ('A' for Active; 'I' for Inactive)
REMARK    1  A    between atoms: C_6  and  N_7
REMARK    2  A    between atoms: N_8  and  N_9
REMARK                            x       y       z     vdW  Elec       q    Type
REMARK                         _______ _______ _______ _____ _____    ______ ____
ROOT
ATOM      1 BR   UNL     1       1.867   2.533  21.909  0.00  0.00    +0.000 Br
ATOM      2  C   UNL     1       2.099   3.095  20.117  0.00  0.00    +0.000 A 
ATOM      3  C   UNL     1       1.017   3.076  19.239  0.00  0.00    +0.000 A 
ATOM      4  C   UNL     1       1.192   3.490  17.921  0.00  0.00    +0.000 A 
ATOM      5  C   UNL     1       2.447   3.933  17.489  0.00  0.00    +0.000 A 
ATOM      6  C   UNL     1       3.543   3.956  18.366  0.00  0.00    +0.000 A 
ATOM      7  C   UNL     1       3.350   3.533  19.690  0.00  0.00    +0.000 A 
ENDROOT
BRANCH   6   8
ATOM      8  N   UNL     1       4.773   4.467  17.901  0.00  0.00    +0.000 NA
ATOM      9  N   UNL     1       5.229   5.336  18.669  0.00  0.00    +0.000 NA
BRANCH   9  10
ATOM     10  N   UNL     1       6.377   5.902  18.226  0.00  0.00    +0.000 N 
ATOM     11  C   UNL     1       7.656   5.861  18.902  0.00  0.00    +0.000 C 
ATOM     12  C   UNL     1       8.216   7.259  18.675  0.00  0.00    +0.000 C 
ATOM     13  C   UNL     1       7.668   7.641  17.303  0.00  0.00    +0.000 C 
ATOM     14  C   UNL     1       6.302   6.965  17.248  0.00  0.00    +0.000 C 
ENDBRANCH   9  10
ENDBRANCH   6   8
TORSDOF 2
ENDMDL
MODEL 6
REMARK VINA RESULT:      -5.7      3.281      6.523
REMARK  Name = 
REMARK  2 active torsions:
REMARK  status: ('A' for Active; 'I' for Inactive)
REMARK    1  A    between atoms: C_6  and  N_7
REMARK    2  A    between atoms: N_8  and  N_9
REMARK                            x       y       z     vdW  Elec       q    Type
REMARK                         _______ _______ _______ _____ _____    ______ ____
ROOT
ATOM      1 BR   UNL     1       1.013   2.628  18.907  0.00  0.00    +0.000 Br
ATOM      2  C   UNL     1       2.289   3.870  18.267  0.00  0.00    +0.000 A 
ATOM      3  C   UNL     1       2.275   5.182  18.735  0.00  0.00    +0.000 A 
ATOM      4  C   UNL     1       3.215   6.093  18.261  0.00  0.00    +0.000 A 
ATOM      5  C   UNL     1       4.175   5.685  17.329  0.00  0.00    +0.000 A 
ATOM      6  C   UNL     1       4.199   4.364  16.851  0.00  0.00    +0.000 A 
ATOM      7  C   UNL     1       3.242   3.460  17.338  0.00  0.00    +0.000 A 
ENDROOT
BRANCH   6   8
ATOM      8  N   UNL     1       5.221   3.984  15.958  0.00  0.00    +0.000 NA
ATOM      9  N   UNL     1       5.337   4.798  15.020  0.00  0.00    +0.000 NA
BRANCH   9  10
ATOM     10  N   UNL     1       6.265   4.437  14.101  0.00  0.00    +0.000 N 
ATOM     11  C   UNL     1       7.527   5.105  13.865  0.00  0.00    +0.000 C 
ATOM     12  C   UNL     1       7.663   5.067  12.349  0.00  0.00    +0.000 C 
ATOM     13  C   UNL     1       6.983   3.757  11.965  0.00  0.00    +0.000 C 
ATOM     14  C   UNL     1       5.860   3.609  12.987  0.00  0.00    +0.000 C 
ENDBRANCH   9  10
ENDBRANCH   6   8
TORSDOF 2
ENDMDL
MODEL 7
REMARK VINA RESULT:      -5.5      3.190      6.223
REMARK  Name = 
REMARK  2 active torsions:
REMARK  status: ('A' for Active; 'I' for Inactive)
REMARK    1  A    between atoms: C_6  and  N_7
REMARK    2  A    between atoms: N_8  and  N_9
REMARK                            x       y       z     vdW  Elec       q    Type
REMARK                         _______ _______ _______ _____ _____    ______ ____
ROOT
ATOM      1 BR   UNL     1       2.025   2.742  21.545  0.00  0.00    +0.000 Br
ATOM      2  C   UNL     1       2.472   4.224  20.457  0.00  0.00    +0.000 A 
ATOM      3  C   UNL     1       1.830   5.445  20.651  0.00  0.00    +0.000 A 
ATOM      4  C   UNL     1       2.162   6.533  19.848  0.00  0.00    +0.000 A 
ATOM      5  C   UNL     1       3.144   6.399  18.861  0.00  0.00    +0.000 A 
ATOM      6  C   UNL     1       3.798   5.172  18.658  0.00  0.00    +0.000 A 
ATOM      7  C   UNL     1       3.449   4.086  19.474  0.00  0.00    +0.000 A 
ENDROOT
BRANCH   6   8
ATOM      8  N   UNL     1       4.822   5.102  17.691  0.00  0.00    +0.000 NA
ATOM      9  N   UNL     1       4.590   4.222  16.840  0.00  0.00    +0.000 NA
BRANCH   9  10
ATOM     10  N   UNL     1       5.582   4.074  15.929  0.00  0.00    +0.000 N 
ATOM     11  C   UNL     1       6.963   4.467  16.110  0.00  0.00    +0.000 C 
ATOM     12  C   UNL     1       7.345   5.036  14.750  0.00  0.00    +0.000 C 
ATOM     13  C   UNL     1       6.520   4.204  13.773  0.00  0.00    +0.000 C 
ATOM     14  C   UNL     1       5.232   3.907  14.535  0.00  0.00    +0.000 C 
ENDBRANCH   9  10
ENDBRANCH   6   8
TORSDOF 2
ENDMDL
MODEL 8
REMARK VINA RESULT:      -5.5      4.963      6.129
REMARK  Name = 
REMARK  2 active torsions:
REMARK  status: ('A' for Active; 'I' for Inactive)
REMARK    1  A    between atoms: C_6  and  N_7
REMARK    2  A    between atoms: N_8  and  N_9
REMARK                            x       y       z     vdW  Elec       q    Type
REMARK                         _______ _______ _______ _____ _____    ______ ____
ROOT
ATOM      1 BR   UNL     1       0.167   9.945  21.831  0.00  0.00    +0.000 Br
ATOM      2  C   UNL     1       0.955   9.225  20.269  0.00  0.00    +0.000 A 
ATOM      3  C   UNL     1       0.835   9.901  19.057  0.00  0.00    +0.000 A 
ATOM      4  C   UNL     1       1.416   9.367  17.909  0.00  0.00    +0.000 A 
ATOM      5  C   UNL     1       2.126   8.164  17.981  0.00  0.00    +0.000 A 
ATOM      6  C   UNL     1       2.254   7.475  19.199  0.00  0.00    +0.000 A 
ATOM      7  C   UNL     1       1.659   8.026  20.344  0.00  0.00    +0.000 A 
ENDROOT
BRANCH   6   8
ATOM      8  N   UNL     1       3.029   6.298  19.233  0.00  0.00    +0.000 NA
ATOM      9  N   UNL     1       2.656   5.477  18.372  0.00  0.00    +0.000 NA
BRANCH   9  10
ATOM     10  N   UNL     1       3.331   4.303  18.413  0.00  0.00    +0.000 N 
ATOM     11  C   UNL     1       3.460   3.362  17.321  0.00  0.00    +0.000 C 
ATOM     12  C   UNL     1       3.338   2.010  18.010  0.00  0.00    +0.000 C 
ATOM     13  C   UNL     1       3.964   2.252  19.380  0.00  0.00    +0.000 C 
ATOM     14  C   UNL     1       3.609   3.701  19.698  0.00  0.00    +0.000 C 
ENDBRANCH   9  10
ENDBRANCH   6   8
TORSDOF 2
ENDMDL
MODEL 9
REMARK VINA RESULT:      -5.4      4.004      4.833
REMARK  Name = 
REMARK  2 active torsions:
REMARK  status: ('A' for Active; 'I' for Inactive)
REMARK    1  A    between atoms: C_6  and  N_7
REMARK    2  A    between atoms: N_8  and  N_9
REMARK                            x       y       z     vdW  Elec       q    Type
REMARK                         _______ _______ _______ _____ _____    ______ ____
ROOT
ATOM      1 BR   UNL     1       6.602   4.463  16.821  0.00  0.00    +0.000 Br
ATOM      2  C   UNL     1       4.771   4.647  17.263  0.00  0.00    +0.000 A 
ATOM      3  C   UNL     1       3.921   3.548  17.167  0.00  0.00    +0.000 A 
ATOM      4  C   UNL     1       2.575   3.686  17.494  0.00  0.00    +0.000 A 
ATOM      5  C   UNL     1       2.085   4.924  17.927  0.00  0.00    +0.000 A 
ATOM      6  C   UNL     1       2.935   6.038  18.028  0.00  0.00    +0.000 A 
ATOM      7  C   UNL     1       4.288   5.880  17.692  0.00  0.00    +0.000 A 
ENDROOT
BRANCH   6   8
ATOM      8  N   UNL     1       2.409   7.248  18.526  0.00  0.00    +0.000 NA
ATOM      9  N   UNL     1       2.209   7.190  19.755  0.00  0.00    +0.000 NA
BRANCH   9  10
ATOM     10  N   UNL     1       1.641   8.309  20.265  0.00  0.00    +0.000 N 
ATOM     11  C   UNL     1       1.095   8.450  21.599  0.00  0.00    +0.000 C 
ATOM     12  C   UNL     1      -0.157   9.286  21.376  0.00  0.00    +0.000 C 
ATOM     13  C   UNL     1       0.221  10.186  20.203  0.00  0.00    +0.000 C 
ATOM     14  C   UNL     1       1.147   9.320  19.356  0.00  0.00    +0.000 C 
ENDBRANCH   9  10
ENDBRANCH   6   8
TORSDOF 2
ENDMDL
