MODEL 1
REMARK VINA RESULT:      -7.6      0.000      0.000
REMARK  Name = 
REMARK  11 active torsions:
REMARK  status: ('A' for Active; 'I' for Inactive)
REMARK    1  A    between atoms: C_1  and  C_2
REMARK    2  A    between atoms: C_2  and  C_3
REMARK    3  A    between atoms: C_3  and  C_4
REMARK    4  A    between atoms: C_4  and  C_5
REMARK    5  A    between atoms: C_12  and  C_13
REMARK    6  A    between atoms: C_15  and  O_16
REMARK    7  A    between atoms: O_16  and  C_17
REMARK    8  A    between atoms: C_17  and  C_18
REMARK    9  A    between atoms: C_17  and  C_19
REMARK   10  A    between atoms: N_21  and  C_22
REMARK   11  A    between atoms: C_22  and  C_23
REMARK                            x       y       z     vdW  Elec       q    Type
REMARK                         _______ _______ _______ _____ _____    ______ ____
ROOT
ATOM      1  C   UNL     1      -1.467  11.541  20.358  0.00  0.00    +0.000 A 
ATOM      2  C   UNL     1      -2.306  12.386  20.984  0.00  0.00    +0.000 A 
ATOM      3  C   UNL     1      -3.532  12.925  20.398  0.00  0.00    +0.000 A 
ATOM      4  O   UNL     1      -4.223  13.732  21.008  0.00  0.00    +0.000 OA
ATOM      5  O   UNL     1      -3.853  12.468  19.141  0.00  0.00    +0.000 OA
ATOM      6  C   UNL     1      -3.019  11.561  18.451  0.00  0.00    +0.000 A 
ATOM      7  C   UNL     1      -3.499  11.202  17.191  0.00  0.00    +0.000 A 
ATOM      8  C   UNL     1      -2.771  10.317  16.410  0.00  0.00    +0.000 A 
ATOM      9  C   UNL     1      -3.259   9.911  15.050  0.00  0.00    +0.000 C 
ATOM     10  C   UNL     1      -1.559   9.818  16.907  0.00  0.00    +0.000 A 
ATOM     11  C   UNL     1      -1.062  10.189  18.175  0.00  0.00    +0.000 A 
ATOM     12  C   UNL     1      -1.814  11.074  18.989  0.00  0.00    +0.000 A 
ENDROOT
BRANCH   1  13
ATOM     13  C   UNL     1      -0.231  11.100  21.110  0.00  0.00    +0.000 C 
BRANCH  13  14
ATOM     14  C   UNL     1      -0.435  10.971  22.625  0.00  0.00    +0.000 C 
BRANCH  14  16
ATOM     15  C   UNL     1      -0.387   8.537  21.941  0.00  0.00    +0.000 C 
ATOM     16  C   UNL     1      -0.385   9.515  23.101  0.00  0.00    +0.000 C 
ENDBRANCH  14  16
ENDBRANCH  13  14
ENDBRANCH   1  13
BRANCH  11  17
ATOM     17  O   UNL     1       0.136   9.729  18.662  0.00  0.00    +0.000 OA
BRANCH  17  18
ATOM     18  C   UNL     1       1.328   9.785  17.871  0.00  0.00    +0.000 C 
ATOM     19  C   UNL     1       2.104  11.070  18.155  0.00  0.00    +0.000 C 
BRANCH  18  20
ATOM     20  C   UNL     1       2.233   8.580  18.196  0.00  0.00    +0.000 C 
ATOM     21  O   UNL     1       3.140   8.205  17.457  0.00  0.00    +0.000 OA
ATOM     22  N   UNL     1       1.880   7.883  19.334  0.00  0.00    +0.000 N 
ATOM     23  H   UNL     1       1.235   8.327  19.975  0.00  0.00    +0.000 HD
BRANCH  22  24
ATOM     24  C   UNL     1       2.656   6.760  19.816  0.00  0.00    +0.000 C 
BRANCH  24  25
ATOM     25  C   UNL     1       2.029   5.417  19.511  0.00  0.00    +0.000 A 
ATOM     26  C   UNL     1       1.408   4.688  20.526  0.00  0.00    +0.000 A 
ATOM     27  C   UNL     1       0.873   3.437  20.234  0.00  0.00    +0.000 A 
ATOM     28  C   UNL     1       0.966   2.945  18.939  0.00  0.00    +0.000 A 
ATOM     29  C   UNL     1       1.585   3.734  17.985  0.00  0.00    +0.000 A 
ATOM     30  N   UNL     1       2.108   4.958  18.235  0.00  0.00    +0.000 NA
ENDBRANCH  24  25
ENDBRANCH  22  24
ENDBRANCH  18  20
ENDBRANCH  17  18
ENDBRANCH  11  17
TORSDOF 8
ENDMDL
MODEL 2
REMARK VINA RESULT:      -7.2      0.973      1.251
REMARK  Name = 
REMARK  11 active torsions:
REMARK  status: ('A' for Active; 'I' for Inactive)
REMARK    1  A    between atoms: C_1  and  C_2
REMARK    2  A    between atoms: C_2  and  C_3
REMARK    3  A    between atoms: C_3  and  C_4
REMARK    4  A    between atoms: C_4  and  C_5
REMARK    5  A    between atoms: C_12  and  C_13
REMARK    6  A    between atoms: C_15  and  O_16
REMARK    7  A    between atoms: O_16  and  C_17
REMARK    8  A    between atoms: C_17  and  C_18
REMARK    9  A    between atoms: C_17  and  C_19
REMARK   10  A    between atoms: N_21  and  C_22
REMARK   11  A    between atoms: C_22  and  C_23
REMARK                            x       y       z     vdW  Elec       q    Type
REMARK                         _______ _______ _______ _____ _____    ______ ____
ROOT
ATOM      1  C   UNL     1      -1.822  11.900  20.515  0.00  0.00    +0.000 A 
ATOM      2  C   UNL     1      -2.750  12.732  21.021  0.00  0.00    +0.000 A 
ATOM      3  C   UNL     1      -3.971  13.135  20.326  0.00  0.00    +0.000 A 
ATOM      4  O   UNL     1      -4.748  13.938  20.828  0.00  0.00    +0.000 OA
ATOM      5  O   UNL     1      -4.185  12.559  19.095  0.00  0.00    +0.000 OA
ATOM      6  C   UNL     1      -3.254  11.661  18.530  0.00  0.00    +0.000 A 
ATOM      7  C   UNL     1      -3.632  11.170  17.280  0.00  0.00    +0.000 A 
ATOM      8  C   UNL     1      -2.802  10.278  16.617  0.00  0.00    +0.000 A 
ATOM      9  C   UNL     1      -3.180   9.733  15.270  0.00  0.00    +0.000 C 
ATOM     10  C   UNL     1      -1.593   9.906  17.219  0.00  0.00    +0.000 A 
ATOM     11  C   UNL     1      -1.199  10.411  18.478  0.00  0.00    +0.000 A 
ATOM     12  C   UNL     1      -2.054  11.303  19.173  0.00  0.00    +0.000 A 
ENDROOT
BRANCH   1  13
ATOM     13  C   UNL     1      -0.607  11.607  21.367  0.00  0.00    +0.000 C 
BRANCH  13  14
ATOM     14  C   UNL     1      -0.941  11.081  22.770  0.00  0.00    +0.000 C 
BRANCH  14  16
ATOM     15  C   UNL     1       0.677   9.297  23.541  0.00  0.00    +0.000 C 
ATOM     16  C   UNL     1      -0.675   9.578  22.911  0.00  0.00    +0.000 C 
ENDBRANCH  14  16
ENDBRANCH  13  14
ENDBRANCH   1  13
BRANCH  11  17
ATOM     17  O   UNL     1      -0.005  10.076  19.066  0.00  0.00    +0.000 OA
BRANCH  17  18
ATOM     18  C   UNL     1       1.055   9.484  18.308  0.00  0.00    +0.000 C 
ATOM     19  C   UNL     1       2.085  10.539  17.905  0.00  0.00    +0.000 C 
BRANCH  18  20
ATOM     20  C   UNL     1       1.762   8.400  19.146  0.00  0.00    +0.000 C 
ATOM     21  O   UNL     1       1.688   8.347  20.371  0.00  0.00    +0.000 OA
ATOM     22  N   UNL     1       2.575   7.550  18.425  0.00  0.00    +0.000 N 
ATOM     23  H   UNL     1       2.471   7.544  17.418  0.00  0.00    +0.000 HD
BRANCH  22  24
ATOM     24  C   UNL     1       3.268   6.441  19.045  0.00  0.00    +0.000 C 
BRANCH  24  25
ATOM     25  C   UNL     1       2.406   5.209  19.215  0.00  0.00    +0.000 A 
ATOM     26  C   UNL     1       2.076   4.428  18.107  0.00  0.00    +0.000 A 
ATOM     27  C   UNL     1       1.249   3.322  18.278  0.00  0.00    +0.000 A 
ATOM     28  C   UNL     1       0.775   3.018  19.548  0.00  0.00    +0.000 A 
ATOM     29  C   UNL     1       1.159   3.834  20.599  0.00  0.00    +0.000 A 
ATOM     30  N   UNL     1       1.968   4.912  20.466  0.00  0.00    +0.000 NA
ENDBRANCH  24  25
ENDBRANCH  22  24
ENDBRANCH  18  20
ENDBRANCH  17  18
ENDBRANCH  11  17
TORSDOF 8
ENDMDL
MODEL 3
REMARK VINA RESULT:      -7.0      1.978      2.380
REMARK  Name = 
REMARK  11 active torsions:
REMARK  status: ('A' for Active; 'I' for Inactive)
REMARK    1  A    between atoms: C_1  and  C_2
REMARK    2  A    between atoms: C_2  and  C_3
REMARK    3  A    between atoms: C_3  and  C_4
REMARK    4  A    between atoms: C_4  and  C_5
REMARK    5  A    between atoms: C_12  and  C_13
REMARK    6  A    between atoms: C_15  and  O_16
REMARK    7  A    between atoms: O_16  and  C_17
REMARK    8  A    between atoms: C_17  and  C_18
REMARK    9  A    between atoms: C_17  and  C_19
REMARK   10  A    between atoms: N_21  and  C_22
REMARK   11  A    between atoms: C_22  and  C_23
REMARK                            x       y       z     vdW  Elec       q    Type
REMARK                         _______ _______ _______ _____ _____    ______ ____
ROOT
ATOM      1  C   UNL     1      -1.689  11.855  20.569  0.00  0.00    +0.000 A 
ATOM      2  C   UNL     1      -2.624  12.657  21.109  0.00  0.00    +0.000 A 
ATOM      3  C   UNL     1      -3.860  13.060  20.439  0.00  0.00    +0.000 A 
ATOM      4  O   UNL     1      -4.643  13.836  20.973  0.00  0.00    +0.000 OA
ATOM      5  O   UNL     1      -4.079  12.515  19.195  0.00  0.00    +0.000 OA
ATOM      6  C   UNL     1      -3.141  11.648  18.595  0.00  0.00    +0.000 A 
ATOM      7  C   UNL     1      -3.526  11.187  17.335  0.00  0.00    +0.000 A 
ATOM      8  C   UNL     1      -2.690  10.327  16.638  0.00  0.00    +0.000 A 
ATOM      9  C   UNL     1      -3.075   9.814  15.281  0.00  0.00    +0.000 C 
ATOM     10  C   UNL     1      -1.468   9.958  17.216  0.00  0.00    +0.000 A 
ATOM     11  C   UNL     1      -1.067  10.433  18.483  0.00  0.00    +0.000 A 
ATOM     12  C   UNL     1      -1.928  11.292  19.213  0.00  0.00    +0.000 A 
ENDROOT
BRANCH   1  13
ATOM     13  C   UNL     1      -0.460  11.558  21.398  0.00  0.00    +0.000 C 
BRANCH  13  14
ATOM     14  C   UNL     1      -0.770  11.033  22.807  0.00  0.00    +0.000 C 
BRANCH  14  16
ATOM     15  C   UNL     1      -0.591   8.582  22.212  0.00  0.00    +0.000 C 
ATOM     16  C   UNL     1      -0.076   9.698  23.101  0.00  0.00    +0.000 C 
ENDBRANCH  14  16
ENDBRANCH  13  14
ENDBRANCH   1  13
BRANCH  11  17
ATOM     17  O   UNL     1       0.139  10.101  19.049  0.00  0.00    +0.000 OA
BRANCH  17  18
ATOM     18  C   UNL     1       1.226   9.624  18.249  0.00  0.00    +0.000 C 
ATOM     19  C   UNL     1       2.281  10.714  18.066  0.00  0.00    +0.000 C 
BRANCH  18  20
ATOM     20  C   UNL     1       1.887   8.408  18.929  0.00  0.00    +0.000 C 
ATOM     21  O   UNL     1       1.790   8.180  20.132  0.00  0.00    +0.000 OA
ATOM     22  N   UNL     1       2.688   7.647  18.102  0.00  0.00    +0.000 N 
ATOM     23  H   UNL     1       2.601   7.791  17.104  0.00  0.00    +0.000 HD
BRANCH  22  24
ATOM     24  C   UNL     1       3.338   6.439  18.563  0.00  0.00    +0.000 C 
BRANCH  24  25
ATOM     25  C   UNL     1       4.308   5.854  17.560  0.00  0.00    +0.000 A 
ATOM     26  C   UNL     1       4.062   4.602  16.996  0.00  0.00    +0.000 A 
ATOM     27  C   UNL     1       4.987   4.063  16.107  0.00  0.00    +0.000 A 
ATOM     28  C   UNL     1       6.131   4.786  15.798  0.00  0.00    +0.000 A 
ATOM     29  C   UNL     1       6.297   6.028  16.388  0.00  0.00    +0.000 A 
ATOM     30  N   UNL     1       5.412   6.582  17.250  0.00  0.00    +0.000 NA
ENDBRANCH  24  25
ENDBRANCH  22  24
ENDBRANCH  18  20
ENDBRANCH  17  18
ENDBRANCH  11  17
TORSDOF 8
ENDMDL
MODEL 4
REMARK VINA RESULT:      -6.8      3.180      8.620
REMARK  Name = 
REMARK  11 active torsions:
REMARK  status: ('A' for Active; 'I' for Inactive)
REMARK    1  A    between atoms: C_1  and  C_2
REMARK    2  A    between atoms: C_2  and  C_3
REMARK    3  A    between atoms: C_3  and  C_4
REMARK    4  A    between atoms: C_4  and  C_5
REMARK    5  A    between atoms: C_12  and  C_13
REMARK    6  A    between atoms: C_15  and  O_16
REMARK    7  A    between atoms: O_16  and  C_17
REMARK    8  A    between atoms: C_17  and  C_18
REMARK    9  A    between atoms: C_17  and  C_19
REMARK   10  A    between atoms: N_21  and  C_22
REMARK   11  A    between atoms: C_22  and  C_23
REMARK                            x       y       z     vdW  Elec       q    Type
REMARK                         _______ _______ _______ _____ _____    ______ ____
ROOT
ATOM      1  C   UNL     1       4.935   5.926  17.067  0.00  0.00    +0.000 A 
ATOM      2  C   UNL     1       5.758   5.386  16.151  0.00  0.00    +0.000 A 
ATOM      3  C   UNL     1       5.666   4.012  15.659  0.00  0.00    +0.000 A 
ATOM      4  O   UNL     1       6.484   3.571  14.860  0.00  0.00    +0.000 OA
ATOM      5  O   UNL     1       4.618   3.266  16.143  0.00  0.00    +0.000 OA
ATOM      6  C   UNL     1       3.711   3.793  17.088  0.00  0.00    +0.000 A 
ATOM      7  C   UNL     1       2.708   2.901  17.466  0.00  0.00    +0.000 A 
ATOM      8  C   UNL     1       1.753   3.297  18.390  0.00  0.00    +0.000 A 
ATOM      9  C   UNL     1       0.661   2.360  18.818  0.00  0.00    +0.000 C 
ATOM     10  C   UNL     1       1.834   4.587  18.932  0.00  0.00    +0.000 A 
ATOM     11  C   UNL     1       2.855   5.490  18.564  0.00  0.00    +0.000 A 
ATOM     12  C   UNL     1       3.820   5.100  17.601  0.00  0.00    +0.000 A 
ENDROOT
BRANCH   1  13
ATOM     13  C   UNL     1       5.190   7.360  17.476  0.00  0.00    +0.000 C 
BRANCH  13  14
ATOM     14  C   UNL     1       6.512   7.934  16.949  0.00  0.00    +0.000 C 
BRANCH  14  16
ATOM     15  C   UNL     1       8.400   9.031  18.225  0.00  0.00    +0.000 C 
ATOM     16  C   UNL     1       7.671   7.733  17.932  0.00  0.00    +0.000 C 
ENDBRANCH  14  16
ENDBRANCH  13  14
ENDBRANCH   1  13
BRANCH  11  17
ATOM     17  O   UNL     1       2.962   6.746  19.107  0.00  0.00    +0.000 OA
BRANCH  17  18
ATOM     18  C   UNL     1       1.814   7.431  19.620  0.00  0.00    +0.000 C 
ATOM     19  C   UNL     1       2.043   7.856  21.070  0.00  0.00    +0.000 C 
BRANCH  18  20
ATOM     20  C   UNL     1       1.532   8.690  18.776  0.00  0.00    +0.000 C 
ATOM     21  O   UNL     1       2.082   8.912  17.700  0.00  0.00    +0.000 OA
ATOM     22  N   UNL     1       0.689   9.608  19.371  0.00  0.00    +0.000 N 
ATOM     23  H   UNL     1       0.152   9.301  20.172  0.00  0.00    +0.000 HD
BRANCH  22  24
ATOM     24  C   UNL     1       0.273  10.818  18.694  0.00  0.00    +0.000 C 
BRANCH  24  25
ATOM     25  C   UNL     1      -1.177  10.802  18.264  0.00  0.00    +0.000 A 
ATOM     26  C   UNL     1      -1.594   9.954  17.238  0.00  0.00    +0.000 A 
ATOM     27  C   UNL     1      -2.924   9.984  16.830  0.00  0.00    +0.000 A 
ATOM     28  C   UNL     1      -3.807  10.854  17.456  0.00  0.00    +0.000 A 
ATOM     29  C   UNL     1      -3.320  11.654  18.476  0.00  0.00    +0.000 A 
ATOM     30  N   UNL     1      -2.034  11.642  18.901  0.00  0.00    +0.000 NA
ENDBRANCH  24  25
ENDBRANCH  22  24
ENDBRANCH  18  20
ENDBRANCH  17  18
ENDBRANCH  11  17
TORSDOF 8
ENDMDL
MODEL 5
REMARK VINA RESULT:      -6.8      2.104      3.012
REMARK  Name = 
REMARK  11 active torsions:
REMARK  status: ('A' for Active; 'I' for Inactive)
REMARK    1  A    between atoms: C_1  and  C_2
REMARK    2  A    between atoms: C_2  and  C_3
REMARK    3  A    between atoms: C_3  and  C_4
REMARK    4  A    between atoms: C_4  and  C_5
REMARK    5  A    between atoms: C_12  and  C_13
REMARK    6  A    between atoms: C_15  and  O_16
REMARK    7  A    between atoms: O_16  and  C_17
REMARK    8  A    between atoms: C_17  and  C_18
REMARK    9  A    between atoms: C_17  and  C_19
REMARK   10  A    between atoms: N_21  and  C_22
REMARK   11  A    between atoms: C_22  and  C_23
REMARK                            x       y       z     vdW  Elec       q    Type
REMARK                         _______ _______ _______ _____ _____    ______ ____
ROOT
ATOM      1  C   UNL     1      -4.141  12.595  20.010  0.00  0.00    +0.000 A 
ATOM      2  C   UNL     1      -5.410  13.037  20.067  0.00  0.00    +0.000 A 
ATOM      3  C   UNL     1      -6.374  12.940  18.972  0.00  0.00    +0.000 A 
ATOM      4  O   UNL     1      -7.499  13.411  19.077  0.00  0.00    +0.000 OA
ATOM      5  O   UNL     1      -5.939  12.291  17.839  0.00  0.00    +0.000 OA
ATOM      6  C   UNL     1      -4.624  11.786  17.738  0.00  0.00    +0.000 A 
ATOM      7  C   UNL     1      -4.355  11.156  16.523  0.00  0.00    +0.000 A 
ATOM      8  C   UNL     1      -3.097  10.617  16.297  0.00  0.00    +0.000 A 
ATOM      9  C   UNL     1      -2.776   9.932  15.000  0.00  0.00    +0.000 C 
ATOM     10  C   UNL     1      -2.123  10.736  17.297  0.00  0.00    +0.000 A 
ATOM     11  C   UNL     1      -2.385  11.386  18.522  0.00  0.00    +0.000 A 
ATOM     12  C   UNL     1      -3.676  11.917  18.770  0.00  0.00    +0.000 A 
ENDROOT
BRANCH   1  13
ATOM     13  C   UNL     1      -3.275  12.797  21.233  0.00  0.00    +0.000 C 
BRANCH  13  14
ATOM     14  C   UNL     1      -4.064  13.118  22.510  0.00  0.00    +0.000 C 
BRANCH  14  16
ATOM     15  C   UNL     1      -4.537  12.378  24.881  0.00  0.00    +0.000 C 
ATOM     16  C   UNL     1      -3.556  12.334  23.725  0.00  0.00    +0.000 C 
ENDBRANCH  14  16
ENDBRANCH  13  14
ENDBRANCH   1  13
BRANCH  11  17
ATOM     17  O   UNL     1      -1.431  11.534  19.499  0.00  0.00    +0.000 OA
BRANCH  17  18
ATOM     18  C   UNL     1      -0.035  11.485  19.184  0.00  0.00    +0.000 C 
ATOM     19  C   UNL     1       0.570  12.888  19.198  0.00  0.00    +0.000 C 
BRANCH  18  20
ATOM     20  C   UNL     1       0.708  10.617  20.220  0.00  0.00    +0.000 C 
ATOM     21  O   UNL     1       1.140  11.063  21.280  0.00  0.00    +0.000 OA
ATOM     22  N   UNL     1       0.946   9.318  19.821  0.00  0.00    +0.000 N 
ATOM     23  H   UNL     1       0.435   8.973  19.019  0.00  0.00    +0.000 HD
BRANCH  22  24
ATOM     24  C   UNL     1       1.581   8.353  20.692  0.00  0.00    +0.000 C 
BRANCH  24  25
ATOM     25  C   UNL     1       1.965   7.067  19.992  0.00  0.00    +0.000 A 
ATOM     26  C   UNL     1       2.540   7.107  18.721  0.00  0.00    +0.000 A 
ATOM     27  C   UNL     1       2.849   5.912  18.078  0.00  0.00    +0.000 A 
ATOM     28  C   UNL     1       2.582   4.709  18.716  0.00  0.00    +0.000 A 
ATOM     29  C   UNL     1       2.023   4.753  19.982  0.00  0.00    +0.000 A 
ATOM     30  N   UNL     1       1.718   5.898  20.638  0.00  0.00    +0.000 NA
ENDBRANCH  24  25
ENDBRANCH  22  24
ENDBRANCH  18  20
ENDBRANCH  17  18
ENDBRANCH  11  17
TORSDOF 8
ENDMDL
MODEL 6
REMARK VINA RESULT:      -6.7      1.409      4.050
REMARK  Name = 
REMARK  11 active torsions:
REMARK  status: ('A' for Active; 'I' for Inactive)
REMARK    1  A    between atoms: C_1  and  C_2
REMARK    2  A    between atoms: C_2  and  C_3
REMARK    3  A    between atoms: C_3  and  C_4
REMARK    4  A    between atoms: C_4  and  C_5
REMARK    5  A    between atoms: C_12  and  C_13
REMARK    6  A    between atoms: C_15  and  O_16
REMARK    7  A    between atoms: O_16  and  C_17
REMARK    8  A    between atoms: C_17  and  C_18
REMARK    9  A    between atoms: C_17  and  C_19
REMARK   10  A    between atoms: N_21  and  C_22
REMARK   11  A    between atoms: C_22  and  C_23
REMARK                            x       y       z     vdW  Elec       q    Type
REMARK                         _______ _______ _______ _____ _____    ______ ____
ROOT
ATOM      1  C   UNL     1      -3.058  11.236  18.654  0.00  0.00    +0.000 A 
ATOM      2  C   UNL     1      -4.366  11.522  18.520  0.00  0.00    +0.000 A 
ATOM      3  C   UNL     1      -5.082  12.526  19.305  0.00  0.00    +0.000 A 
ATOM      4  O   UNL     1      -6.287  12.697  19.164  0.00  0.00    +0.000 OA
ATOM      5  O   UNL     1      -4.323  13.254  20.192  0.00  0.00    +0.000 OA
ATOM      6  C   UNL     1      -2.942  13.011  20.352  0.00  0.00    +0.000 A 
ATOM      7  C   UNL     1      -2.329  13.843  21.290  0.00  0.00    +0.000 A 
ATOM      8  C   UNL     1      -0.972  13.705  21.542  0.00  0.00    +0.000 A 
ATOM      9  C   UNL     1      -0.283  14.584  22.545  0.00  0.00    +0.000 C 
ATOM     10  C   UNL     1      -0.255  12.716  20.854  0.00  0.00    +0.000 A 
ATOM     11  C   UNL     1      -0.873  11.862  19.915  0.00  0.00    +0.000 A 
ATOM     12  C   UNL     1      -2.255  12.015  19.634  0.00  0.00    +0.000 A 
ENDROOT
BRANCH   1  13
ATOM     13  C   UNL     1      -2.486  10.150  17.771  0.00  0.00    +0.000 C 
BRANCH  13  14
ATOM     14  C   UNL     1      -2.270  10.580  16.313  0.00  0.00    +0.000 C 
BRANCH  14  16
ATOM     15  C   UNL     1      -2.980   9.903  13.983  0.00  0.00    +0.000 C 
ATOM     16  C   UNL     1      -3.436  10.176  15.404  0.00  0.00    +0.000 C 
ENDBRANCH  14  16
ENDBRANCH  13  14
ENDBRANCH   1  13
BRANCH  11  17
ATOM     17  O   UNL     1      -0.189  10.872  19.255  0.00  0.00    +0.000 OA
BRANCH  17  18
ATOM     18  C   UNL     1       0.817  10.098  19.917  0.00  0.00    +0.000 C 
ATOM     19  C   UNL     1       0.221   9.340  21.102  0.00  0.00    +0.000 C 
BRANCH  18  20
ATOM     20  C   UNL     1       1.429   9.078  18.936  0.00  0.00    +0.000 C 
ATOM     21  O   UNL     1       1.337   9.185  17.716  0.00  0.00    +0.000 OA
ATOM     22  N   UNL     1       2.001   7.973  19.533  0.00  0.00    +0.000 N 
ATOM     23  H   UNL     1       2.184   8.020  20.527  0.00  0.00    +0.000 HD
BRANCH  22  24
ATOM     24  C   UNL     1       2.671   6.947  18.763  0.00  0.00    +0.000 C 
BRANCH  24  25
ATOM     25  C   UNL     1       2.133   5.555  19.015  0.00  0.00    +0.000 A 
ATOM     26  C   UNL     1       1.940   4.676  17.949  0.00  0.00    +0.000 A 
ATOM     27  C   UNL     1       1.405   3.415  18.197  0.00  0.00    +0.000 A 
ATOM     28  C   UNL     1       1.081   3.059  19.499  0.00  0.00    +0.000 A 
ATOM     29  C   UNL     1       1.315   3.982  20.504  0.00  0.00    +0.000 A 
ATOM     30  N   UNL     1       1.840   5.213  20.297  0.00  0.00    +0.000 NA
ENDBRANCH  24  25
ENDBRANCH  22  24
ENDBRANCH  18  20
ENDBRANCH  17  18
ENDBRANCH  11  17
TORSDOF 8
ENDMDL
MODEL 7
REMARK VINA RESULT:      -6.7      0.954      1.581
REMARK  Name = 
REMARK  11 active torsions:
REMARK  status: ('A' for Active; 'I' for Inactive)
REMARK    1  A    between atoms: C_1  and  C_2
REMARK    2  A    between atoms: C_2  and  C_3
REMARK    3  A    between atoms: C_3  and  C_4
REMARK    4  A    between atoms: C_4  and  C_5
REMARK    5  A    between atoms: C_12  and  C_13
REMARK    6  A    between atoms: C_15  and  O_16
REMARK    7  A    between atoms: O_16  and  C_17
REMARK    8  A    between atoms: C_17  and  C_18
REMARK    9  A    between atoms: C_17  and  C_19
REMARK   10  A    between atoms: N_21  and  C_22
REMARK   11  A    between atoms: C_22  and  C_23
REMARK                            x       y       z     vdW  Elec       q    Type
REMARK                         _______ _______ _______ _____ _____    ______ ____
ROOT
ATOM      1  C   UNL     1      -1.237  11.573  20.433  0.00  0.00    +0.000 A 
ATOM      2  C   UNL     1      -2.081  12.393  21.085  0.00  0.00    +0.000 A 
ATOM      3  C   UNL     1      -3.358  12.866  20.552  0.00  0.00    +0.000 A 
ATOM      4  O   UNL     1      -4.052  13.655  21.181  0.00  0.00    +0.000 OA
ATOM      5  O   UNL     1      -3.720  12.370  19.321  0.00  0.00    +0.000 OA
ATOM      6  C   UNL     1      -2.882  11.486  18.607  0.00  0.00    +0.000 A 
ATOM      7  C   UNL     1      -3.407  11.080  17.380  0.00  0.00    +0.000 A 
ATOM      8  C   UNL     1      -2.681  10.211  16.579  0.00  0.00    +0.000 A 
ATOM      9  C   UNL     1      -3.218   9.757  15.253  0.00  0.00    +0.000 C 
ATOM     10  C   UNL     1      -1.425   9.776  17.023  0.00  0.00    +0.000 A 
ATOM     11  C   UNL     1      -0.882  10.194  18.258  0.00  0.00    +0.000 A 
ATOM     12  C   UNL     1      -1.631  11.063  19.092  0.00  0.00    +0.000 A 
ENDROOT
BRANCH   1  13
ATOM     13  C   UNL     1       0.053  11.201  21.129  0.00  0.00    +0.000 C 
BRANCH  13  14
ATOM     14  C   UNL     1       0.957  12.400  21.448  0.00  0.00    +0.000 C 
BRANCH  14  16
ATOM     15  C   UNL     1       0.997  14.522  20.075  0.00  0.00    +0.000 C 
ATOM     16  C   UNL     1       1.484  13.090  20.185  0.00  0.00    +0.000 C 
ENDBRANCH  14  16
ENDBRANCH  13  14
ENDBRANCH   1  13
BRANCH  11  17
ATOM     17  O   UNL     1       0.358   9.797  18.692  0.00  0.00    +0.000 OA
BRANCH  17  18
ATOM     18  C   UNL     1       1.466   9.711  17.790  0.00  0.00    +0.000 C 
ATOM     19  C   UNL     1       2.317  10.979  17.858  0.00  0.00    +0.000 C 
BRANCH  18  20
ATOM     20  C   UNL     1       2.352   8.503  18.157  0.00  0.00    +0.000 C 
ATOM     21  O   UNL     1       3.298   8.133  17.467  0.00  0.00    +0.000 OA
ATOM     22  N   UNL     1       1.936   7.799  19.268  0.00  0.00    +0.000 N 
ATOM     23  H   UNL     1       1.256   8.239  19.875  0.00  0.00    +0.000 HD
BRANCH  22  24
ATOM     24  C   UNL     1       2.683   6.672  19.785  0.00  0.00    +0.000 C 
BRANCH  24  25
ATOM     25  C   UNL     1       2.020   5.337  19.525  0.00  0.00    +0.000 A 
ATOM     26  C   UNL     1       1.475   4.608  20.583  0.00  0.00    +0.000 A 
ATOM     27  C   UNL     1       0.907   3.364  20.329  0.00  0.00    +0.000 A 
ATOM     28  C   UNL     1       0.891   2.878  19.029  0.00  0.00    +0.000 A 
ATOM     29  C   UNL     1       1.439   3.666  18.031  0.00  0.00    +0.000 A 
ATOM     30  N   UNL     1       1.993   4.884  18.245  0.00  0.00    +0.000 NA
ENDBRANCH  24  25
ENDBRANCH  22  24
ENDBRANCH  18  20
ENDBRANCH  17  18
ENDBRANCH  11  17
TORSDOF 8
ENDMDL
MODEL 8
REMARK VINA RESULT:      -6.6      3.653      8.806
REMARK  Name = 
REMARK  11 active torsions:
REMARK  status: ('A' for Active; 'I' for Inactive)
REMARK    1  A    between atoms: C_1  and  C_2
REMARK    2  A    between atoms: C_2  and  C_3
REMARK    3  A    between atoms: C_3  and  C_4
REMARK    4  A    between atoms: C_4  and  C_5
REMARK    5  A    between atoms: C_12  and  C_13
REMARK    6  A    between atoms: C_15  and  O_16
REMARK    7  A    between atoms: O_16  and  C_17
REMARK    8  A    between atoms: C_17  and  C_18
REMARK    9  A    between atoms: C_17  and  C_19
REMARK   10  A    between atoms: N_21  and  C_22
REMARK   11  A    between atoms: C_22  and  C_23
REMARK                            x       y       z     vdW  Elec       q    Type
REMARK                         _______ _______ _______ _____ _____    ______ ____
ROOT
ATOM      1  C   UNL     1       5.253   5.823  16.968  0.00  0.00    +0.000 A 
ATOM      2  C   UNL     1       5.935   5.333  15.917  0.00  0.00    +0.000 A 
ATOM      3  C   UNL     1       5.654   4.053  15.269  0.00  0.00    +0.000 A 
ATOM      4  O   UNL     1       6.351   3.646  14.347  0.00  0.00    +0.000 OA
ATOM      5  O   UNL     1       4.574   3.353  15.754  0.00  0.00    +0.000 OA
ATOM      6  C   UNL     1       3.810   3.836  16.839  0.00  0.00    +0.000 A 
ATOM      7  C   UNL     1       2.751   3.002  17.197  0.00  0.00    +0.000 A 
ATOM      8  C   UNL     1       1.923   3.362  18.250  0.00  0.00    +0.000 A 
ATOM      9  C   UNL     1       0.775   2.486  18.660  0.00  0.00    +0.000 C 
ATOM     10  C   UNL     1       2.188   4.554  18.938  0.00  0.00    +0.000 A 
ATOM     11  C   UNL     1       3.267   5.394  18.590  0.00  0.00    +0.000 A 
ATOM     12  C   UNL     1       4.102   5.045  17.498  0.00  0.00    +0.000 A 
ENDROOT
BRANCH   1  13
ATOM     13  C   UNL     1       5.694   7.158  17.526  0.00  0.00    +0.000 C 
BRANCH  13  14
ATOM     14  C   UNL     1       7.177   7.475  17.288  0.00  0.00    +0.000 C 
BRANCH  14  16
ATOM     15  C   UNL     1       7.865   5.856  19.104  0.00  0.00    +0.000 C 
ATOM     16  C   UNL     1       8.032   7.255  18.541  0.00  0.00    +0.000 C 
ENDBRANCH  14  16
ENDBRANCH  13  14
ENDBRANCH   1  13
BRANCH  11  17
ATOM     17  O   UNL     1       3.554   6.550  19.273  0.00  0.00    +0.000 OA
BRANCH  17  18
ATOM     18  C   UNL     1       2.726   7.711  19.145  0.00  0.00    +0.000 C 
ATOM     19  C   UNL     1       1.978   7.696  17.813  0.00  0.00    +0.000 C 
BRANCH  18  20
ATOM     20  C   UNL     1       1.693   7.750  20.290  0.00  0.00    +0.000 C 
ATOM     21  O   UNL     1       1.500   6.804  21.049  0.00  0.00    +0.000 OA
ATOM     22  N   UNL     1       0.923   8.894  20.334  0.00  0.00    +0.000 N 
ATOM     23  H   UNL     1       1.233   9.689  19.791  0.00  0.00    +0.000 HD
BRANCH  22  24
ATOM     24  C   UNL     1      -0.055   9.120  21.377  0.00  0.00    +0.000 C 
BRANCH  24  25
ATOM     25  C   UNL     1      -0.359  10.583  21.614  0.00  0.00    +0.000 A 
ATOM     26  C   UNL     1      -0.929  10.993  22.820  0.00  0.00    +0.000 A 
ATOM     27  C   UNL     1      -1.239  12.337  23.002  0.00  0.00    +0.000 A 
ATOM     28  C   UNL     1      -0.969  13.240  21.982  0.00  0.00    +0.000 A 
ATOM     29  C   UNL     1      -0.390  12.758  20.821  0.00  0.00    +0.000 A 
ATOM     30  N   UNL     1      -0.070  11.458  20.616  0.00  0.00    +0.000 NA
ENDBRANCH  24  25
ENDBRANCH  22  24
ENDBRANCH  18  20
ENDBRANCH  17  18
ENDBRANCH  11  17
TORSDOF 8
ENDMDL
MODEL 9
REMARK VINA RESULT:      -6.6      2.953      8.571
REMARK  Name = 
REMARK  11 active torsions:
REMARK  status: ('A' for Active; 'I' for Inactive)
REMARK    1  A    between atoms: C_1  and  C_2
REMARK    2  A    between atoms: C_2  and  C_3
REMARK    3  A    between atoms: C_3  and  C_4
REMARK    4  A    between atoms: C_4  and  C_5
REMARK    5  A    between atoms: C_12  and  C_13
REMARK    6  A    between atoms: C_15  and  O_16
REMARK    7  A    between atoms: O_16  and  C_17
REMARK    8  A    between atoms: C_17  and  C_18
REMARK    9  A    between atoms: C_17  and  C_19
REMARK   10  A    between atoms: N_21  and  C_22
REMARK   11  A    between atoms: C_22  and  C_23
REMARK                            x       y       z     vdW  Elec       q    Type
REMARK                         _______ _______ _______ _____ _____    ______ ____
ROOT
ATOM      1  C   UNL     1       4.178   5.709  17.599  0.00  0.00    +0.000 A 
ATOM      2  C   UNL     1       4.820   4.941  16.701  0.00  0.00    +0.000 A 
ATOM      3  C   UNL     1       4.858   3.480  16.733  0.00  0.00    +0.000 A 
ATOM      4  O   UNL     1       5.506   2.846  15.909  0.00  0.00    +0.000 OA
ATOM      5  O   UNL     1       4.126   2.878  17.730  0.00  0.00    +0.000 OA
ATOM      6  C   UNL     1       3.414   3.638  18.683  0.00  0.00    +0.000 A 
ATOM      7  C   UNL     1       2.726   2.865  19.619  0.00  0.00    +0.000 A 
ATOM      8  C   UNL     1       1.987   3.492  20.612  0.00  0.00    +0.000 A 
ATOM      9  C   UNL     1       1.235   2.689  21.633  0.00  0.00    +0.000 C 
ATOM     10  C   UNL     1       1.967   4.893  20.655  0.00  0.00    +0.000 A 
ATOM     11  C   UNL     1       2.674   5.679  19.720  0.00  0.00    +0.000 A 
ATOM     12  C   UNL     1       3.411   5.045  18.687  0.00  0.00    +0.000 A 
ENDROOT
BRANCH   1  13
ATOM     13  C   UNL     1       4.262   7.208  17.424  0.00  0.00    +0.000 C 
BRANCH  13  14
ATOM     14  C   UNL     1       5.565   7.688  16.770  0.00  0.00    +0.000 C 
BRANCH  14  16
ATOM     15  C   UNL     1       7.832   8.363  17.665  0.00  0.00    +0.000 C 
ATOM     16  C   UNL     1       6.809   7.249  17.550  0.00  0.00    +0.000 C 
ENDBRANCH  14  16
ENDBRANCH  13  14
ENDBRANCH   1  13
BRANCH  11  17
ATOM     17  O   UNL     1       2.686   7.051  19.767  0.00  0.00    +0.000 OA
BRANCH  17  18
ATOM     18  C   UNL     1       1.527   7.789  20.170  0.00  0.00    +0.000 C 
ATOM     19  C   UNL     1       1.710   8.356  21.577  0.00  0.00    +0.000 C 
BRANCH  18  20
ATOM     20  C   UNL     1       1.281   8.957  19.195  0.00  0.00    +0.000 C 
ATOM     21  O   UNL     1       1.934   9.120  18.167  0.00  0.00    +0.000 OA
ATOM     22  N   UNL     1       0.338   9.873  19.617  0.00  0.00    +0.000 N 
ATOM     23  H   UNL     1      -0.268   9.604  20.381  0.00  0.00    +0.000 HD
BRANCH  22  24
ATOM     24  C   UNL     1      -0.055  11.000  18.798  0.00  0.00    +0.000 C 
BRANCH  24  25
ATOM     25  C   UNL     1      -1.456  10.880  18.239  0.00  0.00    +0.000 A 
ATOM     26  C   UNL     1      -1.731   9.957  17.229  0.00  0.00    +0.000 A 
ATOM     27  C   UNL     1      -3.016   9.891  16.700  0.00  0.00    +0.000 A 
ATOM     28  C   UNL     1      -3.997  10.742  17.192  0.00  0.00    +0.000 A 
ATOM     29  C   UNL     1      -3.650  11.621  18.203  0.00  0.00    +0.000 A 
ATOM     30  N   UNL     1      -2.411  11.704  18.744  0.00  0.00    +0.000 NA
ENDBRANCH  24  25
ENDBRANCH  22  24
ENDBRANCH  18  20
ENDBRANCH  17  18
ENDBRANCH  11  17
TORSDOF 8
ENDMDL
