MODEL 1
REMARK VINA RESULT:      -9.3      0.000      0.000
REMARK  Name = 
REMARK  6 active torsions:
REMARK  status: ('A' for Active; 'I' for Inactive)
REMARK    1  A    between atoms: C_1  and  C_2
REMARK    2  A    between atoms: C_5  and  C_6
REMARK    3  A    between atoms: C_14  and  C_15
REMARK    4  A    between atoms: C_20  and  C_21
REMARK    5  A    between atoms: C_21  and  C_22
REMARK    6  A    between atoms: C_33  and  C_34
REMARK                            x       y       z     vdW  Elec       q    Type
REMARK                         _______ _______ _______ _____ _____    ______ ____
ROOT
ATOM      1  C   UNL     1      -0.720  11.243  22.721  0.00  0.00    +0.000 C 
ATOM      2  O   UNL     1      -0.795  10.220  23.404  0.00  0.00    +0.000 OA
ATOM      3  N   UNL     1       0.146  11.355  21.631  0.00  0.00    +0.000 N 
ATOM      4  C   UNL     1       0.304  12.522  20.725  0.00  0.00    +0.000 C 
ATOM      5  C   UNL     1       0.100  12.197  19.232  0.00  0.00    +0.000 C 
ATOM      6  C   UNL     1       0.600  10.841  18.956  0.00  0.00    +0.000 A 
ATOM      7  N   UNL     1       0.670  10.238  17.749  0.00  0.00    +0.000 N 
ATOM      8  N   UNL     1       1.078   8.968  17.831  0.00  0.00    +0.000 NA
ATOM      9  C   UNL     1       1.380   8.778  19.137  0.00  0.00    +0.000 A 
ATOM     10  C   UNL     1       1.005   9.922  19.894  0.00  0.00    +0.000 A 
ATOM     11  C   UNL     1       1.027  10.193  21.360  0.00  0.00    +0.000 C 
ATOM     12  H   UNL     1       0.448  10.615  16.833  0.00  0.00    +0.000 HD
ENDROOT
BRANCH   1  17
ATOM     13  C   UNL     1      -4.121  15.684  24.265  0.00  0.00    +0.000 C 
ATOM     14  C   UNL     1      -3.275  14.515  23.839  0.00  0.00    +0.000 A 
ATOM     15  C   UNL     1      -1.890  14.689  23.684  0.00  0.00    +0.000 A 
ATOM     16  C   UNL     1      -1.075  13.617  23.322  0.00  0.00    +0.000 A 
ATOM     17  C   UNL     1      -1.630  12.350  23.111  0.00  0.00    +0.000 A 
ATOM     18  C   UNL     1      -3.015  12.195  23.174  0.00  0.00    +0.000 A 
ATOM     19  C   UNL     1      -3.845  13.257  23.567  0.00  0.00    +0.000 A 
ATOM     20  C   UNL     1      -5.326  13.021  23.666  0.00  0.00    +0.000 C 
ENDBRANCH   1  17
BRANCH   9  21
ATOM     21  C   UNL     1       1.988   7.533  19.661  0.00  0.00    +0.000 C 
ATOM     22  O   UNL     1       1.644   7.093  20.756  0.00  0.00    +0.000 OA
ATOM     23  N   UNL     1       3.008   6.916  18.907  0.00  0.00    +0.000 N 
ATOM     24  C   UNL     1       3.437   5.577  19.312  0.00  0.00    +0.000 C 
ATOM     25  C   UNL     1       4.932   5.371  19.079  0.00  0.00    +0.000 C 
ATOM     26  C   UNL     1       5.339   5.687  17.632  0.00  0.00    +0.000 C 
ATOM     27  C   UNL     1       4.948   7.140  17.358  0.00  0.00    +0.000 C 
ATOM     28  C   UNL     1       3.463   7.392  17.597  0.00  0.00    +0.000 C 
BRANCH  26  29
ATOM     29  C   UNL     1       4.710   4.748  16.579  0.00  0.00    +0.000 C 
BRANCH  29  30
ATOM     30  C   UNL     1       5.516   4.573  15.316  0.00  0.00    +0.000 A 
ATOM     31  C   UNL     1       4.940   3.972  14.187  0.00  0.00    +0.000 A 
ATOM     32  C   UNL     1       5.661   3.850  13.005  0.00  0.00    +0.000 A 
ATOM     33  C   UNL     1       6.968   4.336  12.929  0.00  0.00    +0.000 A 
ATOM     34  C   UNL     1       7.553   4.927  14.046  0.00  0.00    +0.000 A 
ATOM     35  C   UNL     1       6.832   5.045  15.236  0.00  0.00    +0.000 A 
ENDBRANCH  29  30
ENDBRANCH  26  29
ENDBRANCH   9  21
TORSDOF 4
ENDMDL
MODEL 2
REMARK VINA RESULT:      -9.3      0.623      1.534
REMARK  Name = 
REMARK  6 active torsions:
REMARK  status: ('A' for Active; 'I' for Inactive)
REMARK    1  A    between atoms: C_1  and  C_2
REMARK    2  A    between atoms: C_5  and  C_6
REMARK    3  A    between atoms: C_14  and  C_15
REMARK    4  A    between atoms: C_20  and  C_21
REMARK    5  A    between atoms: C_21  and  C_22
REMARK    6  A    between atoms: C_33  and  C_34
REMARK                            x       y       z     vdW  Elec       q    Type
REMARK                         _______ _______ _______ _____ _____    ______ ____
ROOT
ATOM      1  C   UNL     1      -0.487  10.781  22.568  0.00  0.00    +0.000 C 
ATOM      2  O   UNL     1      -0.684   9.712  23.148  0.00  0.00    +0.000 OA
ATOM      3  N   UNL     1       0.475  10.925  21.565  0.00  0.00    +0.000 N 
ATOM      4  C   UNL     1       0.781  12.151  20.783  0.00  0.00    +0.000 C 
ATOM      5  C   UNL     1       0.686  11.968  19.255  0.00  0.00    +0.000 C 
ATOM      6  C   UNL     1       1.123  10.609  18.900  0.00  0.00    +0.000 A 
ATOM      7  N   UNL     1       1.259  10.106  17.652  0.00  0.00    +0.000 N 
ATOM      8  N   UNL     1       1.578   8.809  17.653  0.00  0.00    +0.000 NA
ATOM      9  C   UNL     1       1.756   8.489  18.956  0.00  0.00    +0.000 A 
ATOM     10  C   UNL     1       1.388   9.588  19.781  0.00  0.00    +0.000 A 
ATOM     11  C   UNL     1       1.302   9.733  21.262  0.00  0.00    +0.000 C 
ATOM     12  H   UNL     1       1.139  10.574  16.760  0.00  0.00    +0.000 HD
ENDROOT
BRANCH   1  17
ATOM     13  C   UNL     1      -4.034  15.075  24.197  0.00  0.00    +0.000 C 
ATOM     14  C   UNL     1      -3.078  13.985  23.794  0.00  0.00    +0.000 A 
ATOM     15  C   UNL     1      -3.527  12.656  23.761  0.00  0.00    +0.000 A 
ATOM     16  C   UNL     1      -2.673  11.628  23.360  0.00  0.00    +0.000 A 
ATOM     17  C   UNL     1      -1.357  11.912  22.982  0.00  0.00    +0.000 A 
ATOM     18  C   UNL     1      -0.882  13.218  23.101  0.00  0.00    +0.000 A 
ATOM     19  C   UNL     1      -1.736  14.268  23.474  0.00  0.00    +0.000 A 
ATOM     20  C   UNL     1      -1.184  15.664  23.539  0.00  0.00    +0.000 C 
ENDBRANCH   1  17
BRANCH   9  21
ATOM     21  C   UNL     1       2.238   7.165  19.413  0.00  0.00    +0.000 C 
ATOM     22  O   UNL     1       1.813   6.682  20.459  0.00  0.00    +0.000 OA
ATOM     23  N   UNL     1       3.239   6.518  18.657  0.00  0.00    +0.000 N 
ATOM     24  C   UNL     1       3.541   5.125  18.981  0.00  0.00    +0.000 C 
ATOM     25  C   UNL     1       5.024   4.812  18.792  0.00  0.00    +0.000 C 
ATOM     26  C   UNL     1       5.518   5.190  17.388  0.00  0.00    +0.000 C 
ATOM     27  C   UNL     1       5.257   6.687  17.203  0.00  0.00    +0.000 C 
ATOM     28  C   UNL     1       3.788   7.043  17.402  0.00  0.00    +0.000 C 
BRANCH  26  29
ATOM     29  C   UNL     1       4.863   4.381  16.247  0.00  0.00    +0.000 C 
BRANCH  29  30
ATOM     30  C   UNL     1       5.630   4.371  14.949  0.00  0.00    +0.000 A 
ATOM     31  C   UNL     1       6.871   5.018  14.855  0.00  0.00    +0.000 A 
ATOM     32  C   UNL     1       7.606   4.973  13.676  0.00  0.00    +0.000 A 
ATOM     33  C   UNL     1       7.116   4.271  12.573  0.00  0.00    +0.000 A 
ATOM     34  C   UNL     1       5.882   3.631  12.651  0.00  0.00    +0.000 A 
ATOM     35  C   UNL     1       5.140   3.680  13.833  0.00  0.00    +0.000 A 
ENDBRANCH  29  30
ENDBRANCH  26  29
ENDBRANCH   9  21
TORSDOF 4
ENDMDL
MODEL 3
REMARK VINA RESULT:      -9.1      1.706      2.946
REMARK  Name = 
REMARK  6 active torsions:
REMARK  status: ('A' for Active; 'I' for Inactive)
REMARK    1  A    between atoms: C_1  and  C_2
REMARK    2  A    between atoms: C_5  and  C_6
REMARK    3  A    between atoms: C_14  and  C_15
REMARK    4  A    between atoms: C_20  and  C_21
REMARK    5  A    between atoms: C_21  and  C_22
REMARK    6  A    between atoms: C_33  and  C_34
REMARK                            x       y       z     vdW  Elec       q    Type
REMARK                         _______ _______ _______ _____ _____    ______ ____
ROOT
ATOM      1  C   UNL     1      -1.154  11.646  22.758  0.00  0.00    +0.000 C 
ATOM      2  O   UNL     1      -1.286  10.622  23.430  0.00  0.00    +0.000 OA
ATOM      3  N   UNL     1      -0.202  11.760  21.742  0.00  0.00    +0.000 N 
ATOM      4  C   UNL     1       0.031  12.928  20.855  0.00  0.00    +0.000 C 
ATOM      5  C   UNL     1      -0.052  12.607  19.349  0.00  0.00    +0.000 C 
ATOM      6  C   UNL     1       0.465  11.250  19.111  0.00  0.00    +0.000 A 
ATOM      7  N   UNL     1       0.632  10.650  17.912  0.00  0.00    +0.000 N 
ATOM      8  N   UNL     1       1.029   9.379  18.024  0.00  0.00    +0.000 NA
ATOM      9  C   UNL     1       1.225   9.186  19.349  0.00  0.00    +0.000 A 
ATOM     10  C   UNL     1       0.791  10.328  20.077  0.00  0.00    +0.000 A 
ATOM     11  C   UNL     1       0.696  10.596  21.540  0.00  0.00    +0.000 C 
ATOM     12  H   UNL     1       0.486  11.030  16.983  0.00  0.00    +0.000 HD
ENDROOT
BRANCH   1  17
ATOM     13  C   UNL     1      -4.946  15.890  23.890  0.00  0.00    +0.000 C 
ATOM     14  C   UNL     1      -3.942  14.798  23.638  0.00  0.00    +0.000 A 
ATOM     15  C   UNL     1      -4.328  13.666  22.903  0.00  0.00    +0.000 A 
ATOM     16  C   UNL     1      -3.411  12.653  22.626  0.00  0.00    +0.000 A 
ATOM     17  C   UNL     1      -2.090  12.755  23.076  0.00  0.00    +0.000 A 
ATOM     18  C   UNL     1      -1.728  13.833  23.884  0.00  0.00    +0.000 A 
ATOM     19  C   UNL     1      -2.631  14.876  24.147  0.00  0.00    +0.000 A 
ATOM     20  C   UNL     1      -2.174  16.038  24.983  0.00  0.00    +0.000 C 
ENDBRANCH   1  17
BRANCH   9  21
ATOM     21  C   UNL     1       1.785   7.937  19.918  0.00  0.00    +0.000 C 
ATOM     22  O   UNL     1       1.506   7.605  21.067  0.00  0.00    +0.000 OA
ATOM     23  N   UNL     1       2.690   7.192  19.135  0.00  0.00    +0.000 N 
ATOM     24  C   UNL     1       3.057   5.856  19.606  0.00  0.00    +0.000 C 
ATOM     25  C   UNL     1       4.508   5.519  19.270  0.00  0.00    +0.000 C 
ATOM     26  C   UNL     1       4.810   5.699  17.775  0.00  0.00    +0.000 C 
ATOM     27  C   UNL     1       4.501   7.155  17.421  0.00  0.00    +0.000 C 
ATOM     28  C   UNL     1       3.064   7.537  17.758  0.00  0.00    +0.000 C 
BRANCH  26  29
ATOM     29  C   UNL     1       4.028   4.739  16.851  0.00  0.00    +0.000 C 
BRANCH  29  30
ATOM     30  C   UNL     1       3.217   3.686  17.564  0.00  0.00    +0.000 A 
ATOM     31  C   UNL     1       3.846   2.555  18.106  0.00  0.00    +0.000 A 
ATOM     32  C   UNL     1       3.113   1.604  18.806  0.00  0.00    +0.000 A 
ATOM     33  C   UNL     1       1.738   1.772  18.983  0.00  0.00    +0.000 A 
ATOM     34  C   UNL     1       1.101   2.886  18.442  0.00  0.00    +0.000 A 
ATOM     35  C   UNL     1       1.835   3.840  17.735  0.00  0.00    +0.000 A 
ENDBRANCH  29  30
ENDBRANCH  26  29
ENDBRANCH   9  21
TORSDOF 4
ENDMDL
MODEL 4
REMARK VINA RESULT:      -9.1      1.691      2.732
REMARK  Name = 
REMARK  6 active torsions:
REMARK  status: ('A' for Active; 'I' for Inactive)
REMARK    1  A    between atoms: C_1  and  C_2
REMARK    2  A    between atoms: C_5  and  C_6
REMARK    3  A    between atoms: C_14  and  C_15
REMARK    4  A    between atoms: C_20  and  C_21
REMARK    5  A    between atoms: C_21  and  C_22
REMARK    6  A    between atoms: C_33  and  C_34
REMARK                            x       y       z     vdW  Elec       q    Type
REMARK                         _______ _______ _______ _____ _____    ______ ____
ROOT
ATOM      1  C   UNL     1      -1.090  11.677  22.795  0.00  0.00    +0.000 C 
ATOM      2  O   UNL     1      -1.197  10.660  23.482  0.00  0.00    +0.000 OA
ATOM      3  N   UNL     1      -0.169  11.784  21.750  0.00  0.00    +0.000 N 
ATOM      4  C   UNL     1       0.032  12.943  20.843  0.00  0.00    +0.000 C 
ATOM      5  C   UNL     1      -0.094  12.604  19.344  0.00  0.00    +0.000 C 
ATOM      6  C   UNL     1       0.424  11.248  19.107  0.00  0.00    +0.000 A 
ATOM      7  N   UNL     1       0.558  10.634  17.910  0.00  0.00    +0.000 N 
ATOM      8  N   UNL     1       0.965   9.367  18.025  0.00  0.00    +0.000 NA
ATOM      9  C   UNL     1       1.201   9.190  19.346  0.00  0.00    +0.000 A 
ATOM     10  C   UNL     1       0.783  10.339  20.073  0.00  0.00    +0.000 A 
ATOM     11  C   UNL     1       0.729  10.623  21.535  0.00  0.00    +0.000 C 
ATOM     12  H   UNL     1       0.383  11.003  16.981  0.00  0.00    +0.000 HD
ENDROOT
BRANCH   1  17
ATOM     13  C   UNL     1      -4.591  16.088  24.194  0.00  0.00    +0.000 C 
ATOM     14  C   UNL     1      -3.708  14.939  23.791  0.00  0.00    +0.000 A 
ATOM     15  C   UNL     1      -2.354  14.949  24.163  0.00  0.00    +0.000 A 
ATOM     16  C   UNL     1      -1.518  13.883  23.832  0.00  0.00    +0.000 A 
ATOM     17  C   UNL     1      -2.022  12.784  23.127  0.00  0.00    +0.000 A 
ATOM     18  C   UNL     1      -3.343  12.813  22.677  0.00  0.00    +0.000 A 
ATOM     19  C   UNL     1      -4.205  13.864  23.028  0.00  0.00    +0.000 A 
ATOM     20  C   UNL     1      -5.632  13.820  22.558  0.00  0.00    +0.000 C 
ENDBRANCH   1  17
BRANCH   9  21
ATOM     21  C   UNL     1       1.784   7.951  19.912  0.00  0.00    +0.000 C 
ATOM     22  O   UNL     1       1.527   7.621  21.067  0.00  0.00    +0.000 OA
ATOM     23  N   UNL     1       2.686   7.212  19.118  0.00  0.00    +0.000 N 
ATOM     24  C   UNL     1       3.075   5.883  19.590  0.00  0.00    +0.000 C 
ATOM     25  C   UNL     1       4.525   5.561  19.234  0.00  0.00    +0.000 C 
ATOM     26  C   UNL     1       4.803   5.737  17.734  0.00  0.00    +0.000 C 
ATOM     27  C   UNL     1       4.471   7.188  17.377  0.00  0.00    +0.000 C 
ATOM     28  C   UNL     1       3.035   7.554  17.735  0.00  0.00    +0.000 C 
BRANCH  26  29
ATOM     29  C   UNL     1       4.017   4.763  16.826  0.00  0.00    +0.000 C 
BRANCH  29  30
ATOM     30  C   UNL     1       3.223   3.710  17.556  0.00  0.00    +0.000 A 
ATOM     31  C   UNL     1       3.869   2.597  18.115  0.00  0.00    +0.000 A 
ATOM     32  C   UNL     1       3.151   1.646  18.831  0.00  0.00    +0.000 A 
ATOM     33  C   UNL     1       1.774   1.798  19.008  0.00  0.00    +0.000 A 
ATOM     34  C   UNL     1       1.120   2.894  18.451  0.00  0.00    +0.000 A 
ATOM     35  C   UNL     1       1.840   3.847  17.728  0.00  0.00    +0.000 A 
ENDBRANCH  29  30
ENDBRANCH  26  29
ENDBRANCH   9  21
TORSDOF 4
ENDMDL
MODEL 5
REMARK VINA RESULT:      -8.7      5.718      7.586
REMARK  Name = 
REMARK  6 active torsions:
REMARK  status: ('A' for Active; 'I' for Inactive)
REMARK    1  A    between atoms: C_1  and  C_2
REMARK    2  A    between atoms: C_5  and  C_6
REMARK    3  A    between atoms: C_14  and  C_15
REMARK    4  A    between atoms: C_20  and  C_21
REMARK    5  A    between atoms: C_21  and  C_22
REMARK    6  A    between atoms: C_33  and  C_34
REMARK                            x       y       z     vdW  Elec       q    Type
REMARK                         _______ _______ _______ _____ _____    ______ ____
ROOT
ATOM      1  C   UNL     1       0.555  11.891  20.294  0.00  0.00    +0.000 C 
ATOM      2  O   UNL     1       1.092  11.030  20.992  0.00  0.00    +0.000 OA
ATOM      3  N   UNL     1       0.917  13.240  20.356  0.00  0.00    +0.000 N 
ATOM      4  C   UNL     1       0.361  14.357  19.550  0.00  0.00    +0.000 C 
ATOM      5  C   UNL     1       1.418  15.159  18.765  0.00  0.00    +0.000 C 
ATOM      6  C   UNL     1       2.662  15.221  19.549  0.00  0.00    +0.000 A 
ATOM      7  N   UNL     1       3.783  15.907  19.230  0.00  0.00    +0.000 N 
ATOM      8  N   UNL     1       4.781  15.689  20.090  0.00  0.00    +0.000 NA
ATOM      9  C   UNL     1       4.248  14.910  21.060  0.00  0.00    +0.000 A 
ATOM     10  C   UNL     1       2.928  14.521  20.701  0.00  0.00    +0.000 A 
ATOM     11  C   UNL     1       1.951  13.605  21.355  0.00  0.00    +0.000 C 
ATOM     12  H   UNL     1       3.948  16.528  18.444  0.00  0.00    +0.000 HD
ENDROOT
BRANCH   1  17
ATOM     13  C   UNL     1      -3.388   9.896  16.534  0.00  0.00    +0.000 C 
ATOM     14  C   UNL     1      -2.400  10.417  17.541  0.00  0.00    +0.000 A 
ATOM     15  C   UNL     1      -1.076   9.951  17.510  0.00  0.00    +0.000 A 
ATOM     16  C   UNL     1      -0.129  10.441  18.410  0.00  0.00    +0.000 A 
ATOM     17  C   UNL     1      -0.488  11.407  19.355  0.00  0.00    +0.000 A 
ATOM     18  C   UNL     1      -1.823  11.804  19.449  0.00  0.00    +0.000 A 
ATOM     19  C   UNL     1      -2.781  11.343  18.532  0.00  0.00    +0.000 A 
ATOM     20  C   UNL     1      -4.194  11.841  18.647  0.00  0.00    +0.000 C 
ENDBRANCH   1  17
BRANCH   9  21
ATOM     21  C   UNL     1       4.981  14.519  22.287  0.00  0.00    +0.000 C 
ATOM     22  O   UNL     1       4.420  14.562  23.379  0.00  0.00    +0.000 OA
ATOM     23  N   UNL     1       6.343  14.171  22.173  0.00  0.00    +0.000 N 
ATOM     24  C   UNL     1       6.991  13.571  23.338  0.00  0.00    +0.000 C 
ATOM     25  C   UNL     1       8.452  13.999  23.452  0.00  0.00    +0.000 C 
ATOM     26  C   UNL     1       9.236  13.724  22.160  0.00  0.00    +0.000 C 
ATOM     27  C   UNL     1       8.538  14.490  21.034  0.00  0.00    +0.000 C 
ATOM     28  C   UNL     1       7.069  14.103  20.900  0.00  0.00    +0.000 C 
BRANCH  26  29
ATOM     29  C   UNL     1       9.359  12.226  21.801  0.00  0.00    +0.000 C 
BRANCH  29  30
ATOM     30  C   UNL     1      10.089  11.935  20.515  0.00  0.00    +0.000 A 
ATOM     31  C   UNL     1       9.402  11.391  19.419  0.00  0.00    +0.000 A 
ATOM     32  C   UNL     1      10.056  11.165  18.214  0.00  0.00    +0.000 A 
ATOM     33  C   UNL     1      11.409  11.488  18.081  0.00  0.00    +0.000 A 
ATOM     34  C   UNL     1      12.103  12.021  19.164  0.00  0.00    +0.000 A 
ATOM     35  C   UNL     1      11.448  12.244  20.377  0.00  0.00    +0.000 A 
ENDBRANCH  29  30
ENDBRANCH  26  29
ENDBRANCH   9  21
TORSDOF 4
ENDMDL
MODEL 6
REMARK VINA RESULT:      -8.6      1.741      2.912
REMARK  Name = 
REMARK  6 active torsions:
REMARK  status: ('A' for Active; 'I' for Inactive)
REMARK    1  A    between atoms: C_1  and  C_2
REMARK    2  A    between atoms: C_5  and  C_6
REMARK    3  A    between atoms: C_14  and  C_15
REMARK    4  A    between atoms: C_20  and  C_21
REMARK    5  A    between atoms: C_21  and  C_22
REMARK    6  A    between atoms: C_33  and  C_34
REMARK                            x       y       z     vdW  Elec       q    Type
REMARK                         _______ _______ _______ _____ _____    ______ ____
ROOT
ATOM      1  C   UNL     1      -1.306  11.604  22.732  0.00  0.00    +0.000 C 
ATOM      2  O   UNL     1      -1.431  10.573  23.395  0.00  0.00    +0.000 OA
ATOM      3  N   UNL     1      -0.332  11.745  21.740  0.00  0.00    +0.000 N 
ATOM      4  C   UNL     1      -0.105  12.923  20.864  0.00  0.00    +0.000 C 
ATOM      5  C   UNL     1      -0.143  12.608  19.356  0.00  0.00    +0.000 C 
ATOM      6  C   UNL     1       0.412  11.266  19.125  0.00  0.00    +0.000 A 
ATOM      7  N   UNL     1       0.623  10.675  17.927  0.00  0.00    +0.000 N 
ATOM      8  N   UNL     1       1.047   9.414  18.043  0.00  0.00    +0.000 NA
ATOM      9  C   UNL     1       1.214   9.218  19.372  0.00  0.00    +0.000 A 
ATOM     10  C   UNL     1       0.736  10.347  20.094  0.00  0.00    +0.000 A 
ATOM     11  C   UNL     1       0.598  10.604  21.555  0.00  0.00    +0.000 C 
ATOM     12  H   UNL     1       0.491  11.057  16.996  0.00  0.00    +0.000 HD
ENDROOT
BRANCH   1  17
ATOM     13  C   UNL     1      -5.220  15.707  23.964  0.00  0.00    +0.000 C 
ATOM     14  C   UNL     1      -4.171  14.675  23.652  0.00  0.00    +0.000 A 
ATOM     15  C   UNL     1      -4.408  13.332  23.985  0.00  0.00    +0.000 A 
ATOM     16  C   UNL     1      -3.468  12.347  23.678  0.00  0.00    +0.000 A 
ATOM     17  C   UNL     1      -2.276  12.688  23.031  0.00  0.00    +0.000 A 
ATOM     18  C   UNL     1      -1.997  14.033  22.782  0.00  0.00    +0.000 A 
ATOM     19  C   UNL     1      -2.945  15.031  23.057  0.00  0.00    +0.000 A 
ATOM     20  C   UNL     1      -2.612  16.458  22.724  0.00  0.00    +0.000 C 
ENDBRANCH   1  17
BRANCH   9  21
ATOM     21  C   UNL     1       1.790   7.980  19.948  0.00  0.00    +0.000 C 
ATOM     22  O   UNL     1       1.536   7.666  21.108  0.00  0.00    +0.000 OA
ATOM     23  N   UNL     1       2.681   7.225  19.158  0.00  0.00    +0.000 N 
ATOM     24  C   UNL     1       3.061   5.898  19.643  0.00  0.00    +0.000 C 
ATOM     25  C   UNL     1       4.506   5.559  19.282  0.00  0.00    +0.000 C 
ATOM     26  C   UNL     1       4.777   5.716  17.779  0.00  0.00    +0.000 C 
ATOM     27  C   UNL     1       4.456   7.166  17.408  0.00  0.00    +0.000 C 
ATOM     28  C   UNL     1       3.025   7.549  17.769  0.00  0.00    +0.000 C 
BRANCH  26  29
ATOM     29  C   UNL     1       3.978   4.739  16.887  0.00  0.00    +0.000 C 
BRANCH  29  30
ATOM     30  C   UNL     1       3.193   3.690  17.632  0.00  0.00    +0.000 A 
ATOM     31  C   UNL     1       1.808   3.833  17.808  0.00  0.00    +0.000 A 
ATOM     32  C   UNL     1       1.070   2.847  18.452  0.00  0.00    +0.000 A 
ATOM     33  C   UNL     1       1.703   1.695  18.923  0.00  0.00    +0.000 A 
ATOM     34  C   UNL     1       3.078   1.545  18.762  0.00  0.00    +0.000 A 
ATOM     35  C   UNL     1       3.822   2.537  18.120  0.00  0.00    +0.000 A 
ENDBRANCH  29  30
ENDBRANCH  26  29
ENDBRANCH   9  21
TORSDOF 4
ENDMDL
MODEL 7
REMARK VINA RESULT:      -8.4      2.516     11.195
REMARK  Name = 
REMARK  6 active torsions:
REMARK  status: ('A' for Active; 'I' for Inactive)
REMARK    1  A    between atoms: C_1  and  C_2
REMARK    2  A    between atoms: C_5  and  C_6
REMARK    3  A    between atoms: C_14  and  C_15
REMARK    4  A    between atoms: C_20  and  C_21
REMARK    5  A    between atoms: C_21  and  C_22
REMARK    6  A    between atoms: C_33  and  C_34
REMARK                            x       y       z     vdW  Elec       q    Type
REMARK                         _______ _______ _______ _____ _____    ______ ____
ROOT
ATOM      1  C   UNL     1       1.789   7.555  19.555  0.00  0.00    +0.000 C 
ATOM      2  O   UNL     1       1.487   7.121  20.668  0.00  0.00    +0.000 OA
ATOM      3  N   UNL     1       1.322   8.782  19.076  0.00  0.00    +0.000 N 
ATOM      4  C   UNL     1       1.637   9.414  17.769  0.00  0.00    +0.000 C 
ATOM      5  C   UNL     1       2.227  10.835  17.879  0.00  0.00    +0.000 C 
ATOM      6  C   UNL     1       1.620  11.526  19.027  0.00  0.00    +0.000 A 
ATOM      7  N   UNL     1       1.820  12.812  19.392  0.00  0.00    +0.000 N 
ATOM      8  N   UNL     1       1.206  13.124  20.537  0.00  0.00    +0.000 NA
ATOM      9  C   UNL     1       0.496  12.020  20.869  0.00  0.00    +0.000 A 
ATOM     10  C   UNL     1       0.807  10.956  19.977  0.00  0.00    +0.000 A 
ATOM     11  C   UNL     1       0.387   9.526  19.954  0.00  0.00    +0.000 C 
ATOM     12  H   UNL     1       2.366  13.530  18.926  0.00  0.00    +0.000 HD
ENDROOT
BRANCH   1  17
ATOM     13  C   UNL     1       5.247   4.084  16.446  0.00  0.00    +0.000 C 
ATOM     14  C   UNL     1       4.368   5.021  17.228  0.00  0.00    +0.000 A 
ATOM     15  C   UNL     1       3.101   4.586  17.647  0.00  0.00    +0.000 A 
ATOM     16  C   UNL     1       2.276   5.420  18.402  0.00  0.00    +0.000 A 
ATOM     17  C   UNL     1       2.706   6.704  18.755  0.00  0.00    +0.000 A 
ATOM     18  C   UNL     1       3.925   7.172  18.264  0.00  0.00    +0.000 A 
ATOM     19  C   UNL     1       4.779   6.335  17.528  0.00  0.00    +0.000 A 
ATOM     20  C   UNL     1       6.103   6.874  17.065  0.00  0.00    +0.000 C 
ENDBRANCH   1  17
BRANCH   9  21
ATOM     21  C   UNL     1      -0.435  11.964  22.020  0.00  0.00    +0.000 C 
ATOM     22  O   UNL     1      -0.115  11.363  23.042  0.00  0.00    +0.000 OA
ATOM     23  N   UNL     1      -1.709  12.552  21.880  0.00  0.00    +0.000 N 
ATOM     24  C   UNL     1      -2.528  12.695  23.083  0.00  0.00    +0.000 C 
ATOM     25  C   UNL     1      -4.013  12.513  22.779  0.00  0.00    +0.000 C 
ATOM     26  C   UNL     1      -4.489  13.443  21.653  0.00  0.00    +0.000 C 
ATOM     27  C   UNL     1      -3.644  13.128  20.416  0.00  0.00    +0.000 C 
ATOM     28  C   UNL     1      -2.151  13.281  20.685  0.00  0.00    +0.000 C 
BRANCH  26  29
ATOM     29  C   UNL     1      -4.406  14.947  21.998  0.00  0.00    +0.000 C 
BRANCH  29  30
ATOM     30  C   UNL     1      -4.727  15.882  20.859  0.00  0.00    +0.000 A 
ATOM     31  C   UNL     1      -5.968  15.805  20.209  0.00  0.00    +0.000 A 
ATOM     32  C   UNL     1      -6.290  16.695  19.191  0.00  0.00    +0.000 A 
ATOM     33  C   UNL     1      -5.379  17.684  18.812  0.00  0.00    +0.000 A 
ATOM     34  C   UNL     1      -4.142  17.765  19.445  0.00  0.00    +0.000 A 
ATOM     35  C   UNL     1      -3.814  16.868  20.464  0.00  0.00    +0.000 A 
ENDBRANCH  29  30
ENDBRANCH  26  29
ENDBRANCH   9  21
TORSDOF 4
ENDMDL
MODEL 8
REMARK VINA RESULT:      -8.4      5.772      7.539
REMARK  Name = 
REMARK  6 active torsions:
REMARK  status: ('A' for Active; 'I' for Inactive)
REMARK    1  A    between atoms: C_1  and  C_2
REMARK    2  A    between atoms: C_5  and  C_6
REMARK    3  A    between atoms: C_14  and  C_15
REMARK    4  A    between atoms: C_20  and  C_21
REMARK    5  A    between atoms: C_21  and  C_22
REMARK    6  A    between atoms: C_33  and  C_34
REMARK                            x       y       z     vdW  Elec       q    Type
REMARK                         _______ _______ _______ _____ _____    ______ ____
ROOT
ATOM      1  C   UNL     1       0.057  12.491  20.770  0.00  0.00    +0.000 C 
ATOM      2  O   UNL     1       0.477  11.635  21.551  0.00  0.00    +0.000 OA
ATOM      3  N   UNL     1       0.654  13.748  20.642  0.00  0.00    +0.000 N 
ATOM      4  C   UNL     1       0.254  14.843  19.722  0.00  0.00    +0.000 C 
ATOM      5  C   UNL     1       1.384  15.338  18.798  0.00  0.00    +0.000 C 
ATOM      6  C   UNL     1       2.667  15.264  19.514  0.00  0.00    +0.000 A 
ATOM      7  N   UNL     1       3.868  15.690  19.064  0.00  0.00    +0.000 N 
ATOM      8  N   UNL     1       4.865  15.398  19.903  0.00  0.00    +0.000 NA
ATOM      9  C   UNL     1       4.266  14.852  20.987  0.00  0.00    +0.000 A 
ATOM     10  C   UNL     1       2.877  14.672  20.736  0.00  0.00    +0.000 A 
ATOM     11  C   UNL     1       1.798  14.035  21.542  0.00  0.00    +0.000 C 
ATOM     12  H   UNL     1       4.090  16.172  18.198  0.00  0.00    +0.000 HD
ENDROOT
BRANCH   1  17
ATOM     13  C   UNL     1      -4.631  11.055  17.667  0.00  0.00    +0.000 C 
ATOM     14  C   UNL     1      -3.389  11.423  18.432  0.00  0.00    +0.000 A 
ATOM     15  C   UNL     1      -3.485  12.325  19.504  0.00  0.00    +0.000 A 
ATOM     16  C   UNL     1      -2.357  12.660  20.253  0.00  0.00    +0.000 A 
ATOM     17  C   UNL     1      -1.114  12.097  19.946  0.00  0.00    +0.000 A 
ATOM     18  C   UNL     1      -0.998  11.273  18.826  0.00  0.00    +0.000 A 
ATOM     19  C   UNL     1      -2.129  10.902  18.080  0.00  0.00    +0.000 A 
ATOM     20  C   UNL     1      -1.955   9.973  16.912  0.00  0.00    +0.000 C 
ENDBRANCH   1  17
BRANCH   9  21
ATOM     21  C   UNL     1       4.995  14.483  22.223  0.00  0.00    +0.000 C 
ATOM     22  O   UNL     1       4.418  14.505  23.308  0.00  0.00    +0.000 OA
ATOM     23  N   UNL     1       6.369  14.181  22.126  0.00  0.00    +0.000 N 
ATOM     24  C   UNL     1       7.022  13.601  23.299  0.00  0.00    +0.000 C 
ATOM     25  C   UNL     1       8.466  14.078  23.433  0.00  0.00    +0.000 C 
ATOM     26  C   UNL     1       9.276  13.832  22.151  0.00  0.00    +0.000 C 
ATOM     27  C   UNL     1       8.567  14.576  21.017  0.00  0.00    +0.000 C 
ATOM     28  C   UNL     1       7.114  14.140  20.863  0.00  0.00    +0.000 C 
BRANCH  26  29
ATOM     29  C   UNL     1       9.454  12.340  21.792  0.00  0.00    +0.000 C 
BRANCH  29  30
ATOM     30  C   UNL     1      10.129  12.077  20.470  0.00  0.00    +0.000 A 
ATOM     31  C   UNL     1      11.479  12.412  20.285  0.00  0.00    +0.000 A 
ATOM     32  C   UNL     1      12.121  12.129  19.086  0.00  0.00    +0.000 A 
ATOM     33  C   UNL     1      11.426  11.497  18.052  0.00  0.00    +0.000 A 
ATOM     34  C   UNL     1      10.084  11.167  18.221  0.00  0.00    +0.000 A 
ATOM     35  C   UNL     1       9.436  11.455  19.423  0.00  0.00    +0.000 A 
ENDBRANCH  29  30
ENDBRANCH  26  29
ENDBRANCH   9  21
TORSDOF 4
ENDMDL
MODEL 9
REMARK VINA RESULT:      -8.4      6.152      9.676
REMARK  Name = 
REMARK  6 active torsions:
REMARK  status: ('A' for Active; 'I' for Inactive)
REMARK    1  A    between atoms: C_1  and  C_2
REMARK    2  A    between atoms: C_5  and  C_6
REMARK    3  A    between atoms: C_14  and  C_15
REMARK    4  A    between atoms: C_20  and  C_21
REMARK    5  A    between atoms: C_21  and  C_22
REMARK    6  A    between atoms: C_33  and  C_34
REMARK                            x       y       z     vdW  Elec       q    Type
REMARK                         _______ _______ _______ _____ _____    ______ ____
ROOT
ATOM      1  C   UNL     1       6.224  15.022  18.270  0.00  0.00    +0.000 C 
ATOM      2  O   UNL     1       5.779  13.999  17.746  0.00  0.00    +0.000 OA
ATOM      3  N   UNL     1       5.404  16.084  18.660  0.00  0.00    +0.000 N 
ATOM      4  C   UNL     1       5.822  17.347  19.318  0.00  0.00    +0.000 C 
ATOM      5  C   UNL     1       5.104  17.634  20.652  0.00  0.00    +0.000 C 
ATOM      6  C   UNL     1       3.720  17.140  20.575  0.00  0.00    +0.000 A 
ATOM      7  N   UNL     1       2.759  17.286  21.515  0.00  0.00    +0.000 N 
ATOM      8  N   UNL     1       1.631  16.643  21.200  0.00  0.00    +0.000 NA
ATOM      9  C   UNL     1       1.841  16.148  19.958  0.00  0.00    +0.000 A 
ATOM     10  C   UNL     1       3.190  16.371  19.567  0.00  0.00    +0.000 A 
ATOM     11  C   UNL     1       3.957  15.950  18.361  0.00  0.00    +0.000 C 
ATOM     12  H   UNL     1       2.797  17.792  22.394  0.00  0.00    +0.000 HD
ENDROOT
BRANCH   1  17
ATOM     13  C   UNL     1      11.938  15.027  19.280  0.00  0.00    +0.000 C 
ATOM     14  C   UNL     1      10.466  15.031  18.972  0.00  0.00    +0.000 A 
ATOM     15  C   UNL     1       9.597  14.264  19.763  0.00  0.00    +0.000 A 
ATOM     16  C   UNL     1       8.222  14.272  19.522  0.00  0.00    +0.000 A 
ATOM     17  C   UNL     1       7.693  15.051  18.488  0.00  0.00    +0.000 A 
ATOM     18  C   UNL     1       8.563  15.742  17.643  0.00  0.00    +0.000 A 
ATOM     19  C   UNL     1       9.944  15.767  17.890  0.00  0.00    +0.000 A 
ATOM     20  C   UNL     1      10.830  16.567  16.977  0.00  0.00    +0.000 C 
ENDBRANCH   1  17
BRANCH   9  21
ATOM     21  C   UNL     1       0.796  15.456  19.167  0.00  0.00    +0.000 C 
ATOM     22  O   UNL     1      -0.012  16.108  18.511  0.00  0.00    +0.000 OA
ATOM     23  N   UNL     1       0.716  14.050  19.249  0.00  0.00    +0.000 N 
ATOM     24  C   UNL     1      -0.159  13.364  18.298  0.00  0.00    +0.000 C 
ATOM     25  C   UNL     1      -0.818  12.137  18.925  0.00  0.00    +0.000 C 
ATOM     26  C   UNL     1       0.212  11.181  19.544  0.00  0.00    +0.000 C 
ATOM     27  C   UNL     1       0.988  11.972  20.600  0.00  0.00    +0.000 C 
ATOM     28  C   UNL     1       1.648  13.217  20.016  0.00  0.00    +0.000 C 
BRANCH  26  29
ATOM     29  C   UNL     1       1.181  10.547  18.521  0.00  0.00    +0.000 C 
BRANCH  29  30
ATOM     30  C   UNL     1       1.607   9.135  18.835  0.00  0.00    +0.000 A 
ATOM     31  C   UNL     1       2.285   8.370  17.874  0.00  0.00    +0.000 A 
ATOM     32  C   UNL     1       2.723   7.085  18.172  0.00  0.00    +0.000 A 
ATOM     33  C   UNL     1       2.497   6.546  19.440  0.00  0.00    +0.000 A 
ATOM     34  C   UNL     1       1.817   7.292  20.399  0.00  0.00    +0.000 A 
ATOM     35  C   UNL     1       1.372   8.581  20.100  0.00  0.00    +0.000 A 
ENDBRANCH  29  30
ENDBRANCH  26  29
ENDBRANCH   9  21
TORSDOF 4
ENDMDL
