MODEL 1
REMARK VINA RESULT:      -6.4      0.000      0.000
REMARK  Name = 
REMARK  8 active torsions:
REMARK  status: ('A' for Active; 'I' for Inactive)
REMARK    1  A    between atoms: C_1  and  O_2
REMARK    2  A    between atoms: O_2  and  C_3
REMARK    3  A    between atoms: C_3  and  C_5
REMARK    4  A    between atoms: C_6  and  C_7
REMARK    5  A    between atoms: C_8  and  C_9
REMARK    6  A    between atoms: C_12  and  C_13
REMARK    7  A    between atoms: N_22  and  C_23
REMARK    8  A    between atoms: C_23  and  C_24
REMARK                            x       y       z     vdW  Elec       q    Type
REMARK                         _______ _______ _______ _____ _____    ______ ____
ROOT
ATOM      1  C   UNL     1       3.277   4.722  17.904  0.00  0.00    +0.000 C 
ATOM      2  C   UNL     1       3.948   4.476  19.062  0.00  0.00    +0.000 C 
ATOM      3  C   UNL     1       5.358   5.037  19.261  0.00  0.00    +0.000 C 
ATOM      4  C   UNL     1       5.768   6.004  18.126  0.00  0.00    +0.000 C 
ATOM      5  C   UNL     1       4.960   7.308  18.170  0.00  0.00    +0.000 C 
ATOM      6  C   UNL     1       3.761   7.068  17.231  0.00  0.00    +0.000 C 
ATOM      7  C   UNL     1       3.887   5.599  16.814  0.00  0.00    +0.000 C 
ATOM      8  N   UNL     1       5.329   5.402  16.882  0.00  0.00    +0.000 N 
ATOM      9  C   UNL     1       6.191   4.772  16.026  0.00  0.00    +0.000 C 
ATOM     10  O   UNL     1       7.400   4.722  16.250  0.00  0.00    +0.000 OA
ATOM     11  N   UNL     1       5.645   4.239  14.898  0.00  0.00    +0.000 N 
ATOM     12  H   UNL     1       4.712   3.858  14.972  0.00  0.00    +0.000 HD
ENDROOT
BRANCH   2  13
ATOM     13  C   UNL     1       3.503   3.708  20.176  0.00  0.00    +0.000 A 
ATOM     14  C   UNL     1       2.493   4.003  21.130  0.00  0.00    +0.000 A 
ATOM     15  C   UNL     1       1.623   5.195  21.244  0.00  0.00    +0.000 C 
ATOM     16  N   UNL     1       2.394   3.027  22.043  0.00  0.00    +0.000 NA
ATOM     17  O   UNL     1       3.341   2.083  21.691  0.00  0.00    +0.000 OA
ATOM     18  C   UNL     1       4.001   2.490  20.573  0.00  0.00    +0.000 A 
ATOM     19  C   UNL     1       5.048   1.581  20.071  0.00  0.00    +0.000 C 
ENDBRANCH   2  13
BRANCH   1  20
ATOM     20  C   UNL     1       1.952   4.165  17.520  0.00  0.00    +0.000 C 
ATOM     21  O   UNL     1       1.029   4.853  17.114  0.00  0.00    +0.000 OA
BRANCH  20  23
ATOM     22  C   UNL     1       1.075   2.175  18.356  0.00  0.00    +0.000 C 
ATOM     23  O   UNL     1       1.998   2.817  17.486  0.00  0.00    +0.000 OA
ENDBRANCH  20  23
ENDBRANCH   1  20
BRANCH  11  24
ATOM     24  C   UNL     1       6.528   3.561  13.975  0.00  0.00    +0.000 C 
BRANCH  24  25
ATOM     25  C   UNL     1       5.812   3.179  12.733  0.00  0.00    +0.000 A 
ATOM     26  C   UNL     1       6.059   2.241  11.751  0.00  0.00    +0.000 A 
ATOM     27  C   UNL     1       4.955   2.283  10.866  0.00  0.00    +0.000 A 
ATOM     28  C   UNL     1       4.109   3.250  11.358  0.00  0.00    +0.000 A 
ATOM     29  O   UNL     1       4.622   3.805  12.486  0.00  0.00    +0.000 OA
ENDBRANCH  24  25
ENDBRANCH  11  24
TORSDOF 5
ENDMDL
MODEL 2
REMARK VINA RESULT:      -6.4      0.397      1.540
REMARK  Name = 
REMARK  8 active torsions:
REMARK  status: ('A' for Active; 'I' for Inactive)
REMARK    1  A    between atoms: C_1  and  O_2
REMARK    2  A    between atoms: O_2  and  C_3
REMARK    3  A    between atoms: C_3  and  C_5
REMARK    4  A    between atoms: C_6  and  C_7
REMARK    5  A    between atoms: C_8  and  C_9
REMARK    6  A    between atoms: C_12  and  C_13
REMARK    7  A    between atoms: N_22  and  C_23
REMARK    8  A    between atoms: C_23  and  C_24
REMARK                            x       y       z     vdW  Elec       q    Type
REMARK                         _______ _______ _______ _____ _____    ______ ____
ROOT
ATOM      1  C   UNL     1       3.201   4.795  17.899  0.00  0.00    +0.000 C 
ATOM      2  C   UNL     1       3.857   4.592  19.073  0.00  0.00    +0.000 C 
ATOM      3  C   UNL     1       5.258   5.174  19.276  0.00  0.00    +0.000 C 
ATOM      4  C   UNL     1       5.674   6.111  18.118  0.00  0.00    +0.000 C 
ATOM      5  C   UNL     1       4.852   7.407  18.110  0.00  0.00    +0.000 C 
ATOM      6  C   UNL     1       3.669   7.125  17.161  0.00  0.00    +0.000 C 
ATOM      7  C   UNL     1       3.818   5.645  16.791  0.00  0.00    +0.000 C 
ATOM      8  N   UNL     1       5.261   5.467  16.886  0.00  0.00    +0.000 N 
ATOM      9  C   UNL     1       6.143   4.821  16.063  0.00  0.00    +0.000 C 
ATOM     10  O   UNL     1       7.349   4.792  16.306  0.00  0.00    +0.000 OA
ATOM     11  N   UNL     1       5.620   4.248  14.944  0.00  0.00    +0.000 N 
ATOM     12  H   UNL     1       4.690   3.859  15.016  0.00  0.00    +0.000 HD
ENDROOT
BRANCH   2  13
ATOM     13  C   UNL     1       3.404   3.853  20.204  0.00  0.00    +0.000 A 
ATOM     14  C   UNL     1       3.839   2.592  20.691  0.00  0.00    +0.000 A 
ATOM     15  C   UNL     1       4.879   1.683  20.158  0.00  0.00    +0.000 C 
ATOM     16  N   UNL     1       3.139   2.228  21.774  0.00  0.00    +0.000 NA
ATOM     17  O   UNL     1       2.238   3.251  22.004  0.00  0.00    +0.000 OA
ATOM     18  C   UNL     1       2.400   4.224  21.067  0.00  0.00    +0.000 A 
ATOM     19  C   UNL     1       1.506   5.391  21.181  0.00  0.00    +0.000 C 
ENDBRANCH   2  13
BRANCH   1  20
ATOM     20  C   UNL     1       1.888   4.211  17.512  0.00  0.00    +0.000 C 
ATOM     21  O   UNL     1       0.960   4.877  17.082  0.00  0.00    +0.000 OA
BRANCH  20  23
ATOM     22  C   UNL     1       1.034   2.226  18.383  0.00  0.00    +0.000 C 
ATOM     23  O   UNL     1       1.954   2.863  17.506  0.00  0.00    +0.000 OA
ENDBRANCH  20  23
ENDBRANCH   1  20
BRANCH  11  24
ATOM     24  C   UNL     1       6.524   3.552  14.055  0.00  0.00    +0.000 C 
BRANCH  24  25
ATOM     25  C   UNL     1       5.847   3.178  12.789  0.00  0.00    +0.000 A 
ATOM     26  C   UNL     1       6.143   2.270  11.792  0.00  0.00    +0.000 A 
ATOM     27  C   UNL     1       5.058   2.301  10.883  0.00  0.00    +0.000 A 
ATOM     28  C   UNL     1       4.174   3.232  11.377  0.00  0.00    +0.000 A 
ATOM     29  O   UNL     1       4.646   3.775  12.529  0.00  0.00    +0.000 OA
ENDBRANCH  24  25
ENDBRANCH  11  24
TORSDOF 5
ENDMDL
MODEL 3
REMARK VINA RESULT:      -6.4      7.148      9.494
REMARK  Name = 
REMARK  8 active torsions:
REMARK  status: ('A' for Active; 'I' for Inactive)
REMARK    1  A    between atoms: C_1  and  O_2
REMARK    2  A    between atoms: O_2  and  C_3
REMARK    3  A    between atoms: C_3  and  C_5
REMARK    4  A    between atoms: C_6  and  C_7
REMARK    5  A    between atoms: C_8  and  C_9
REMARK    6  A    between atoms: C_12  and  C_13
REMARK    7  A    between atoms: N_22  and  C_23
REMARK    8  A    between atoms: C_23  and  C_24
REMARK                            x       y       z     vdW  Elec       q    Type
REMARK                         _______ _______ _______ _____ _____    ______ ____
ROOT
ATOM      1  C   UNL     1      -0.266  11.801  20.962  0.00  0.00    +0.000 C 
ATOM      2  C   UNL     1       0.368  12.955  20.619  0.00  0.00    +0.000 C 
ATOM      3  C   UNL     1       0.748  13.212  19.159  0.00  0.00    +0.000 C 
ATOM      4  C   UNL     1       0.164  12.143  18.207  0.00  0.00    +0.000 C 
ATOM      5  C   UNL     1      -1.364  12.249  18.102  0.00  0.00    +0.000 C 
ATOM      6  C   UNL     1      -1.907  11.275  19.167  0.00  0.00    +0.000 C 
ATOM      7  C   UNL     1      -0.659  10.775  19.903  0.00  0.00    +0.000 C 
ATOM      8  N   UNL     1       0.348  10.858  18.852  0.00  0.00    +0.000 N 
ATOM      9  C   UNL     1       1.332   9.983  18.479  0.00  0.00    +0.000 C 
ATOM     10  O   UNL     1       2.088  10.226  17.540  0.00  0.00    +0.000 OA
ATOM     11  N   UNL     1       1.401   8.816  19.177  0.00  0.00    +0.000 N 
ATOM     12  H   UNL     1       1.166   8.850  20.160  0.00  0.00    +0.000 HD
ENDROOT
BRANCH   2  13
ATOM     13  C   UNL     1       0.771  14.013  21.483  0.00  0.00    +0.000 A 
ATOM     14  C   UNL     1      -0.025  14.889  22.268  0.00  0.00    +0.000 A 
ATOM     15  C   UNL     1      -1.497  14.957  22.406  0.00  0.00    +0.000 C 
ATOM     16  N   UNL     1       0.738  15.770  22.929  0.00  0.00    +0.000 NA
ATOM     17  O   UNL     1       2.044  15.477  22.579  0.00  0.00    +0.000 OA
ATOM     18  C   UNL     1       2.062  14.424  21.718  0.00  0.00    +0.000 A 
ATOM     19  C   UNL     1       3.392  13.988  21.253  0.00  0.00    +0.000 C 
ENDBRANCH   2  13
BRANCH   1  20
ATOM     20  C   UNL     1      -0.605  11.360  22.343  0.00  0.00    +0.000 C 
ATOM     21  O   UNL     1      -1.702  11.532  22.850  0.00  0.00    +0.000 OA
BRANCH  20  23
ATOM     22  C   UNL     1      -0.053   9.302  23.283  0.00  0.00    +0.000 C 
ATOM     23  O   UNL     1       0.377  10.584  22.846  0.00  0.00    +0.000 OA
ENDBRANCH  20  23
ENDBRANCH   1  20
BRANCH  11  24
ATOM     24  C   UNL     1       2.434   7.871  18.812  0.00  0.00    +0.000 C 
BRANCH  24  25
ATOM     25  C   UNL     1       2.157   6.529  19.382  0.00  0.00    +0.000 A 
ATOM     26  C   UNL     1       1.762   6.096  20.632  0.00  0.00    +0.000 A 
ATOM     27  C   UNL     1       1.565   4.698  20.531  0.00  0.00    +0.000 A 
ATOM     28  C   UNL     1       1.860   4.365  19.229  0.00  0.00    +0.000 A 
ATOM     29  O   UNL     1       2.227   5.467  18.525  0.00  0.00    +0.000 OA
ENDBRANCH  24  25
ENDBRANCH  11  24
TORSDOF 5
ENDMDL
MODEL 4
REMARK VINA RESULT:      -6.4      8.160     11.804
REMARK  Name = 
REMARK  8 active torsions:
REMARK  status: ('A' for Active; 'I' for Inactive)
REMARK    1  A    between atoms: C_1  and  O_2
REMARK    2  A    between atoms: O_2  and  C_3
REMARK    3  A    between atoms: C_3  and  C_5
REMARK    4  A    between atoms: C_6  and  C_7
REMARK    5  A    between atoms: C_8  and  C_9
REMARK    6  A    between atoms: C_12  and  C_13
REMARK    7  A    between atoms: N_22  and  C_23
REMARK    8  A    between atoms: C_23  and  C_24
REMARK                            x       y       z     vdW  Elec       q    Type
REMARK                         _______ _______ _______ _____ _____    ______ ____
ROOT
ATOM      1  C   UNL     1      -0.330  11.860  20.171  0.00  0.00    +0.000 C 
ATOM      2  C   UNL     1      -0.348  10.598  19.662  0.00  0.00    +0.000 C 
ATOM      3  C   UNL     1      -1.303  10.249  18.519  0.00  0.00    +0.000 C 
ATOM      4  C   UNL     1      -2.024  11.498  17.959  0.00  0.00    +0.000 C 
ATOM      5  C   UNL     1      -1.056  12.428  17.215  0.00  0.00    +0.000 C 
ATOM      6  C   UNL     1      -0.588  13.448  18.273  0.00  0.00    +0.000 C 
ATOM      7  C   UNL     1      -1.214  12.957  19.583  0.00  0.00    +0.000 C 
ATOM      8  N   UNL     1      -2.422  12.301  19.098  0.00  0.00    +0.000 N 
ATOM      9  C   UNL     1      -3.710  12.337  19.559  0.00  0.00    +0.000 C 
ATOM     10  O   UNL     1      -4.613  11.718  18.996  0.00  0.00    +0.000 OA
ATOM     11  N   UNL     1      -3.944  13.124  20.645  0.00  0.00    +0.000 N 
ATOM     12  H   UNL     1      -3.208  13.189  21.335  0.00  0.00    +0.000 HD
ENDROOT
BRANCH   2  13
ATOM     13  C   UNL     1       0.433   9.483  20.081  0.00  0.00    +0.000 A 
ATOM     14  C   UNL     1       0.393   8.762  21.304  0.00  0.00    +0.000 A 
ATOM     15  C   UNL     1      -0.465   8.969  22.493  0.00  0.00    +0.000 C 
ATOM     16  N   UNL     1       1.312   7.787  21.318  0.00  0.00    +0.000 NA
ATOM     17  O   UNL     1       1.964   7.864  20.101  0.00  0.00    +0.000 OA
ATOM     18  C   UNL     1       1.434   8.876  19.361  0.00  0.00    +0.000 A 
ATOM     19  C   UNL     1       2.028   9.083  18.027  0.00  0.00    +0.000 C 
ENDBRANCH   2  13
BRANCH   1  20
ATOM     20  C   UNL     1       0.460  12.325  21.343  0.00  0.00    +0.000 C 
ATOM     21  O   UNL     1      -0.021  12.485  22.454  0.00  0.00    +0.000 OA
BRANCH  20  23
ATOM     22  C   UNL     1       2.298  13.611  20.712  0.00  0.00    +0.000 C 
ATOM     23  O   UNL     1       1.778  12.332  21.052  0.00  0.00    +0.000 OA
ENDBRANCH  20  23
ENDBRANCH   1  20
BRANCH  11  24
ATOM     24  C   UNL     1      -5.294  13.179  21.161  0.00  0.00    +0.000 C 
BRANCH  24  25
ATOM     25  C   UNL     1      -5.333  12.817  22.599  0.00  0.00    +0.000 A 
ATOM     26  C   UNL     1      -4.370  12.770  23.588  0.00  0.00    +0.000 A 
ATOM     27  C   UNL     1      -5.043  12.444  24.790  0.00  0.00    +0.000 A 
ATOM     28  C   UNL     1      -6.371  12.303  24.457  0.00  0.00    +0.000 A 
ATOM     29  O   UNL     1      -6.556  12.521  23.130  0.00  0.00    +0.000 OA
ENDBRANCH  24  25
ENDBRANCH  11  24
TORSDOF 5
ENDMDL
MODEL 5
REMARK VINA RESULT:      -6.3      7.080      9.533
REMARK  Name = 
REMARK  8 active torsions:
REMARK  status: ('A' for Active; 'I' for Inactive)
REMARK    1  A    between atoms: C_1  and  O_2
REMARK    2  A    between atoms: O_2  and  C_3
REMARK    3  A    between atoms: C_3  and  C_5
REMARK    4  A    between atoms: C_6  and  C_7
REMARK    5  A    between atoms: C_8  and  C_9
REMARK    6  A    between atoms: C_12  and  C_13
REMARK    7  A    between atoms: N_22  and  C_23
REMARK    8  A    between atoms: C_23  and  C_24
REMARK                            x       y       z     vdW  Elec       q    Type
REMARK                         _______ _______ _______ _____ _____    ______ ____
ROOT
ATOM      1  C   UNL     1      -0.209  11.761  20.958  0.00  0.00    +0.000 C 
ATOM      2  C   UNL     1       0.400  12.922  20.592  0.00  0.00    +0.000 C 
ATOM      3  C   UNL     1       0.741  13.175  19.122  0.00  0.00    +0.000 C 
ATOM      4  C   UNL     1       0.150  12.091  18.190  0.00  0.00    +0.000 C 
ATOM      5  C   UNL     1      -1.381  12.174  18.122  0.00  0.00    +0.000 C 
ATOM      6  C   UNL     1      -1.884  11.199  19.206  0.00  0.00    +0.000 C 
ATOM      7  C   UNL     1      -0.611  10.723  19.914  0.00  0.00    +0.000 C 
ATOM      8  N   UNL     1       0.369  10.813  18.839  0.00  0.00    +0.000 N 
ATOM      9  C   UNL     1       1.356   9.950  18.449  0.00  0.00    +0.000 C 
ATOM     10  O   UNL     1       2.086  10.198  17.490  0.00  0.00    +0.000 OA
ATOM     11  N   UNL     1       1.460   8.789  19.152  0.00  0.00    +0.000 N 
ATOM     12  H   UNL     1       1.248   8.826  20.140  0.00  0.00    +0.000 HD
ENDROOT
BRANCH   2  13
ATOM     13  C   UNL     1       0.807  13.992  21.440  0.00  0.00    +0.000 A 
ATOM     14  C   UNL     1       2.114  14.467  21.729  0.00  0.00    +0.000 A 
ATOM     15  C   UNL     1       3.424  13.979  21.242  0.00  0.00    +0.000 C 
ATOM     16  N   UNL     1       2.074  15.485  22.600  0.00  0.00    +0.000 NA
ATOM     17  O   UNL     1       0.736  15.684  22.887  0.00  0.00    +0.000 OA
ATOM     18  C   UNL     1      -0.020  14.794  22.190  0.00  0.00    +0.000 A 
ATOM     19  C   UNL     1      -1.479  14.883  22.391  0.00  0.00    +0.000 C 
ENDBRANCH   2  13
BRANCH   1  20
ATOM     20  C   UNL     1      -0.508  11.325  22.349  0.00  0.00    +0.000 C 
ATOM     21  O   UNL     1      -1.586  11.510  22.891  0.00  0.00    +0.000 OA
BRANCH  20  23
ATOM     22  C   UNL     1       0.033   9.337  23.437  0.00  0.00    +0.000 C 
ATOM     23  O   UNL     1       0.481  10.537  22.820  0.00  0.00    +0.000 OA
ENDBRANCH  20  23
ENDBRANCH   1  20
BRANCH  11  24
ATOM     24  C   UNL     1       2.497   7.857  18.769  0.00  0.00    +0.000 C 
BRANCH  24  25
ATOM     25  C   UNL     1       2.195   6.489  19.258  0.00  0.00    +0.000 A 
ATOM     26  C   UNL     1       1.855   5.982  20.496  0.00  0.00    +0.000 A 
ATOM     27  C   UNL     1       1.591   4.604  20.309  0.00  0.00    +0.000 A 
ATOM     28  C   UNL     1       1.796   4.355  18.971  0.00  0.00    +0.000 A 
ATOM     29  O   UNL     1       2.169   5.491  18.325  0.00  0.00    +0.000 OA
ENDBRANCH  24  25
ENDBRANCH  11  24
TORSDOF 5
ENDMDL
MODEL 6
REMARK VINA RESULT:      -6.2      2.954      7.411
REMARK  Name = 
REMARK  8 active torsions:
REMARK  status: ('A' for Active; 'I' for Inactive)
REMARK    1  A    between atoms: C_1  and  O_2
REMARK    2  A    between atoms: O_2  and  C_3
REMARK    3  A    between atoms: C_3  and  C_5
REMARK    4  A    between atoms: C_6  and  C_7
REMARK    5  A    between atoms: C_8  and  C_9
REMARK    6  A    between atoms: C_12  and  C_13
REMARK    7  A    between atoms: N_22  and  C_23
REMARK    8  A    between atoms: C_23  and  C_24
REMARK                            x       y       z     vdW  Elec       q    Type
REMARK                         _______ _______ _______ _____ _____    ______ ____
ROOT
ATOM      1  C   UNL     1       3.757   5.722  17.533  0.00  0.00    +0.000 C 
ATOM      2  C   UNL     1       4.662   4.793  17.943  0.00  0.00    +0.000 C 
ATOM      3  C   UNL     1       4.244   3.705  18.936  0.00  0.00    +0.000 C 
ATOM      4  C   UNL     1       2.721   3.715  19.206  0.00  0.00    +0.000 C 
ATOM      5  C   UNL     1       1.922   3.266  17.975  0.00  0.00    +0.000 C 
ATOM      6  C   UNL     1       1.573   4.569  17.227  0.00  0.00    +0.000 C 
ATOM      7  C   UNL     1       2.307   5.667  18.005  0.00  0.00    +0.000 C 
ATOM      8  N   UNL     1       2.328   5.104  19.349  0.00  0.00    +0.000 N 
ATOM      9  C   UNL     1       2.079   5.675  20.567  0.00  0.00    +0.000 C 
ATOM     10  O   UNL     1       2.132   5.022  21.608  0.00  0.00    +0.000 OA
ATOM     11  N   UNL     1       1.730   6.991  20.559  0.00  0.00    +0.000 N 
ATOM     12  H   UNL     1       2.158   7.578  19.856  0.00  0.00    +0.000 HD
ENDROOT
BRANCH   2  13
ATOM     13  C   UNL     1       6.034   4.694  17.570  0.00  0.00    +0.000 A 
ATOM     14  C   UNL     1       6.609   4.216  16.364  0.00  0.00    +0.000 A 
ATOM     15  C   UNL     1       5.948   3.674  15.154  0.00  0.00    +0.000 C 
ATOM     16  N   UNL     1       7.947   4.266  16.415  0.00  0.00    +0.000 NA
ATOM     17  O   UNL     1       8.258   4.779  17.661  0.00  0.00    +0.000 OA
ATOM     18  C   UNL     1       7.113   5.039  18.349  0.00  0.00    +0.000 A 
ATOM     19  C   UNL     1       7.282   5.597  19.703  0.00  0.00    +0.000 C 
ENDBRANCH   2  13
BRANCH   1  20
ATOM     20  C   UNL     1       4.034   6.895  16.660  0.00  0.00    +0.000 C 
ATOM     21  O   UNL     1       4.976   6.944  15.885  0.00  0.00    +0.000 OA
BRANCH  20  23
ATOM     22  C   UNL     1       3.075   8.710  17.760  0.00  0.00    +0.000 C 
ATOM     23  O   UNL     1       3.005   7.767  16.699  0.00  0.00    +0.000 OA
ENDBRANCH  20  23
ENDBRANCH   1  20
BRANCH  11  24
ATOM     24  C   UNL     1       1.465   7.627  21.831  0.00  0.00    +0.000 C 
BRANCH  24  25
ATOM     25  C   UNL     1       0.678   8.872  21.652  0.00  0.00    +0.000 A 
ATOM     26  C   UNL     1      -0.125   9.611  22.498  0.00  0.00    +0.000 A 
ATOM     27  C   UNL     1      -0.524  10.760  21.773  0.00  0.00    +0.000 A 
ATOM     28  C   UNL     1       0.052  10.645  20.529  0.00  0.00    +0.000 A 
ATOM     29  O   UNL     1       0.778   9.500  20.443  0.00  0.00    +0.000 OA
ENDBRANCH  24  25
ENDBRANCH  11  24
TORSDOF 5
ENDMDL
MODEL 7
REMARK VINA RESULT:      -6.2      8.335     11.962
REMARK  Name = 
REMARK  8 active torsions:
REMARK  status: ('A' for Active; 'I' for Inactive)
REMARK    1  A    between atoms: C_1  and  O_2
REMARK    2  A    between atoms: O_2  and  C_3
REMARK    3  A    between atoms: C_3  and  C_5
REMARK    4  A    between atoms: C_6  and  C_7
REMARK    5  A    between atoms: C_8  and  C_9
REMARK    6  A    between atoms: C_12  and  C_13
REMARK    7  A    between atoms: N_22  and  C_23
REMARK    8  A    between atoms: C_23  and  C_24
REMARK                            x       y       z     vdW  Elec       q    Type
REMARK                         _______ _______ _______ _____ _____    ______ ____
ROOT
ATOM      1  C   UNL     1      -0.079  12.021  19.975  0.00  0.00    +0.000 C 
ATOM      2  C   UNL     1      -0.351  10.692  19.872  0.00  0.00    +0.000 C 
ATOM      3  C   UNL     1      -1.617  10.225  19.148  0.00  0.00    +0.000 C 
ATOM      4  C   UNL     1      -2.351  11.390  18.445  0.00  0.00    +0.000 C 
ATOM      5  C   UNL     1      -1.551  11.929  17.252  0.00  0.00    +0.000 C 
ATOM      6  C   UNL     1      -0.716  13.094  17.822  0.00  0.00    +0.000 C 
ATOM      7  C   UNL     1      -0.991  13.061  19.329  0.00  0.00    +0.000 C 
ATOM      8  N   UNL     1      -2.340  12.511  19.365  0.00  0.00    +0.000 N 
ATOM      9  C   UNL     1      -3.439  12.873  20.096  0.00  0.00    +0.000 C 
ATOM     10  O   UNL     1      -4.514  12.288  19.975  0.00  0.00    +0.000 OA
ATOM     11  N   UNL     1      -3.287  13.938  20.932  0.00  0.00    +0.000 N 
ATOM     12  H   UNL     1      -2.385  14.055  21.372  0.00  0.00    +0.000 HD
ENDROOT
BRANCH   2  13
ATOM     13  C   UNL     1       0.413   9.608  20.392  0.00  0.00    +0.000 A 
ATOM     14  C   UNL     1       1.350   8.768  19.734  0.00  0.00    +0.000 A 
ATOM     15  C   UNL     1       1.794   8.774  18.322  0.00  0.00    +0.000 C 
ATOM     16  N   UNL     1       1.839   7.844  20.572  0.00  0.00    +0.000 NA
ATOM     17  O   UNL     1       1.222   8.072  21.788  0.00  0.00    +0.000 OA
ATOM     18  C   UNL     1       0.373   9.130  21.680  0.00  0.00    +0.000 A 
ATOM     19  C   UNL     1      -0.363   9.500  22.904  0.00  0.00    +0.000 C 
ENDBRANCH   2  13
BRANCH   1  20
ATOM     20  C   UNL     1       1.046  12.633  20.732  0.00  0.00    +0.000 C 
ATOM     21  O   UNL     1       2.139  12.861  20.238  0.00  0.00    +0.000 OA
BRANCH  20  23
ATOM     22  C   UNL     1       0.616  14.490  22.070  0.00  0.00    +0.000 C 
ATOM     23  O   UNL     1       0.622  13.075  21.934  0.00  0.00    +0.000 OA
ENDBRANCH  20  23
ENDBRANCH   1  20
BRANCH  11  24
ATOM     24  C   UNL     1      -4.428  14.343  21.723  0.00  0.00    +0.000 C 
BRANCH  24  25
ATOM     25  C   UNL     1      -4.579  13.483  22.923  0.00  0.00    +0.000 A 
ATOM     26  C   UNL     1      -3.677  12.937  23.814  0.00  0.00    +0.000 A 
ATOM     27  C   UNL     1      -4.440  12.288  24.814  0.00  0.00    +0.000 A 
ATOM     28  C   UNL     1      -5.759  12.471  24.466  0.00  0.00    +0.000 A 
ATOM     29  O   UNL     1      -5.854  13.188  23.317  0.00  0.00    +0.000 OA
ENDBRANCH  24  25
ENDBRANCH  11  24
TORSDOF 5
ENDMDL
MODEL 8
REMARK VINA RESULT:      -6.2      2.939      7.358
REMARK  Name = 
REMARK  8 active torsions:
REMARK  status: ('A' for Active; 'I' for Inactive)
REMARK    1  A    between atoms: C_1  and  O_2
REMARK    2  A    between atoms: O_2  and  C_3
REMARK    3  A    between atoms: C_3  and  C_5
REMARK    4  A    between atoms: C_6  and  C_7
REMARK    5  A    between atoms: C_8  and  C_9
REMARK    6  A    between atoms: C_12  and  C_13
REMARK    7  A    between atoms: N_22  and  C_23
REMARK    8  A    between atoms: C_23  and  C_24
REMARK                            x       y       z     vdW  Elec       q    Type
REMARK                         _______ _______ _______ _____ _____    ______ ____
ROOT
ATOM      1  C   UNL     1       3.773   5.692  17.520  0.00  0.00    +0.000 C 
ATOM      2  C   UNL     1       4.672   4.757  17.928  0.00  0.00    +0.000 C 
ATOM      3  C   UNL     1       4.248   3.671  18.921  0.00  0.00    +0.000 C 
ATOM      4  C   UNL     1       2.726   3.692  19.193  0.00  0.00    +0.000 C 
ATOM      5  C   UNL     1       1.922   3.249  17.963  0.00  0.00    +0.000 C 
ATOM      6  C   UNL     1       1.580   4.555  17.216  0.00  0.00    +0.000 C 
ATOM      7  C   UNL     1       2.323   5.647  17.994  0.00  0.00    +0.000 C 
ATOM      8  N   UNL     1       2.343   5.083  19.338  0.00  0.00    +0.000 N 
ATOM      9  C   UNL     1       2.099   5.655  20.557  0.00  0.00    +0.000 C 
ATOM     10  O   UNL     1       2.149   5.001  21.597  0.00  0.00    +0.000 OA
ATOM     11  N   UNL     1       1.760   6.974  20.550  0.00  0.00    +0.000 N 
ATOM     12  H   UNL     1       2.190   7.558  19.847  0.00  0.00    +0.000 HD
ENDROOT
BRANCH   2  13
ATOM     13  C   UNL     1       6.042   4.649  17.553  0.00  0.00    +0.000 A 
ATOM     14  C   UNL     1       7.208   4.994  18.287  0.00  0.00    +0.000 A 
ATOM     15  C   UNL     1       7.332   5.572  19.644  0.00  0.00    +0.000 C 
ATOM     16  N   UNL     1       8.315   4.761  17.569  0.00  0.00    +0.000 NA
ATOM     17  O   UNL     1       7.880   4.260  16.355  0.00  0.00    +0.000 OA
ATOM     18  C   UNL     1       6.521   4.190  16.349  0.00  0.00    +0.000 A 
ATOM     19  C   UNL     1       5.904   3.670  15.115  0.00  0.00    +0.000 C 
ENDBRANCH   2  13
BRANCH   1  20
ATOM     20  C   UNL     1       4.057   6.864  16.648  0.00  0.00    +0.000 C 
ATOM     21  O   UNL     1       5.002   6.910  15.876  0.00  0.00    +0.000 OA
BRANCH  20  23
ATOM     22  C   UNL     1       3.086   8.667  17.758  0.00  0.00    +0.000 C 
ATOM     23  O   UNL     1       3.031   7.739  16.682  0.00  0.00    +0.000 OA
ENDBRANCH  20  23
ENDBRANCH   1  20
BRANCH  11  24
ATOM     24  C   UNL     1       1.501   7.611  21.822  0.00  0.00    +0.000 C 
BRANCH  24  25
ATOM     25  C   UNL     1       0.692   8.842  21.649  0.00  0.00    +0.000 A 
ATOM     26  C   UNL     1      -0.090   9.587  22.509  0.00  0.00    +0.000 A 
ATOM     27  C   UNL     1      -0.530  10.717  21.778  0.00  0.00    +0.000 A 
ATOM     28  C   UNL     1       0.004  10.585  20.517  0.00  0.00    +0.000 A 
ATOM     29  O   UNL     1       0.741   9.448  20.426  0.00  0.00    +0.000 OA
ENDBRANCH  24  25
ENDBRANCH  11  24
TORSDOF 5
ENDMDL
MODEL 9
REMARK VINA RESULT:      -6.1      8.277     11.936
REMARK  Name = 
REMARK  8 active torsions:
REMARK  status: ('A' for Active; 'I' for Inactive)
REMARK    1  A    between atoms: C_1  and  O_2
REMARK    2  A    between atoms: O_2  and  C_3
REMARK    3  A    between atoms: C_3  and  C_5
REMARK    4  A    between atoms: C_6  and  C_7
REMARK    5  A    between atoms: C_8  and  C_9
REMARK    6  A    between atoms: C_12  and  C_13
REMARK    7  A    between atoms: N_22  and  C_23
REMARK    8  A    between atoms: C_23  and  C_24
REMARK                            x       y       z     vdW  Elec       q    Type
REMARK                         _______ _______ _______ _____ _____    ______ ____
ROOT
ATOM      1  C   UNL     1      -0.219  12.046  20.094  0.00  0.00    +0.000 C 
ATOM      2  C   UNL     1      -0.406  10.714  19.888  0.00  0.00    +0.000 C 
ATOM      3  C   UNL     1      -1.564  10.233  19.010  0.00  0.00    +0.000 C 
ATOM      4  C   UNL     1      -2.285  11.403  18.301  0.00  0.00    +0.000 C 
ATOM      5  C   UNL     1      -1.398  12.053  17.231  0.00  0.00    +0.000 C 
ATOM      6  C   UNL     1      -0.690  13.219  17.951  0.00  0.00    +0.000 C 
ATOM      7  C   UNL     1      -1.115  13.079  19.417  0.00  0.00    +0.000 C 
ATOM      8  N   UNL     1      -2.429  12.463  19.280  0.00  0.00    +0.000 N 
ATOM      9  C   UNL     1      -3.614  12.725  19.911  0.00  0.00    +0.000 C 
ATOM     10  O   UNL     1      -4.638  12.098  19.644  0.00  0.00    +0.000 OA
ATOM     11  N   UNL     1      -3.607  13.742  20.817  0.00  0.00    +0.000 N 
ATOM     12  H   UNL     1      -2.762  13.875  21.355  0.00  0.00    +0.000 HD
ENDROOT
BRANCH   2  13
ATOM     13  C   UNL     1       0.359   9.638  20.422  0.00  0.00    +0.000 A 
ATOM     14  C   UNL     1       1.314   8.804  19.781  0.00  0.00    +0.000 A 
ATOM     15  C   UNL     1       1.778   8.810  18.375  0.00  0.00    +0.000 C 
ATOM     16  N   UNL     1       1.797   7.886  20.629  0.00  0.00    +0.000 NA
ATOM     17  O   UNL     1       1.160   8.113  21.835  0.00  0.00    +0.000 OA
ATOM     18  C   UNL     1       0.304   9.163  21.711  0.00  0.00    +0.000 A 
ATOM     19  C   UNL     1      -0.453   9.530  22.922  0.00  0.00    +0.000 C 
ENDBRANCH   2  13
BRANCH   1  20
ATOM     20  C   UNL     1       0.789  12.663  20.999  0.00  0.00    +0.000 C 
ATOM     21  O   UNL     1       0.556  12.954  22.161  0.00  0.00    +0.000 OA
BRANCH  20  23
ATOM     22  C   UNL     1       2.536  13.939  20.134  0.00  0.00    +0.000 C 
ATOM     23  O   UNL     1       2.010  12.650  20.424  0.00  0.00    +0.000 OA
ENDBRANCH  20  23
ENDBRANCH   1  20
BRANCH  11  24
ATOM     24  C   UNL     1      -4.842  14.041  21.506  0.00  0.00    +0.000 C 
BRANCH  24  25
ATOM     25  C   UNL     1      -4.868  13.419  22.853  0.00  0.00    +0.000 A 
ATOM     26  C   UNL     1      -5.858  12.797  23.587  0.00  0.00    +0.000 A 
ATOM     27  C   UNL     1      -5.244  12.320  24.770  0.00  0.00    +0.000 A 
ATOM     28  C   UNL     1      -3.920  12.688  24.687  0.00  0.00    +0.000 A 
ATOM     29  O   UNL     1      -3.684  13.362  23.531  0.00  0.00    +0.000 OA
ENDBRANCH  24  25
ENDBRANCH  11  24
TORSDOF 5
ENDMDL
