MODEL 1
REMARK VINA RESULT:      -8.1      0.000      0.000
REMARK  Name = 
REMARK  7 active torsions:
REMARK  status: ('A' for Active; 'I' for Inactive)
REMARK    1  A    between atoms: C_1  and  C_2
REMARK    2  A    between atoms: C_2  and  O_3
REMARK    3  A    between atoms: O_3  and  C_4
REMARK    4  A    between atoms: C_9  and  N_10
REMARK    5  A    between atoms: C_11  and  C_13
REMARK    6  A    between atoms: N_20  and  C_21
REMARK    7  A    between atoms: C_21  and  C_22
REMARK                            x       y       z     vdW  Elec       q    Type
REMARK                         _______ _______ _______ _____ _____    ______ ____
ROOT
ATOM      1  C   UNL     1       3.260   2.367  19.583  0.00  0.00    +0.000 C 
ATOM      2  C   UNL     1       1.821   1.855  19.433  0.00  0.00    +0.000 C 
ATOM      3  C   UNL     1       0.784   2.962  19.242  0.00  0.00    +0.000 C 
ATOM      4  C   UNL     1       0.991   4.098  20.237  0.00  0.00    +0.000 C 
ATOM      5  N   UNL     1       2.372   4.575  20.166  0.00  0.00    +0.000 N 
ATOM      6  C   UNL     1       2.810   5.836  19.812  0.00  0.00    +0.000 C 
ATOM      7  O   UNL     1       3.987   6.173  19.892  0.00  0.00    +0.000 OA
ATOM      8  N   UNL     1       1.853   6.659  19.302  0.00  0.00    +0.000 N 
ATOM      9  C   UNL     1       3.374   3.573  20.505  0.00  0.00    +0.000 C 
ATOM     10  H   UNL     1       1.018   6.241  18.935  0.00  0.00    +0.000 HD
ENDROOT
BRANCH   1  12
ATOM     11  N   UNL     1       4.786   3.707  18.117  0.00  0.00    +0.000 N 
ATOM     12  C   UNL     1       3.984   2.579  18.251  0.00  0.00    +0.000 C 
ATOM     13  O   UNL     1       3.794   1.732  17.374  0.00  0.00    +0.000 OA
ATOM     14  H   UNL     1       5.068   4.197  18.960  0.00  0.00    +0.000 HD
BRANCH  11  20
ATOM     15  C   UNL     1       6.857   4.436  16.960  0.00  0.00    +0.000 A 
ATOM     16  C   UNL     1       7.522   4.704  15.747  0.00  0.00    +0.000 A 
ATOM     17  C   UNL     1       6.830   4.749  14.539  0.00  0.00    +0.000 A 
ATOM     18  C   UNL     1       5.468   4.509  14.522  0.00  0.00    +0.000 A 
ATOM     19  C   UNL     1       4.808   4.183  15.706  0.00  0.00    +0.000 A 
ATOM     20  C   UNL     1       5.479   4.101  16.934  0.00  0.00    +0.000 A 
BRANCH  15  21
ATOM     21  O   UNL     1       7.522   4.469  18.169  0.00  0.00    +0.000 OA
BRANCH  21  23
ATOM     22  C   UNL     1       7.888   6.911  18.315  0.00  0.00    +0.000 C 
ATOM     23  C   UNL     1       7.312   5.657  18.971  0.00  0.00    +0.000 C 
ENDBRANCH  21  23
ENDBRANCH  15  21
ENDBRANCH  11  20
ENDBRANCH   1  12
BRANCH   8  24
ATOM     24  C   UNL     1       2.209   7.926  18.722  0.00  0.00    +0.000 C 
BRANCH  24  25
ATOM     25  C   UNL     1       1.290   9.019  19.175  0.00  0.00    +0.000 A 
ATOM     26  C   UNL     1       0.931   9.110  20.527  0.00  0.00    +0.000 A 
ATOM     27  C   UNL     1       0.083  10.130  20.962  0.00  0.00    +0.000 A 
ATOM     28  C   UNL     1      -0.413  11.058  20.047  0.00  0.00    +0.000 A 
ATOM     29  C   UNL     1      -0.071  10.966  18.698  0.00  0.00    +0.000 A 
ATOM     30  C   UNL     1       0.776   9.949  18.263  0.00  0.00    +0.000 A 
ENDBRANCH  24  25
ENDBRANCH   8  24
TORSDOF 6
ENDMDL
MODEL 2
REMARK VINA RESULT:      -8.0      1.311      1.608
REMARK  Name = 
REMARK  7 active torsions:
REMARK  status: ('A' for Active; 'I' for Inactive)
REMARK    1  A    between atoms: C_1  and  C_2
REMARK    2  A    between atoms: C_2  and  O_3
REMARK    3  A    between atoms: O_3  and  C_4
REMARK    4  A    between atoms: C_9  and  N_10
REMARK    5  A    between atoms: C_11  and  C_13
REMARK    6  A    between atoms: N_20  and  C_21
REMARK    7  A    between atoms: C_21  and  C_22
REMARK                            x       y       z     vdW  Elec       q    Type
REMARK                         _______ _______ _______ _____ _____    ______ ____
ROOT
ATOM      1  C   UNL     1       3.922   2.782  18.228  0.00  0.00    +0.000 C 
ATOM      2  C   UNL     1       2.555   2.088  18.155  0.00  0.00    +0.000 C 
ATOM      3  C   UNL     1       1.375   3.004  18.483  0.00  0.00    +0.000 C 
ATOM      4  C   UNL     1       1.642   3.830  19.737  0.00  0.00    +0.000 C 
ATOM      5  N   UNL     1       2.912   4.543  19.600  0.00  0.00    +0.000 N 
ATOM      6  C   UNL     1       3.113   5.909  19.592  0.00  0.00    +0.000 C 
ATOM      7  O   UNL     1       4.234   6.410  19.586  0.00  0.00    +0.000 OA
ATOM      8  N   UNL     1       1.982   6.661  19.520  0.00  0.00    +0.000 N 
ATOM      9  C   UNL     1       4.075   3.678  19.449  0.00  0.00    +0.000 C 
ATOM     10  H   UNL     1       1.145   6.223  19.179  0.00  0.00    +0.000 HD
ENDROOT
BRANCH   1  12
ATOM     11  N   UNL     1       5.577   3.194  16.393  0.00  0.00    +0.000 N 
ATOM     12  C   UNL     1       4.329   3.487  16.931  0.00  0.00    +0.000 C 
ATOM     13  O   UNL     1       3.516   4.282  16.453  0.00  0.00    +0.000 OA
ATOM     14  H   UNL     1       6.054   2.359  16.719  0.00  0.00    +0.000 HD
BRANCH  11  20
ATOM     15  C   UNL     1       7.110   4.839  15.342  0.00  0.00    +0.000 A 
ATOM     16  C   UNL     1       7.732   5.321  14.173  0.00  0.00    +0.000 A 
ATOM     17  C   UNL     1       7.345   4.873  12.912  0.00  0.00    +0.000 A 
ATOM     18  C   UNL     1       6.346   3.922  12.801  0.00  0.00    +0.000 A 
ATOM     19  C   UNL     1       5.764   3.391  13.951  0.00  0.00    +0.000 A 
ATOM     20  C   UNL     1       6.149   3.800  15.236  0.00  0.00    +0.000 A 
BRANCH  15  21
ATOM     21  O   UNL     1       7.432   5.337  16.588  0.00  0.00    +0.000 OA
BRANCH  21  23
ATOM     22  C   UNL     1       7.645   7.596  17.574  0.00  0.00    +0.000 C 
ATOM     23  C   UNL     1       6.718   6.531  16.992  0.00  0.00    +0.000 C 
ENDBRANCH  21  23
ENDBRANCH  15  21
ENDBRANCH  11  20
ENDBRANCH   1  12
BRANCH   8  24
ATOM     24  C   UNL     1       2.057   8.082  19.315  0.00  0.00    +0.000 C 
BRANCH  24  25
ATOM     25  C   UNL     1       1.192   8.827  20.285  0.00  0.00    +0.000 A 
ATOM     26  C   UNL     1       1.251   8.517  21.651  0.00  0.00    +0.000 A 
ATOM     27  C   UNL     1       0.457   9.212  22.565  0.00  0.00    +0.000 A 
ATOM     28  C   UNL     1      -0.402  10.214  22.117  0.00  0.00    +0.000 A 
ATOM     29  C   UNL     1      -0.477  10.520  20.757  0.00  0.00    +0.000 A 
ATOM     30  C   UNL     1       0.316   9.827  19.845  0.00  0.00    +0.000 A 
ENDBRANCH  24  25
ENDBRANCH   8  24
TORSDOF 6
ENDMDL
MODEL 3
REMARK VINA RESULT:      -7.9      0.975      1.141
REMARK  Name = 
REMARK  7 active torsions:
REMARK  status: ('A' for Active; 'I' for Inactive)
REMARK    1  A    between atoms: C_1  and  C_2
REMARK    2  A    between atoms: C_2  and  O_3
REMARK    3  A    between atoms: O_3  and  C_4
REMARK    4  A    between atoms: C_9  and  N_10
REMARK    5  A    between atoms: C_11  and  C_13
REMARK    6  A    between atoms: N_20  and  C_21
REMARK    7  A    between atoms: C_21  and  C_22
REMARK                            x       y       z     vdW  Elec       q    Type
REMARK                         _______ _______ _______ _____ _____    ______ ____
ROOT
ATOM      1  C   UNL     1       3.056   2.328  18.920  0.00  0.00    +0.000 C 
ATOM      2  C   UNL     1       1.598   1.850  18.876  0.00  0.00    +0.000 C 
ATOM      3  C   UNL     1       0.574   2.955  19.141  0.00  0.00    +0.000 C 
ATOM      4  C   UNL     1       0.967   3.803  20.346  0.00  0.00    +0.000 C 
ATOM      5  N   UNL     1       2.332   4.302  20.178  0.00  0.00    +0.000 N 
ATOM      6  C   UNL     1       2.742   5.617  20.091  0.00  0.00    +0.000 C 
ATOM      7  O   UNL     1       3.926   5.939  20.065  0.00  0.00    +0.000 OA
ATOM      8  N   UNL     1       1.740   6.529  19.966  0.00  0.00    +0.000 N 
ATOM      9  C   UNL     1       3.347   3.260  20.088  0.00  0.00    +0.000 C 
ATOM     10  H   UNL     1       0.846   6.207  19.644  0.00  0.00    +0.000 HD
ENDROOT
BRANCH   1  12
ATOM     11  N   UNL     1       4.888   3.306  17.520  0.00  0.00    +0.000 N 
ATOM     12  C   UNL     1       3.566   2.883  17.587  0.00  0.00    +0.000 C 
ATOM     13  O   UNL     1       2.756   2.928  16.658  0.00  0.00    +0.000 OA
ATOM     14  H   UNL     1       5.526   3.002  18.250  0.00  0.00    +0.000 HD
BRANCH  11  20
ATOM     15  C   UNL     1       6.213   5.140  16.498  0.00  0.00    +0.000 A 
ATOM     16  C   UNL     1       6.914   5.632  15.380  0.00  0.00    +0.000 A 
ATOM     17  C   UNL     1       6.847   4.991  14.146  0.00  0.00    +0.000 A 
ATOM     18  C   UNL     1       6.095   3.837  14.015  0.00  0.00    +0.000 A 
ATOM     19  C   UNL     1       5.445   3.304  15.127  0.00  0.00    +0.000 A 
ATOM     20  C   UNL     1       5.515   3.909  16.390  0.00  0.00    +0.000 A 
BRANCH  15  21
ATOM     21  O   UNL     1       6.211   5.814  17.703  0.00  0.00    +0.000 OA
BRANCH  21  23
ATOM     22  C   UNL     1       7.997   7.415  18.309  0.00  0.00    +0.000 C 
ATOM     23  C   UNL     1       7.503   5.969  18.339  0.00  0.00    +0.000 C 
ENDBRANCH  21  23
ENDBRANCH  15  21
ENDBRANCH  11  20
ENDBRANCH   1  12
BRANCH   8  24
ATOM     24  C   UNL     1       2.034   7.907  19.678  0.00  0.00    +0.000 C 
BRANCH  24  25
ATOM     25  C   UNL     1       1.209   8.835  20.517  0.00  0.00    +0.000 A 
ATOM     26  C   UNL     1       1.022   8.562  21.879  0.00  0.00    +0.000 A 
ATOM     27  C   UNL     1       0.263   9.425  22.672  0.00  0.00    +0.000 A 
ATOM     28  C   UNL     1      -0.314  10.560  22.105  0.00  0.00    +0.000 A 
ATOM     29  C   UNL     1      -0.144  10.832  20.748  0.00  0.00    +0.000 A 
ATOM     30  C   UNL     1       0.613   9.972  19.956  0.00  0.00    +0.000 A 
ENDBRANCH  24  25
ENDBRANCH   8  24
TORSDOF 6
ENDMDL
MODEL 4
REMARK VINA RESULT:      -7.8      0.320      1.013
REMARK  Name = 
REMARK  7 active torsions:
REMARK  status: ('A' for Active; 'I' for Inactive)
REMARK    1  A    between atoms: C_1  and  C_2
REMARK    2  A    between atoms: C_2  and  O_3
REMARK    3  A    between atoms: O_3  and  C_4
REMARK    4  A    between atoms: C_9  and  N_10
REMARK    5  A    between atoms: C_11  and  C_13
REMARK    6  A    between atoms: N_20  and  C_21
REMARK    7  A    between atoms: C_21  and  C_22
REMARK                            x       y       z     vdW  Elec       q    Type
REMARK                         _______ _______ _______ _____ _____    ______ ____
ROOT
ATOM      1  C   UNL     1       3.263   2.292  19.379  0.00  0.00    +0.000 C 
ATOM      2  C   UNL     1       1.808   1.815  19.274  0.00  0.00    +0.000 C 
ATOM      3  C   UNL     1       0.788   2.949  19.162  0.00  0.00    +0.000 C 
ATOM      4  C   UNL     1       1.061   4.048  20.183  0.00  0.00    +0.000 C 
ATOM      5  N   UNL     1       2.448   4.499  20.068  0.00  0.00    +0.000 N 
ATOM      6  C   UNL     1       2.898   5.761  19.735  0.00  0.00    +0.000 C 
ATOM      7  O   UNL     1       4.085   6.070  19.776  0.00  0.00    +0.000 OA
ATOM      8  N   UNL     1       1.940   6.619  19.292  0.00  0.00    +0.000 N 
ATOM      9  C   UNL     1       3.442   3.466  20.333  0.00  0.00    +0.000 C 
ATOM     10  H   UNL     1       1.081   6.231  18.949  0.00  0.00    +0.000 HD
ENDROOT
BRANCH   1  12
ATOM     11  N   UNL     1       4.801   3.613  17.909  0.00  0.00    +0.000 N 
ATOM     12  C   UNL     1       3.935   2.533  18.025  0.00  0.00    +0.000 C 
ATOM     13  O   UNL     1       3.649   1.748  17.116  0.00  0.00    +0.000 OA
ATOM     14  H   UNL     1       5.154   4.038  18.762  0.00  0.00    +0.000 HD
BRANCH  11  20
ATOM     15  C   UNL     1       6.829   4.408  16.718  0.00  0.00    +0.000 A 
ATOM     16  C   UNL     1       7.464   4.695  15.494  0.00  0.00    +0.000 A 
ATOM     17  C   UNL     1       6.752   4.718  14.298  0.00  0.00    +0.000 A 
ATOM     18  C   UNL     1       5.398   4.434  14.304  0.00  0.00    +0.000 A 
ATOM     19  C   UNL     1       4.768   4.088  15.498  0.00  0.00    +0.000 A 
ATOM     20  C   UNL     1       5.462   4.029  16.715  0.00  0.00    +0.000 A 
BRANCH  15  21
ATOM     21  O   UNL     1       7.513   4.462  17.916  0.00  0.00    +0.000 OA
BRANCH  21  23
ATOM     22  C   UNL     1       8.160   5.712  19.951  0.00  0.00    +0.000 C 
ATOM     23  C   UNL     1       7.601   5.771  18.530  0.00  0.00    +0.000 C 
ENDBRANCH  21  23
ENDBRANCH  15  21
ENDBRANCH  11  20
ENDBRANCH   1  12
BRANCH   8  24
ATOM     24  C   UNL     1       2.299   7.897  18.738  0.00  0.00    +0.000 C 
BRANCH  24  25
ATOM     25  C   UNL     1       1.357   8.975  19.180  0.00  0.00    +0.000 A 
ATOM     26  C   UNL     1       0.892   9.917  18.252  0.00  0.00    +0.000 A 
ATOM     27  C   UNL     1       0.007  10.920  18.651  0.00  0.00    +0.000 A 
ATOM     28  C   UNL     1      -0.412  10.988  19.979  0.00  0.00    +0.000 A 
ATOM     29  C   UNL     1       0.056  10.062  20.912  0.00  0.00    +0.000 A 
ATOM     30  C   UNL     1       0.939   9.061  20.514  0.00  0.00    +0.000 A 
ENDBRANCH  24  25
ENDBRANCH   8  24
TORSDOF 6
ENDMDL
MODEL 5
REMARK VINA RESULT:      -7.5      1.503      2.801
REMARK  Name = 
REMARK  7 active torsions:
REMARK  status: ('A' for Active; 'I' for Inactive)
REMARK    1  A    between atoms: C_1  and  C_2
REMARK    2  A    between atoms: C_2  and  O_3
REMARK    3  A    between atoms: O_3  and  C_4
REMARK    4  A    between atoms: C_9  and  N_10
REMARK    5  A    between atoms: C_11  and  C_13
REMARK    6  A    between atoms: N_20  and  C_21
REMARK    7  A    between atoms: C_21  and  C_22
REMARK                            x       y       z     vdW  Elec       q    Type
REMARK                         _______ _______ _______ _____ _____    ______ ____
ROOT
ATOM      1  C   UNL     1       3.208   2.046  19.164  0.00  0.00    +0.000 C 
ATOM      2  C   UNL     1       2.493   2.028  17.806  0.00  0.00    +0.000 C 
ATOM      3  C   UNL     1       1.549   3.211  17.584  0.00  0.00    +0.000 C 
ATOM      4  C   UNL     1       0.667   3.458  18.804  0.00  0.00    +0.000 C 
ATOM      5  N   UNL     1       1.500   3.593  19.999  0.00  0.00    +0.000 N 
ATOM      6  C   UNL     1       1.619   4.695  20.822  0.00  0.00    +0.000 C 
ATOM      7  O   UNL     1       2.259   4.671  21.869  0.00  0.00    +0.000 OA
ATOM      8  N   UNL     1       1.032   5.831  20.356  0.00  0.00    +0.000 N 
ATOM      9  C   UNL     1       2.288   2.410  20.322  0.00  0.00    +0.000 C 
ATOM     10  H   UNL     1       0.839   5.894  19.373  0.00  0.00    +0.000 HD
ENDROOT
BRANCH   1  12
ATOM     11  N   UNL     1       4.578   3.976  18.343  0.00  0.00    +0.000 N 
ATOM     12  C   UNL     1       4.504   2.860  19.170  0.00  0.00    +0.000 C 
ATOM     13  O   UNL     1       5.408   2.460  19.907  0.00  0.00    +0.000 OA
ATOM     14  H   UNL     1       3.712   4.356  17.974  0.00  0.00    +0.000 HD
BRANCH  11  20
ATOM     15  C   UNL     1       6.187   5.167  16.877  0.00  0.00    +0.000 A 
ATOM     16  C   UNL     1       7.247   6.088  16.759  0.00  0.00    +0.000 A 
ATOM     17  C   UNL     1       7.913   6.570  17.883  0.00  0.00    +0.000 A 
ATOM     18  C   UNL     1       7.517   6.156  19.142  0.00  0.00    +0.000 A 
ATOM     19  C   UNL     1       6.431   5.293  19.277  0.00  0.00    +0.000 A 
ATOM     20  C   UNL     1       5.722   4.810  18.168  0.00  0.00    +0.000 A 
BRANCH  15  21
ATOM     21  O   UNL     1       5.576   4.624  15.764  0.00  0.00    +0.000 OA
BRANCH  21  23
ATOM     22  C   UNL     1       5.693   3.774  13.444  0.00  0.00    +0.000 C 
ATOM     23  C   UNL     1       6.451   4.335  14.646  0.00  0.00    +0.000 C 
ENDBRANCH  21  23
ENDBRANCH  15  21
ENDBRANCH  11  20
ENDBRANCH   1  12
BRANCH   8  24
ATOM     24  C   UNL     1       1.241   7.089  21.020  0.00  0.00    +0.000 C 
BRANCH  24  25
ATOM     25  C   UNL     1       1.408   8.211  20.040  0.00  0.00    +0.000 A 
ATOM     26  C   UNL     1       2.098   7.989  18.841  0.00  0.00    +0.000 A 
ATOM     27  C   UNL     1       2.251   9.024  17.916  0.00  0.00    +0.000 A 
ATOM     28  C   UNL     1       1.719  10.283  18.189  0.00  0.00    +0.000 A 
ATOM     29  C   UNL     1       1.040  10.515  19.386  0.00  0.00    +0.000 A 
ATOM     30  C   UNL     1       0.887   9.483  20.309  0.00  0.00    +0.000 A 
ENDBRANCH  24  25
ENDBRANCH   8  24
TORSDOF 6
ENDMDL
MODEL 6
REMARK VINA RESULT:      -7.4      1.523      2.685
REMARK  Name = 
REMARK  7 active torsions:
REMARK  status: ('A' for Active; 'I' for Inactive)
REMARK    1  A    between atoms: C_1  and  C_2
REMARK    2  A    between atoms: C_2  and  O_3
REMARK    3  A    between atoms: O_3  and  C_4
REMARK    4  A    between atoms: C_9  and  N_10
REMARK    5  A    between atoms: C_11  and  C_13
REMARK    6  A    between atoms: N_20  and  C_21
REMARK    7  A    between atoms: C_21  and  C_22
REMARK                            x       y       z     vdW  Elec       q    Type
REMARK                         _______ _______ _______ _____ _____    ______ ____
ROOT
ATOM      1  C   UNL     1       3.351   2.281  19.011  0.00  0.00    +0.000 C 
ATOM      2  C   UNL     1       2.673   2.322  17.635  0.00  0.00    +0.000 C 
ATOM      3  C   UNL     1       1.720   3.505  17.447  0.00  0.00    +0.000 C 
ATOM      4  C   UNL     1       0.804   3.680  18.653  0.00  0.00    +0.000 C 
ATOM      5  N   UNL     1       1.603   3.765  19.876  0.00  0.00    +0.000 N 
ATOM      6  C   UNL     1       1.686   4.826  20.755  0.00  0.00    +0.000 C 
ATOM      7  O   UNL     1       2.299   4.757  21.816  0.00  0.00    +0.000 OA
ATOM      8  N   UNL     1       1.098   5.977  20.331  0.00  0.00    +0.000 N 
ATOM      9  C   UNL     1       2.397   2.576  20.160  0.00  0.00    +0.000 C 
ATOM     10  H   UNL     1       0.929   6.086  19.347  0.00  0.00    +0.000 HD
ENDROOT
BRANCH   1  12
ATOM     11  N   UNL     1       4.693   4.299  18.376  0.00  0.00    +0.000 N 
ATOM     12  C   UNL     1       4.637   3.109  19.092  0.00  0.00    +0.000 C 
ATOM     13  O   UNL     1       5.549   2.652  19.786  0.00  0.00    +0.000 OA
ATOM     14  H   UNL     1       3.820   4.701  18.047  0.00  0.00    +0.000 HD
BRANCH  11  20
ATOM     15  C   UNL     1       6.055   5.955  17.126  0.00  0.00    +0.000 A 
ATOM     16  C   UNL     1       7.119   6.877  17.128  0.00  0.00    +0.000 A 
ATOM     17  C   UNL     1       8.011   6.949  18.196  0.00  0.00    +0.000 A 
ATOM     18  C   UNL     1       7.839   6.115  19.286  0.00  0.00    +0.000 A 
ATOM     19  C   UNL     1       6.755   5.240  19.325  0.00  0.00    +0.000 A 
ATOM     20  C   UNL     1       5.824   5.162  18.279  0.00  0.00    +0.000 A 
BRANCH  15  21
ATOM     21  O   UNL     1       5.217   5.824  16.037  0.00  0.00    +0.000 OA
BRANCH  21  23
ATOM     22  C   UNL     1       6.732   4.693  14.442  0.00  0.00    +0.000 C 
ATOM     23  C   UNL     1       5.422   4.641  15.225  0.00  0.00    +0.000 C 
ENDBRANCH  21  23
ENDBRANCH  15  21
ENDBRANCH  11  20
ENDBRANCH   1  12
BRANCH   8  24
ATOM     24  C   UNL     1       1.273   7.203  21.062  0.00  0.00    +0.000 C 
BRANCH  24  25
ATOM     25  C   UNL     1       1.329   8.389  20.147  0.00  0.00    +0.000 A 
ATOM     26  C   UNL     1       0.786   9.613  20.560  0.00  0.00    +0.000 A 
ATOM     27  C   UNL     1       0.842  10.726  19.720  0.00  0.00    +0.000 A 
ATOM     28  C   UNL     1       1.436  10.618  18.464  0.00  0.00    +0.000 A 
ATOM     29  C   UNL     1       1.968   9.400  18.040  0.00  0.00    +0.000 A 
ATOM     30  C   UNL     1       1.912   8.288  18.877  0.00  0.00    +0.000 A 
ENDBRANCH  24  25
ENDBRANCH   8  24
TORSDOF 6
ENDMDL
MODEL 7
REMARK VINA RESULT:      -7.3      3.489      6.345
REMARK  Name = 
REMARK  7 active torsions:
REMARK  status: ('A' for Active; 'I' for Inactive)
REMARK    1  A    between atoms: C_1  and  C_2
REMARK    2  A    between atoms: C_2  and  O_3
REMARK    3  A    between atoms: O_3  and  C_4
REMARK    4  A    between atoms: C_9  and  N_10
REMARK    5  A    between atoms: C_11  and  C_13
REMARK    6  A    between atoms: N_20  and  C_21
REMARK    7  A    between atoms: C_21  and  C_22
REMARK                            x       y       z     vdW  Elec       q    Type
REMARK                         _______ _______ _______ _____ _____    ______ ____
ROOT
ATOM      1  C   UNL     1       1.372   9.179  21.884  0.00  0.00    +0.000 C 
ATOM      2  C   UNL     1       0.593   9.456  23.177  0.00  0.00    +0.000 C 
ATOM      3  C   UNL     1      -0.756  10.141  22.954  0.00  0.00    +0.000 C 
ATOM      4  C   UNL     1      -0.636  11.308  21.980  0.00  0.00    +0.000 C 
ATOM      5  N   UNL     1      -0.001  10.856  20.742  0.00  0.00    +0.000 N 
ATOM      6  C   UNL     1      -0.541  10.854  19.471  0.00  0.00    +0.000 C 
ATOM      7  O   UNL     1       0.115  10.560  18.476  0.00  0.00    +0.000 OA
ATOM      8  N   UNL     1      -1.871  11.134  19.406  0.00  0.00    +0.000 N 
ATOM      9  C   UNL     1       1.355  10.349  20.910  0.00  0.00    +0.000 C 
ATOM     10  H   UNL     1      -2.418  11.018  20.239  0.00  0.00    +0.000 HD
ENDROOT
BRANCH   1  12
ATOM     11  N   UNL     1       2.038   7.055  20.735  0.00  0.00    +0.000 N 
ATOM     12  C   UNL     1       1.005   7.853  21.212  0.00  0.00    +0.000 C 
ATOM     13  O   UNL     1      -0.197   7.587  21.129  0.00  0.00    +0.000 OA
ATOM     14  H   UNL     1       2.979   7.241  21.068  0.00  0.00    +0.000 HD
BRANCH  11  20
ATOM     15  C   UNL     1       2.308   5.692  18.678  0.00  0.00    +0.000 A 
ATOM     16  C   UNL     1       2.243   4.427  18.062  0.00  0.00    +0.000 A 
ATOM     17  C   UNL     1       1.673   3.335  18.712  0.00  0.00    +0.000 A 
ATOM     18  C   UNL     1       1.179   3.486  19.995  0.00  0.00    +0.000 A 
ATOM     19  C   UNL     1       1.292   4.716  20.641  0.00  0.00    +0.000 A 
ATOM     20  C   UNL     1       1.884   5.827  20.025  0.00  0.00    +0.000 A 
BRANCH  15  21
ATOM     21  O   UNL     1       2.798   6.796  18.010  0.00  0.00    +0.000 OA
BRANCH  21  23
ATOM     22  C   UNL     1       4.710   6.660  16.446  0.00  0.00    +0.000 C 
ATOM     23  C   UNL     1       4.240   6.866  17.885  0.00  0.00    +0.000 C 
ENDBRANCH  21  23
ENDBRANCH  15  21
ENDBRANCH  11  20
ENDBRANCH   1  12
BRANCH   8  24
ATOM     24  C   UNL     1      -2.593  10.980  18.173  0.00  0.00    +0.000 C 
BRANCH  24  25
ATOM     25  C   UNL     1      -3.919  11.678  18.218  0.00  0.00    +0.000 A 
ATOM     26  C   UNL     1      -4.349  12.276  19.410  0.00  0.00    +0.000 A 
ATOM     27  C   UNL     1      -5.578  12.938  19.461  0.00  0.00    +0.000 A 
ATOM     28  C   UNL     1      -6.381  12.998  18.324  0.00  0.00    +0.000 A 
ATOM     29  C   UNL     1      -5.966  12.393  17.137  0.00  0.00    +0.000 A 
ATOM     30  C   UNL     1      -4.740  11.734  17.085  0.00  0.00    +0.000 A 
ENDBRANCH  24  25
ENDBRANCH   8  24
TORSDOF 6
ENDMDL
MODEL 8
REMARK VINA RESULT:      -7.3      1.713      6.546
REMARK  Name = 
REMARK  7 active torsions:
REMARK  status: ('A' for Active; 'I' for Inactive)
REMARK    1  A    between atoms: C_1  and  C_2
REMARK    2  A    between atoms: C_2  and  O_3
REMARK    3  A    between atoms: O_3  and  C_4
REMARK    4  A    between atoms: C_9  and  N_10
REMARK    5  A    between atoms: C_11  and  C_13
REMARK    6  A    between atoms: N_20  and  C_21
REMARK    7  A    between atoms: C_21  and  C_22
REMARK                            x       y       z     vdW  Elec       q    Type
REMARK                         _______ _______ _______ _____ _____    ______ ____
ROOT
ATOM      1  C   UNL     1       1.242   4.072  20.528  0.00  0.00    +0.000 C 
ATOM      2  C   UNL     1       1.913   3.173  21.575  0.00  0.00    +0.000 C 
ATOM      3  C   UNL     1       3.270   2.616  21.139  0.00  0.00    +0.000 C 
ATOM      4  C   UNL     1       3.216   2.066  19.718  0.00  0.00    +0.000 C 
ATOM      5  N   UNL     1       2.686   3.084  18.811  0.00  0.00    +0.000 N 
ATOM      6  C   UNL     1       3.325   3.669  17.736  0.00  0.00    +0.000 C 
ATOM      7  O   UNL     1       2.754   4.434  16.965  0.00  0.00    +0.000 OA
ATOM      8  N   UNL     1       4.653   3.392  17.632  0.00  0.00    +0.000 N 
ATOM      9  C   UNL     1       1.326   3.511  19.114  0.00  0.00    +0.000 C 
ATOM     10  H   UNL     1       5.134   3.069  18.452  0.00  0.00    +0.000 HD
ENDROOT
BRANCH   1  12
ATOM     11  N   UNL     1       0.691   6.500  20.798  0.00  0.00    +0.000 N 
ATOM     12  C   UNL     1       1.676   5.538  20.601  0.00  0.00    +0.000 C 
ATOM     13  O   UNL     1       2.880   5.769  20.469  0.00  0.00    +0.000 OA
ATOM     14  H   UNL     1      -0.216   6.194  21.137  0.00  0.00    +0.000 HD
BRANCH  11  20
ATOM     15  C   UNL     1       1.202   8.638  19.646  0.00  0.00    +0.000 A 
ATOM     16  C   UNL     1       1.279  10.044  19.707  0.00  0.00    +0.000 A 
ATOM     17  C   UNL     1       1.168  10.722  20.918  0.00  0.00    +0.000 A 
ATOM     18  C   UNL     1       0.958  10.007  22.084  0.00  0.00    +0.000 A 
ATOM     19  C   UNL     1       0.819   8.621  22.032  0.00  0.00    +0.000 A 
ATOM     20  C   UNL     1       0.898   7.911  20.825  0.00  0.00    +0.000 A 
BRANCH  15  21
ATOM     21  O   UNL     1       1.391   7.956  18.461  0.00  0.00    +0.000 OA
BRANCH  21  23
ATOM     22  C   UNL     1       3.699   7.621  17.636  0.00  0.00    +0.000 C 
ATOM     23  C   UNL     1       2.433   8.474  17.597  0.00  0.00    +0.000 C 
ENDBRANCH  21  23
ENDBRANCH  15  21
ENDBRANCH  11  20
ENDBRANCH   1  12
BRANCH   8  24
ATOM     24  C   UNL     1       5.474   4.084  16.675  0.00  0.00    +0.000 C 
BRANCH  24  25
ATOM     25  C   UNL     1       6.372   5.084  17.337  0.00  0.00    +0.000 A 
ATOM     26  C   UNL     1       6.807   6.208  16.622  0.00  0.00    +0.000 A 
ATOM     27  C   UNL     1       7.636   7.152  17.232  0.00  0.00    +0.000 A 
ATOM     28  C   UNL     1       8.035   6.972  18.555  0.00  0.00    +0.000 A 
ATOM     29  C   UNL     1       7.616   5.849  19.270  0.00  0.00    +0.000 A 
ATOM     30  C   UNL     1       6.789   4.908  18.662  0.00  0.00    +0.000 A 
ENDBRANCH  24  25
ENDBRANCH   8  24
TORSDOF 6
ENDMDL
MODEL 9
REMARK VINA RESULT:      -7.2      4.369      9.359
REMARK  Name = 
REMARK  7 active torsions:
REMARK  status: ('A' for Active; 'I' for Inactive)
REMARK    1  A    between atoms: C_1  and  C_2
REMARK    2  A    between atoms: C_2  and  O_3
REMARK    3  A    between atoms: O_3  and  C_4
REMARK    4  A    between atoms: C_9  and  N_10
REMARK    5  A    between atoms: C_11  and  C_13
REMARK    6  A    between atoms: N_20  and  C_21
REMARK    7  A    between atoms: C_21  and  C_22
REMARK                            x       y       z     vdW  Elec       q    Type
REMARK                         _______ _______ _______ _____ _____    ______ ____
ROOT
ATOM      1  C   UNL     1      -0.820  11.780  21.210  0.00  0.00    +0.000 C 
ATOM      2  C   UNL     1      -0.591  11.071  22.551  0.00  0.00    +0.000 C 
ATOM      3  C   UNL     1       0.305   9.835  22.456  0.00  0.00    +0.000 C 
ATOM      4  C   UNL     1      -0.096   8.944  21.285  0.00  0.00    +0.000 C 
ATOM      5  N   UNL     1      -0.136   9.731  20.053  0.00  0.00    +0.000 N 
ATOM      6  C   UNL     1       0.634   9.559  18.919  0.00  0.00    +0.000 C 
ATOM      7  O   UNL     1       0.446  10.202  17.891  0.00  0.00    +0.000 OA
ATOM      8  N   UNL     1       1.660   8.675  19.045  0.00  0.00    +0.000 N 
ATOM      9  C   UNL     1      -1.106  10.819  20.063  0.00  0.00    +0.000 C 
ATOM     10  H   UNL     1       1.981   8.452  19.969  0.00  0.00    +0.000 HD
ENDROOT
BRANCH   1  12
ATOM     11  N   UNL     1       0.445  13.126  19.518  0.00  0.00    +0.000 N 
ATOM     12  C   UNL     1       0.263  12.804  20.858  0.00  0.00    +0.000 C 
ATOM     13  O   UNL     1       0.914  13.269  21.797  0.00  0.00    +0.000 OA
ATOM     14  H   UNL     1      -0.292  12.883  18.863  0.00  0.00    +0.000 HD
BRANCH  11  20
ATOM     15  C   UNL     1       1.183  15.381  18.790  0.00  0.00    +0.000 A 
ATOM     16  C   UNL     1       2.237  16.226  18.389  0.00  0.00    +0.000 A 
ATOM     17  C   UNL     1       3.498  15.716  18.093  0.00  0.00    +0.000 A 
ATOM     18  C   UNL     1       3.732  14.358  18.212  0.00  0.00    +0.000 A 
ATOM     19  C   UNL     1       2.717  13.518  18.666  0.00  0.00    +0.000 A 
ATOM     20  C   UNL     1       1.444  14.003  18.999  0.00  0.00    +0.000 A 
BRANCH  15  21
ATOM     21  O   UNL     1      -0.090  15.869  19.008  0.00  0.00    +0.000 OA
BRANCH  21  23
ATOM     22  C   UNL     1      -1.692  17.734  18.737  0.00  0.00    +0.000 C 
ATOM     23  C   UNL     1      -0.486  16.986  18.174  0.00  0.00    +0.000 C 
ENDBRANCH  21  23
ENDBRANCH  15  21
ENDBRANCH  11  20
ENDBRANCH   1  12
BRANCH   8  24
ATOM     24  C   UNL     1       2.647   8.544  18.006  0.00  0.00    +0.000 C 
BRANCH  24  25
ATOM     25  C   UNL     1       3.085   7.121  17.837  0.00  0.00    +0.000 A 
ATOM     26  C   UNL     1       2.281   6.082  18.327  0.00  0.00    +0.000 A 
ATOM     27  C   UNL     1       2.675   4.753  18.166  0.00  0.00    +0.000 A 
ATOM     28  C   UNL     1       3.874   4.458  17.520  0.00  0.00    +0.000 A 
ATOM     29  C   UNL     1       4.686   5.486  17.040  0.00  0.00    +0.000 A 
ATOM     30  C   UNL     1       4.294   6.813  17.200  0.00  0.00    +0.000 A 
ENDBRANCH  24  25
ENDBRANCH   8  24
TORSDOF 6
ENDMDL
