MODEL 1
REMARK VINA RESULT:      -6.4      0.000      0.000
REMARK  Name = 
REMARK  11 active torsions:
REMARK  status: ('A' for Active; 'I' for Inactive)
REMARK    1  A    between atoms: C_1  and  C_2
REMARK    2  A    between atoms: C_2  and  C_3
REMARK    3  A    between atoms: C_3  and  C_4
REMARK    4  A    between atoms: C_4  and  N_5
REMARK    5  A    between atoms: N_5  and  C_6
REMARK    6  A    between atoms: N_5  and  C_10
REMARK    7  A    between atoms: C_6  and  C_7
REMARK    8  A    between atoms: C_7  and  C_8
REMARK    9  A    between atoms: C_8  and  C_9
REMARK   10  A    between atoms: C_12  and  C_13
REMARK   11  A    between atoms: C_17  and  O_18
REMARK                            x       y       z     vdW  Elec       q    Type
REMARK                         _______ _______ _______ _____ _____    ______ ____
ROOT
ATOM      1  C   UNL     1       4.503   5.648  17.812  0.00  0.00    +0.000 C 
ATOM      2  C   UNL     1       3.659   6.817  18.251  0.00  0.00    +0.000 C 
ATOM      3  C   UNL     1       2.988   5.582  17.716  0.00  0.00    +0.000 C 
ENDROOT
BRANCH   3   4
ATOM      4  C   UNL     1       2.180   4.662  18.615  0.00  0.00    +0.000 A 
ATOM      5  C   UNL     1       1.953   4.907  19.984  0.00  0.00    +0.000 A 
ATOM      6  C   UNL     1       1.190   4.040  20.774  0.00  0.00    +0.000 A 
ATOM      7  C   UNL     1       0.631   2.894  20.216  0.00  0.00    +0.000 A 
ATOM      8  C   UNL     1       0.846   2.628  18.871  0.00  0.00    +0.000 A 
ATOM      9  C   UNL     1       1.605   3.491  18.085  0.00  0.00    +0.000 A 
BRANCH   8  10
ATOM     10  O   UNL     1       0.322   1.517  18.278  0.00  0.00    +0.000 OA
ATOM     11  H   UNL     1      -0.638   1.523  18.404  0.00  0.00    +0.000 HD
ENDBRANCH   8  10
ENDBRANCH   3   4
BRANCH   1  12
ATOM     12  N   UNL     1       5.324   5.741  16.565  0.00  0.00    +0.000 NA
BRANCH  12  13
ATOM     13  C   UNL     1       6.185   6.946  16.638  0.00  0.00    +0.000 C 
BRANCH  13  14
ATOM     14  C   UNL     1       7.658   6.762  17.037  0.00  0.00    +0.000 C 
BRANCH  14  16
ATOM     15  C   UNL     1       7.852   5.785  19.343  0.00  0.00    +0.000 C 
ATOM     16  C   UNL     1       7.953   7.056  18.508  0.00  0.00    +0.000 C 
ENDBRANCH  14  16
ENDBRANCH  13  14
ENDBRANCH  12  13
BRANCH  12  17
ATOM     17  C   UNL     1       6.140   4.520  16.373  0.00  0.00    +0.000 C 
BRANCH  17  18
ATOM     18  C   UNL     1       5.854   3.708  15.098  0.00  0.00    +0.000 C 
BRANCH  18  19
ATOM     19  C   UNL     1       6.475   4.287  13.826  0.00  0.00    +0.000 C 
ATOM     20  C   UNL     1       6.052   3.481  12.605  0.00  0.00    +0.000 C 
ENDBRANCH  18  19
ENDBRANCH  17  18
ENDBRANCH  12  17
ENDBRANCH   1  12
TORSDOF 9
ENDMDL
MODEL 2
REMARK VINA RESULT:      -6.4      1.799      3.933
REMARK  Name = 
REMARK  11 active torsions:
REMARK  status: ('A' for Active; 'I' for Inactive)
REMARK    1  A    between atoms: C_1  and  C_2
REMARK    2  A    between atoms: C_2  and  C_3
REMARK    3  A    between atoms: C_3  and  C_4
REMARK    4  A    between atoms: C_4  and  N_5
REMARK    5  A    between atoms: N_5  and  C_6
REMARK    6  A    between atoms: N_5  and  C_10
REMARK    7  A    between atoms: C_6  and  C_7
REMARK    8  A    between atoms: C_7  and  C_8
REMARK    9  A    between atoms: C_8  and  C_9
REMARK   10  A    between atoms: C_12  and  C_13
REMARK   11  A    between atoms: C_17  and  O_18
REMARK                            x       y       z     vdW  Elec       q    Type
REMARK                         _______ _______ _______ _____ _____    ______ ____
ROOT
ATOM      1  C   UNL     1       5.161   4.670  17.150  0.00  0.00    +0.000 C 
ATOM      2  C   UNL     1       3.968   4.289  16.310  0.00  0.00    +0.000 C 
ATOM      3  C   UNL     1       4.244   3.539  17.584  0.00  0.00    +0.000 C 
ENDROOT
BRANCH   3   4
ATOM      4  C   UNL     1       3.342   3.676  18.799  0.00  0.00    +0.000 A 
ATOM      5  C   UNL     1       2.265   4.582  18.876  0.00  0.00    +0.000 A 
ATOM      6  C   UNL     1       1.449   4.667  20.010  0.00  0.00    +0.000 A 
ATOM      7  C   UNL     1       1.690   3.846  21.107  0.00  0.00    +0.000 A 
ATOM      8  C   UNL     1       2.749   2.950  21.057  0.00  0.00    +0.000 A 
ATOM      9  C   UNL     1       3.560   2.866  19.929  0.00  0.00    +0.000 A 
BRANCH   8  10
ATOM     10  O   UNL     1       3.027   2.126  22.108  0.00  0.00    +0.000 OA
ATOM     11  H   UNL     1       2.477   1.332  22.033  0.00  0.00    +0.000 HD
ENDBRANCH   8  10
ENDBRANCH   3   4
BRANCH   1  12
ATOM     12  N   UNL     1       6.544   4.364  16.673  0.00  0.00    +0.000 NA
BRANCH  12  13
ATOM     13  C   UNL     1       6.811   5.129  15.430  0.00  0.00    +0.000 C 
BRANCH  13  14
ATOM     14  C   UNL     1       7.012   4.344  14.124  0.00  0.00    +0.000 C 
BRANCH  14  16
ATOM     15  C   UNL     1       5.994   3.242  12.108  0.00  0.00    +0.000 C 
ATOM     16  C   UNL     1       5.715   3.865  13.471  0.00  0.00    +0.000 C 
ENDBRANCH  14  16
ENDBRANCH  13  14
ENDBRANCH  12  13
BRANCH  12  17
ATOM     17  C   UNL     1       7.549   4.682  17.714  0.00  0.00    +0.000 C 
BRANCH  17  18
ATOM     18  C   UNL     1       7.198   5.844  18.660  0.00  0.00    +0.000 C 
BRANCH  18  19
ATOM     19  C   UNL     1       8.144   7.041  18.570  0.00  0.00    +0.000 C 
ATOM     20  C   UNL     1       7.629   8.062  17.563  0.00  0.00    +0.000 C 
ENDBRANCH  18  19
ENDBRANCH  17  18
ENDBRANCH  12  17
ENDBRANCH   1  12
TORSDOF 9
ENDMDL
MODEL 3
REMARK VINA RESULT:      -6.4      2.803      6.508
REMARK  Name = 
REMARK  11 active torsions:
REMARK  status: ('A' for Active; 'I' for Inactive)
REMARK    1  A    between atoms: C_1  and  C_2
REMARK    2  A    between atoms: C_2  and  C_3
REMARK    3  A    between atoms: C_3  and  C_4
REMARK    4  A    between atoms: C_4  and  N_5
REMARK    5  A    between atoms: N_5  and  C_6
REMARK    6  A    between atoms: N_5  and  C_10
REMARK    7  A    between atoms: C_6  and  C_7
REMARK    8  A    between atoms: C_7  and  C_8
REMARK    9  A    between atoms: C_8  and  C_9
REMARK   10  A    between atoms: C_12  and  C_13
REMARK   11  A    between atoms: C_17  and  O_18
REMARK                            x       y       z     vdW  Elec       q    Type
REMARK                         _______ _______ _______ _____ _____    ______ ____
ROOT
ATOM      1  C   UNL     1       5.554   4.439  17.357  0.00  0.00    +0.000 C 
ATOM      2  C   UNL     1       4.420   3.614  16.804  0.00  0.00    +0.000 C 
ATOM      3  C   UNL     1       4.946   4.774  16.005  0.00  0.00    +0.000 C 
ENDROOT
BRANCH   3   4
ATOM      4  C   UNL     1       5.724   4.566  14.717  0.00  0.00    +0.000 A 
ATOM      5  C   UNL     1       5.311   3.700  13.685  0.00  0.00    +0.000 A 
ATOM      6  C   UNL     1       6.051   3.548  12.507  0.00  0.00    +0.000 A 
ATOM      7  C   UNL     1       7.234   4.258  12.328  0.00  0.00    +0.000 A 
ATOM      8  C   UNL     1       7.665   5.112  13.333  0.00  0.00    +0.000 A 
ATOM      9  C   UNL     1       6.928   5.264  14.505  0.00  0.00    +0.000 A 
BRANCH   8  10
ATOM     10  O   UNL     1       8.819   5.829  13.206  0.00  0.00    +0.000 OA
ATOM     11  H   UNL     1       8.595   6.771  13.163  0.00  0.00    +0.000 HD
ENDBRANCH   8  10
ENDBRANCH   3   4
BRANCH   1  12
ATOM     12  N   UNL     1       5.322   5.348  18.522  0.00  0.00    +0.000 NA
BRANCH  12  13
ATOM     13  C   UNL     1       4.357   4.712  19.451  0.00  0.00    +0.000 C 
BRANCH  13  14
ATOM     14  C   UNL     1       3.048   5.457  19.760  0.00  0.00    +0.000 C 
BRANCH  14  16
ATOM     15  C   UNL     1       1.316   3.738  19.165  0.00  0.00    +0.000 C 
ATOM     16  C   UNL     1       1.926   4.565  20.290  0.00  0.00    +0.000 C 
ENDBRANCH  14  16
ENDBRANCH  13  14
ENDBRANCH  12  13
BRANCH  12  17
ATOM     17  C   UNL     1       6.593   5.660  19.214  0.00  0.00    +0.000 C 
BRANCH  17  18
ATOM     18  C   UNL     1       7.758   6.118  18.318  0.00  0.00    +0.000 C 
BRANCH  18  19
ATOM     19  C   UNL     1       7.472   7.381  17.505  0.00  0.00    +0.000 C 
ATOM     20  C   UNL     1       8.212   8.577  18.089  0.00  0.00    +0.000 C 
ENDBRANCH  18  19
ENDBRANCH  17  18
ENDBRANCH  12  17
ENDBRANCH   1  12
TORSDOF 9
ENDMDL
MODEL 4
REMARK VINA RESULT:      -6.4      1.584      2.064
REMARK  Name = 
REMARK  11 active torsions:
REMARK  status: ('A' for Active; 'I' for Inactive)
REMARK    1  A    between atoms: C_1  and  C_2
REMARK    2  A    between atoms: C_2  and  C_3
REMARK    3  A    between atoms: C_3  and  C_4
REMARK    4  A    between atoms: C_4  and  N_5
REMARK    5  A    between atoms: N_5  and  C_6
REMARK    6  A    between atoms: N_5  and  C_10
REMARK    7  A    between atoms: C_6  and  C_7
REMARK    8  A    between atoms: C_7  and  C_8
REMARK    9  A    between atoms: C_8  and  C_9
REMARK   10  A    between atoms: C_12  and  C_13
REMARK   11  A    between atoms: C_17  and  O_18
REMARK                            x       y       z     vdW  Elec       q    Type
REMARK                         _______ _______ _______ _____ _____    ______ ____
ROOT
ATOM      1  C   UNL     1       4.889   6.084  18.035  0.00  0.00    +0.000 C 
ATOM      2  C   UNL     1       3.557   6.786  17.967  0.00  0.00    +0.000 C 
ATOM      3  C   UNL     1       3.728   5.458  17.281  0.00  0.00    +0.000 C 
ENDROOT
BRANCH   3   4
ATOM      4  C   UNL     1       3.040   4.204  17.792  0.00  0.00    +0.000 A 
ATOM      5  C   UNL     1       1.688   4.158  18.187  0.00  0.00    +0.000 A 
ATOM      6  C   UNL     1       1.089   2.977  18.638  0.00  0.00    +0.000 A 
ATOM      7  C   UNL     1       1.830   1.802  18.714  0.00  0.00    +0.000 A 
ATOM      8  C   UNL     1       3.164   1.823  18.337  0.00  0.00    +0.000 A 
ATOM      9  C   UNL     1       3.761   2.998  17.887  0.00  0.00    +0.000 A 
BRANCH   8  10
ATOM     10  O   UNL     1       3.934   0.698  18.395  0.00  0.00    +0.000 OA
ATOM     11  H   UNL     1       3.887   0.247  17.538  0.00  0.00    +0.000 HD
ENDBRANCH   8  10
ENDBRANCH   3   4
BRANCH   1  12
ATOM     12  N   UNL     1       6.061   6.624  17.279  0.00  0.00    +0.000 NA
BRANCH  12  13
ATOM     13  C   UNL     1       7.308   6.285  18.007  0.00  0.00    +0.000 C 
BRANCH  13  14
ATOM     14  C   UNL     1       8.226   7.436  18.451  0.00  0.00    +0.000 C 
BRANCH  14  16
ATOM     15  C   UNL     1       8.755   9.891  18.398  0.00  0.00    +0.000 C 
ATOM     16  C   UNL     1       7.939   8.771  17.763  0.00  0.00    +0.000 C 
ENDBRANCH  14  16
ENDBRANCH  13  14
ENDBRANCH  12  13
BRANCH  12  17
ATOM     17  C   UNL     1       6.095   6.091  15.898  0.00  0.00    +0.000 C 
BRANCH  17  18
ATOM     18  C   UNL     1       6.908   4.801  15.690  0.00  0.00    +0.000 C 
BRANCH  18  19
ATOM     19  C   UNL     1       6.122   3.653  15.055  0.00  0.00    +0.000 C 
ATOM     20  C   UNL     1       5.994   3.855  13.551  0.00  0.00    +0.000 C 
ENDBRANCH  18  19
ENDBRANCH  17  18
ENDBRANCH  12  17
ENDBRANCH   1  12
TORSDOF 9
ENDMDL
MODEL 5
REMARK VINA RESULT:      -6.3      0.973      1.391
REMARK  Name = 
REMARK  11 active torsions:
REMARK  status: ('A' for Active; 'I' for Inactive)
REMARK    1  A    between atoms: C_1  and  C_2
REMARK    2  A    between atoms: C_2  and  C_3
REMARK    3  A    between atoms: C_3  and  C_4
REMARK    4  A    between atoms: C_4  and  N_5
REMARK    5  A    between atoms: N_5  and  C_6
REMARK    6  A    between atoms: N_5  and  C_10
REMARK    7  A    between atoms: C_6  and  C_7
REMARK    8  A    between atoms: C_7  and  C_8
REMARK    9  A    between atoms: C_8  and  C_9
REMARK   10  A    between atoms: C_12  and  C_13
REMARK   11  A    between atoms: C_17  and  O_18
REMARK                            x       y       z     vdW  Elec       q    Type
REMARK                         _______ _______ _______ _____ _____    ______ ____
ROOT
ATOM      1  C   UNL     1       4.893   5.956  18.205  0.00  0.00    +0.000 C 
ATOM      2  C   UNL     1       3.822   6.642  17.397  0.00  0.00    +0.000 C 
ATOM      3  C   UNL     1       3.736   5.159  17.629  0.00  0.00    +0.000 C 
ENDROOT
BRANCH   3   4
ATOM      4  C   UNL     1       2.670   4.555  18.527  0.00  0.00    +0.000 A 
ATOM      5  C   UNL     1       2.339   5.062  19.800  0.00  0.00    +0.000 A 
ATOM      6  C   UNL     1       1.339   4.483  20.589  0.00  0.00    +0.000 A 
ATOM      7  C   UNL     1       0.640   3.371  20.129  0.00  0.00    +0.000 A 
ATOM      8  C   UNL     1       0.952   2.850  18.882  0.00  0.00    +0.000 A 
ATOM      9  C   UNL     1       1.946   3.426  18.095  0.00  0.00    +0.000 A 
BRANCH   8  10
ATOM     10  O   UNL     1       0.297   1.760  18.386  0.00  0.00    +0.000 OA
ATOM     11  H   UNL     1      -0.655   1.940  18.398  0.00  0.00    +0.000 HD
ENDBRANCH   8  10
ENDBRANCH   3   4
BRANCH   1  12
ATOM     12  N   UNL     1       6.267   5.786  17.640  0.00  0.00    +0.000 NA
BRANCH  12  13
ATOM     13  C   UNL     1       7.264   5.931  18.729  0.00  0.00    +0.000 C 
BRANCH  13  14
ATOM     14  C   UNL     1       8.258   7.101  18.651  0.00  0.00    +0.000 C 
BRANCH  14  16
ATOM     15  C   UNL     1       8.410   9.554  18.127  0.00  0.00    +0.000 C 
ATOM     16  C   UNL     1       7.854   8.208  17.677  0.00  0.00    +0.000 C 
ENDBRANCH  14  16
ENDBRANCH  13  14
ENDBRANCH  12  13
BRANCH  12  17
ATOM     17  C   UNL     1       6.408   4.473  16.969  0.00  0.00    +0.000 C 
BRANCH  17  18
ATOM     18  C   UNL     1       6.890   4.508  15.508  0.00  0.00    +0.000 C 
BRANCH  18  19
ATOM     19  C   UNL     1       5.772   4.659  14.476  0.00  0.00    +0.000 C 
ATOM     20  C   UNL     1       6.021   3.756  13.275  0.00  0.00    +0.000 C 
ENDBRANCH  18  19
ENDBRANCH  17  18
ENDBRANCH  12  17
ENDBRANCH   1  12
TORSDOF 9
ENDMDL
MODEL 6
REMARK VINA RESULT:      -6.3      1.442      4.139
REMARK  Name = 
REMARK  11 active torsions:
REMARK  status: ('A' for Active; 'I' for Inactive)
REMARK    1  A    between atoms: C_1  and  C_2
REMARK    2  A    between atoms: C_2  and  C_3
REMARK    3  A    between atoms: C_3  and  C_4
REMARK    4  A    between atoms: C_4  and  N_5
REMARK    5  A    between atoms: N_5  and  C_6
REMARK    6  A    between atoms: N_5  and  C_10
REMARK    7  A    between atoms: C_6  and  C_7
REMARK    8  A    between atoms: C_7  and  C_8
REMARK    9  A    between atoms: C_8  and  C_9
REMARK   10  A    between atoms: C_12  and  C_13
REMARK   11  A    between atoms: C_17  and  O_18
REMARK                            x       y       z     vdW  Elec       q    Type
REMARK                         _______ _______ _______ _____ _____    ______ ____
ROOT
ATOM      1  C   UNL     1       4.907   4.380  16.702  0.00  0.00    +0.000 C 
ATOM      2  C   UNL     1       4.265   3.022  16.831  0.00  0.00    +0.000 C 
ATOM      3  C   UNL     1       4.609   3.797  18.073  0.00  0.00    +0.000 C 
ENDROOT
BRANCH   3   4
ATOM      4  C   UNL     1       3.532   4.390  18.965  0.00  0.00    +0.000 A 
ATOM      5  C   UNL     1       3.448   5.760  19.286  0.00  0.00    +0.000 A 
ATOM      6  C   UNL     1       2.430   6.267  20.101  0.00  0.00    +0.000 A 
ATOM      7  C   UNL     1       1.464   5.414  20.626  0.00  0.00    +0.000 A 
ATOM      8  C   UNL     1       1.530   4.061  20.330  0.00  0.00    +0.000 A 
ATOM      9  C   UNL     1       2.542   3.556  19.518  0.00  0.00    +0.000 A 
BRANCH   8  10
ATOM     10  O   UNL     1       0.608   3.183  20.822  0.00  0.00    +0.000 OA
ATOM     11  H   UNL     1       0.081   2.842  20.084  0.00  0.00    +0.000 HD
ENDBRANCH   8  10
ENDBRANCH   3   4
BRANCH   1  12
ATOM     12  N   UNL     1       6.323   4.499  16.236  0.00  0.00    +0.000 NA
BRANCH  12  13
ATOM     13  C   UNL     1       6.480   3.759  14.960  0.00  0.00    +0.000 C 
BRANCH  13  14
ATOM     14  C   UNL     1       5.644   4.210  13.752  0.00  0.00    +0.000 C 
BRANCH  14  16
ATOM     15  C   UNL     1       4.574   3.220  11.705  0.00  0.00    +0.000 C 
ATOM     16  C   UNL     1       5.874   3.386  12.485  0.00  0.00    +0.000 C 
ENDBRANCH  14  16
ENDBRANCH  13  14
ENDBRANCH  12  13
BRANCH  12  17
ATOM     17  C   UNL     1       6.711   5.919  16.073  0.00  0.00    +0.000 C 
BRANCH  17  18
ATOM     18  C   UNL     1       6.529   6.817  17.309  0.00  0.00    +0.000 C 
BRANCH  18  19
ATOM     19  C   UNL     1       7.743   6.869  18.238  0.00  0.00    +0.000 C 
ATOM     20  C   UNL     1       7.737   5.689  19.200  0.00  0.00    +0.000 C 
ENDBRANCH  18  19
ENDBRANCH  17  18
ENDBRANCH  12  17
ENDBRANCH   1  12
TORSDOF 9
ENDMDL
MODEL 7
REMARK VINA RESULT:      -6.2      1.921      4.318
REMARK  Name = 
REMARK  11 active torsions:
REMARK  status: ('A' for Active; 'I' for Inactive)
REMARK    1  A    between atoms: C_1  and  C_2
REMARK    2  A    between atoms: C_2  and  C_3
REMARK    3  A    between atoms: C_3  and  C_4
REMARK    4  A    between atoms: C_4  and  N_5
REMARK    5  A    between atoms: N_5  and  C_6
REMARK    6  A    between atoms: N_5  and  C_10
REMARK    7  A    between atoms: C_6  and  C_7
REMARK    8  A    between atoms: C_7  and  C_8
REMARK    9  A    between atoms: C_8  and  C_9
REMARK   10  A    between atoms: C_12  and  C_13
REMARK   11  A    between atoms: C_17  and  O_18
REMARK                            x       y       z     vdW  Elec       q    Type
REMARK                         _______ _______ _______ _____ _____    ______ ____
ROOT
ATOM      1  C   UNL     1       4.517   4.009  16.794  0.00  0.00    +0.000 C 
ATOM      2  C   UNL     1       4.395   2.578  17.251  0.00  0.00    +0.000 C 
ATOM      3  C   UNL     1       4.430   3.679  18.274  0.00  0.00    +0.000 C 
ENDROOT
BRANCH   3   4
ATOM      4  C   UNL     1       3.204   4.043  19.093  0.00  0.00    +0.000 A 
ATOM      5  C   UNL     1       2.127   3.164  19.324  0.00  0.00    +0.000 A 
ATOM      6  C   UNL     1       1.021   3.535  20.097  0.00  0.00    +0.000 A 
ATOM      7  C   UNL     1       0.957   4.805  20.661  0.00  0.00    +0.000 A 
ATOM      8  C   UNL     1       2.002   5.691  20.443  0.00  0.00    +0.000 A 
ATOM      9  C   UNL     1       3.103   5.321  19.674  0.00  0.00    +0.000 A 
BRANCH   8  10
ATOM     10  O   UNL     1       1.986   6.948  20.973  0.00  0.00    +0.000 OA
ATOM     11  H   UNL     1       1.684   7.567  20.291  0.00  0.00    +0.000 HD
ENDBRANCH   8  10
ENDBRANCH   3   4
BRANCH   1  12
ATOM     12  N   UNL     1       5.804   4.506  16.217  0.00  0.00    +0.000 NA
BRANCH  12  13
ATOM     13  C   UNL     1       6.120   3.733  14.991  0.00  0.00    +0.000 C 
BRANCH  13  14
ATOM     14  C   UNL     1       5.649   4.293  13.639  0.00  0.00    +0.000 C 
BRANCH  14  16
ATOM     15  C   UNL     1       4.583   3.239  11.622  0.00  0.00    +0.000 C 
ATOM     16  C   UNL     1       5.854   3.343  12.458  0.00  0.00    +0.000 C 
ENDBRANCH  14  16
ENDBRANCH  13  14
ENDBRANCH  12  13
BRANCH  12  17
ATOM     17  C   UNL     1       5.730   5.955  15.921  0.00  0.00    +0.000 C 
BRANCH  17  18
ATOM     18  C   UNL     1       6.055   6.902  17.090  0.00  0.00    +0.000 C 
BRANCH  18  19
ATOM     19  C   UNL     1       7.478   6.770  17.634  0.00  0.00    +0.000 C 
ATOM     20  C   UNL     1       7.493   5.938  18.910  0.00  0.00    +0.000 C 
ENDBRANCH  18  19
ENDBRANCH  17  18
ENDBRANCH  12  17
ENDBRANCH   1  12
TORSDOF 9
ENDMDL
MODEL 8
REMARK VINA RESULT:      -6.2      1.499      2.142
REMARK  Name = 
REMARK  11 active torsions:
REMARK  status: ('A' for Active; 'I' for Inactive)
REMARK    1  A    between atoms: C_1  and  C_2
REMARK    2  A    between atoms: C_2  and  C_3
REMARK    3  A    between atoms: C_3  and  C_4
REMARK    4  A    between atoms: C_4  and  N_5
REMARK    5  A    between atoms: N_5  and  C_6
REMARK    6  A    between atoms: N_5  and  C_10
REMARK    7  A    between atoms: C_6  and  C_7
REMARK    8  A    between atoms: C_7  and  C_8
REMARK    9  A    between atoms: C_8  and  C_9
REMARK   10  A    between atoms: C_12  and  C_13
REMARK   11  A    between atoms: C_17  and  O_18
REMARK                            x       y       z     vdW  Elec       q    Type
REMARK                         _______ _______ _______ _____ _____    ______ ____
ROOT
ATOM      1  C   UNL     1       5.444   5.123  17.817  0.00  0.00    +0.000 C 
ATOM      2  C   UNL     1       5.603   5.098  19.316  0.00  0.00    +0.000 C 
ATOM      3  C   UNL     1       4.235   5.287  18.722  0.00  0.00    +0.000 C 
ENDROOT
BRANCH   3   4
ATOM      4  C   UNL     1       3.170   4.209  18.819  0.00  0.00    +0.000 A 
ATOM      5  C   UNL     1       2.796   3.379  17.742  0.00  0.00    +0.000 A 
ATOM      6  C   UNL     1       1.819   2.387  17.878  0.00  0.00    +0.000 A 
ATOM      7  C   UNL     1       1.179   2.197  19.100  0.00  0.00    +0.000 A 
ATOM      8  C   UNL     1       1.525   3.006  20.172  0.00  0.00    +0.000 A 
ATOM      9  C   UNL     1       2.499   3.993  20.037  0.00  0.00    +0.000 A 
BRANCH   8  10
ATOM     10  O   UNL     1       0.926   2.861  21.389  0.00  0.00    +0.000 OA
ATOM     11  H   UNL     1       1.373   3.440  22.025  0.00  0.00    +0.000 HD
ENDBRANCH   8  10
ENDBRANCH   3   4
BRANCH   1  12
ATOM     12  N   UNL     1       5.946   6.290  17.029  0.00  0.00    +0.000 NA
BRANCH  12  13
ATOM     13  C   UNL     1       7.416   6.396  17.196  0.00  0.00    +0.000 C 
BRANCH  13  14
ATOM     14  C   UNL     1       7.961   7.443  18.181  0.00  0.00    +0.000 C 
BRANCH  14  16
ATOM     15  C   UNL     1       8.811   9.789  18.476  0.00  0.00    +0.000 C 
ATOM     16  C   UNL     1       7.884   8.883  17.673  0.00  0.00    +0.000 C 
ENDBRANCH  14  16
ENDBRANCH  13  14
ENDBRANCH  12  13
BRANCH  12  17
ATOM     17  C   UNL     1       5.587   6.159  15.598  0.00  0.00    +0.000 C 
BRANCH  17  18
ATOM     18  C   UNL     1       6.362   5.096  14.800  0.00  0.00    +0.000 C 
BRANCH  18  19
ATOM     19  C   UNL     1       5.479   4.079  14.076  0.00  0.00    +0.000 C 
ATOM     20  C   UNL     1       6.166   3.568  12.816  0.00  0.00    +0.000 C 
ENDBRANCH  18  19
ENDBRANCH  17  18
ENDBRANCH  12  17
ENDBRANCH   1  12
TORSDOF 9
ENDMDL
MODEL 9
REMARK VINA RESULT:      -6.2      2.918      6.352
REMARK  Name = 
REMARK  11 active torsions:
REMARK  status: ('A' for Active; 'I' for Inactive)
REMARK    1  A    between atoms: C_1  and  C_2
REMARK    2  A    between atoms: C_2  and  C_3
REMARK    3  A    between atoms: C_3  and  C_4
REMARK    4  A    between atoms: C_4  and  N_5
REMARK    5  A    between atoms: N_5  and  C_6
REMARK    6  A    between atoms: N_5  and  C_10
REMARK    7  A    between atoms: C_6  and  C_7
REMARK    8  A    between atoms: C_7  and  C_8
REMARK    9  A    between atoms: C_8  and  C_9
REMARK   10  A    between atoms: C_12  and  C_13
REMARK   11  A    between atoms: C_17  and  O_18
REMARK                            x       y       z     vdW  Elec       q    Type
REMARK                         _______ _______ _______ _____ _____    ______ ____
ROOT
ATOM      1  C   UNL     1       3.572   4.005  18.288  0.00  0.00    +0.000 C 
ATOM      2  C   UNL     1       4.554   2.913  17.951  0.00  0.00    +0.000 C 
ATOM      3  C   UNL     1       4.734   4.278  17.348  0.00  0.00    +0.000 C 
ENDROOT
BRANCH   3   4
ATOM      4  C   UNL     1       5.884   5.183  17.757  0.00  0.00    +0.000 A 
ATOM      5  C   UNL     1       6.320   6.286  16.995  0.00  0.00    +0.000 A 
ATOM      6  C   UNL     1       7.375   7.104  17.415  0.00  0.00    +0.000 A 
ATOM      7  C   UNL     1       8.031   6.838  18.613  0.00  0.00    +0.000 A 
ATOM      8  C   UNL     1       7.624   5.755  19.377  0.00  0.00    +0.000 A 
ATOM      9  C   UNL     1       6.573   4.941  18.960  0.00  0.00    +0.000 A 
BRANCH   8  10
ATOM     10  O   UNL     1       8.236   5.452  20.558  0.00  0.00    +0.000 OA
ATOM     11  H   UNL     1       7.691   4.806  21.033  0.00  0.00    +0.000 HD
ENDBRANCH   8  10
ENDBRANCH   3   4
BRANCH   1  12
ATOM     12  N   UNL     1       2.178   3.953  17.751  0.00  0.00    +0.000 NA
BRANCH  12  13
ATOM     13  C   UNL     1       1.460   2.812  18.369  0.00  0.00    +0.000 C 
BRANCH  13  14
ATOM     14  C   UNL     1       0.766   3.038  19.722  0.00  0.00    +0.000 C 
BRANCH  14  16
ATOM     15  C   UNL     1       2.227   3.745  21.639  0.00  0.00    +0.000 C 
ATOM     16  C   UNL     1       1.573   2.565  20.931  0.00  0.00    +0.000 C 
ENDBRANCH  14  16
ENDBRANCH  13  14
ENDBRANCH  12  13
BRANCH  12  17
ATOM     17  C   UNL     1       1.462   5.225  18.004  0.00  0.00    +0.000 C 
BRANCH  17  18
ATOM     18  C   UNL     1       2.230   6.284  18.815  0.00  0.00    +0.000 C 
BRANCH  18  19
ATOM     19  C   UNL     1       2.028   7.720  18.332  0.00  0.00    +0.000 C 
ATOM     20  C   UNL     1       3.247   8.205  17.557  0.00  0.00    +0.000 C 
ENDBRANCH  18  19
ENDBRANCH  17  18
ENDBRANCH  12  17
ENDBRANCH   1  12
TORSDOF 9
ENDMDL
