MODEL 1
REMARK VINA RESULT:      -8.5      0.000      0.000
REMARK  Name = 
REMARK  4 active torsions:
REMARK  status: ('A' for Active; 'I' for Inactive)
REMARK    1  A    between atoms: C_1  and  O_2
REMARK    2  A    between atoms: O_2  and  C_3
REMARK    3  A    between atoms: C_8  and  C_9
REMARK    4  A    between atoms: C_17  and  N_18
REMARK                            x       y       z     vdW  Elec       q    Type
REMARK                         _______ _______ _______ _____ _____    ______ ____
ROOT
ATOM      1  C   UNL     1       1.779   8.064  19.655  0.00  0.00    +0.000 A 
ATOM      2  C   UNL     1       2.260   8.505  18.417  0.00  0.00    +0.000 A 
ATOM      3  C   UNL     1       3.103   7.707  17.630  0.00  0.00    +0.000 A 
ATOM      4  C   UNL     1       3.494   6.410  18.039  0.00  0.00    +0.000 A 
ATOM      5  C   UNL     1       4.382   5.583  17.321  0.00  0.00    +0.000 A 
ATOM      6 CL   UNL     1       5.148   6.078  15.852  0.00  0.00    +0.000 Cl
ATOM      7  C   UNL     1       4.684   4.323  17.823  0.00  0.00    +0.000 A 
ATOM      8  N   UNL     1       4.173   3.813  18.964  0.00  0.00    +0.000 NA
ATOM      9  C   UNL     1       3.328   4.614  19.662  0.00  0.00    +0.000 A 
ATOM     10  C   UNL     1       2.966   5.917  19.251  0.00  0.00    +0.000 A 
ATOM     11  C   UNL     1       2.127   6.751  20.026  0.00  0.00    +0.000 A 
ENDROOT
BRANCH   9  12
ATOM     12  N   UNL     1       2.770   4.082  20.841  0.00  0.00    +0.000 NA
ATOM     13  C   UNL     1       2.043   3.018  20.830  0.00  0.00    +0.000 C 
ATOM     14  N   UNL     1       1.675   2.255  19.773  0.00  0.00    +0.000 N 
ATOM     15  N   UNL     1       1.601   2.502  21.998  0.00  0.00    +0.000 N 
ATOM     16  H   UNL     1       1.848   2.763  18.904  0.00  0.00    +0.000 HD
ATOM     17  H   UNL     1       0.722   1.922  19.799  0.00  0.00    +0.000 HD
ATOM     18  H   UNL     1       1.704   3.141  22.776  0.00  0.00    +0.000 HD
ATOM     19  H   UNL     1       0.737   1.983  21.992  0.00  0.00    +0.000 HD
ENDBRANCH   9  12
BRANCH   1  25
ATOM     20  C   UNL     1       0.121   9.966  20.109  0.00  0.00    +0.000 A 
ATOM     21  C   UNL     1      -0.600  10.750  21.025  0.00  0.00    +0.000 A 
ATOM     22  C   UNL     1      -0.453  10.560  22.398  0.00  0.00    +0.000 A 
ATOM     23  C   UNL     1       0.389   9.563  22.866  0.00  0.00    +0.000 A 
ATOM     24  C   UNL     1       1.068   8.745  21.961  0.00  0.00    +0.000 A 
ATOM     25  C   UNL     1       0.963   8.921  20.562  0.00  0.00    +0.000 A 
BRANCH  20  27
ATOM     26  C   UNL     1      -1.299  10.263  18.228  0.00  0.00    +0.000 C 
ATOM     27  O   UNL     1       0.023  10.175  18.752  0.00  0.00    +0.000 OA
ENDBRANCH  20  27
ENDBRANCH   1  25
TORSDOF 3
ENDMDL
MODEL 2
REMARK VINA RESULT:      -8.2      4.007      5.902
REMARK  Name = 
REMARK  4 active torsions:
REMARK  status: ('A' for Active; 'I' for Inactive)
REMARK    1  A    between atoms: C_1  and  O_2
REMARK    2  A    between atoms: O_2  and  C_3
REMARK    3  A    between atoms: C_8  and  C_9
REMARK    4  A    between atoms: C_17  and  N_18
REMARK                            x       y       z     vdW  Elec       q    Type
REMARK                         _______ _______ _______ _____ _____    ______ ____
ROOT
ATOM      1  C   UNL     1       3.871   3.715  17.960  0.00  0.00    +0.000 A 
ATOM      2  C   UNL     1       3.321   3.179  16.790  0.00  0.00    +0.000 A 
ATOM      3  C   UNL     1       3.952   3.329  15.546  0.00  0.00    +0.000 A 
ATOM      4  C   UNL     1       5.184   4.012  15.415  0.00  0.00    +0.000 A 
ATOM      5  C   UNL     1       5.839   4.244  14.188  0.00  0.00    +0.000 A 
ATOM      6 CL   UNL     1       5.184   3.752  12.665  0.00  0.00    +0.000 Cl
ATOM      7  C   UNL     1       7.051   4.922  14.189  0.00  0.00    +0.000 A 
ATOM      8  N   UNL     1       7.672   5.376  15.300  0.00  0.00    +0.000 NA
ATOM      9  C   UNL     1       7.035   5.165  16.480  0.00  0.00    +0.000 A 
ATOM     10  C   UNL     1       5.792   4.501  16.590  0.00  0.00    +0.000 A 
ATOM     11  C   UNL     1       5.125   4.343  17.828  0.00  0.00    +0.000 A 
ENDROOT
BRANCH   9  12
ATOM     12  N   UNL     1       7.685   5.613  17.646  0.00  0.00    +0.000 NA
ATOM     13  C   UNL     1       7.838   6.868  17.899  0.00  0.00    +0.000 C 
ATOM     14  N   UNL     1       7.456   7.935  17.156  0.00  0.00    +0.000 N 
ATOM     15  N   UNL     1       8.393   7.246  19.072  0.00  0.00    +0.000 N 
ATOM     16  H   UNL     1       7.226   7.630  16.209  0.00  0.00    +0.000 HD
ATOM     17  H   UNL     1       8.122   8.693  17.128  0.00  0.00    +0.000 HD
ATOM     18  H   UNL     1       8.847   6.485  19.558  0.00  0.00    +0.000 HD
ATOM     19  H   UNL     1       8.894   8.121  19.099  0.00  0.00    +0.000 HD
ENDBRANCH   9  12
BRANCH   1  25
ATOM     20  C   UNL     1       2.322   4.682  19.760  0.00  0.00    +0.000 A 
ATOM     21  C   UNL     1       1.726   4.574  21.028  0.00  0.00    +0.000 A 
ATOM     22  C   UNL     1       2.017   3.500  21.865  0.00  0.00    +0.000 A 
ATOM     23  C   UNL     1       2.880   2.505  21.430  0.00  0.00    +0.000 A 
ATOM     24  C   UNL     1       3.435   2.577  20.151  0.00  0.00    +0.000 A 
ATOM     25  C   UNL     1       3.182   3.662  19.280  0.00  0.00    +0.000 A 
BRANCH  20  27
ATOM     26  C   UNL     1       2.522   7.025  19.432  0.00  0.00    +0.000 C 
ATOM     27  O   UNL     1       2.082   5.762  18.943  0.00  0.00    +0.000 OA
ENDBRANCH  20  27
ENDBRANCH   1  25
TORSDOF 3
ENDMDL
MODEL 3
REMARK VINA RESULT:      -8.1      5.164      6.599
REMARK  Name = 
REMARK  4 active torsions:
REMARK  status: ('A' for Active; 'I' for Inactive)
REMARK    1  A    between atoms: C_1  and  O_2
REMARK    2  A    between atoms: O_2  and  C_3
REMARK    3  A    between atoms: C_8  and  C_9
REMARK    4  A    between atoms: C_17  and  N_18
REMARK                            x       y       z     vdW  Elec       q    Type
REMARK                         _______ _______ _______ _____ _____    ______ ____
ROOT
ATOM      1  C   UNL     1       3.824   3.593  17.951  0.00  0.00    +0.000 A 
ATOM      2  C   UNL     1       3.284   3.081  16.766  0.00  0.00    +0.000 A 
ATOM      3  C   UNL     1       3.914   3.275  15.528  0.00  0.00    +0.000 A 
ATOM      4  C   UNL     1       5.136   3.979  15.417  0.00  0.00    +0.000 A 
ATOM      5  C   UNL     1       5.788   4.254  14.199  0.00  0.00    +0.000 A 
ATOM      6 CL   UNL     1       5.143   3.795  12.662  0.00  0.00    +0.000 Cl
ATOM      7  C   UNL     1       6.990   4.951  14.220  0.00  0.00    +0.000 A 
ATOM      8  N   UNL     1       7.602   5.383  15.344  0.00  0.00    +0.000 NA
ATOM      9  C   UNL     1       6.968   5.130  16.517  0.00  0.00    +0.000 A 
ATOM     10  C   UNL     1       5.734   4.444  16.607  0.00  0.00    +0.000 A 
ATOM     11  C   UNL     1       5.068   4.243  17.838  0.00  0.00    +0.000 A 
ENDROOT
BRANCH   9  12
ATOM     12  N   UNL     1       7.609   5.556  17.696  0.00  0.00    +0.000 NA
ATOM     13  C   UNL     1       7.827   6.803  17.938  0.00  0.00    +0.000 C 
ATOM     14  N   UNL     1       7.531   7.880  17.172  0.00  0.00    +0.000 N 
ATOM     15  N   UNL     1       8.370   7.165  19.122  0.00  0.00    +0.000 N 
ATOM     16  H   UNL     1       7.310   7.576  16.222  0.00  0.00    +0.000 HD
ATOM     17  H   UNL     1       8.240   8.598  17.154  0.00  0.00    +0.000 HD
ATOM     18  H   UNL     1       8.765   6.385  19.631  0.00  0.00    +0.000 HD
ATOM     19  H   UNL     1       8.920   8.009  19.154  0.00  0.00    +0.000 HD
ENDBRANCH   9  12
BRANCH   1  25
ATOM     20  C   UNL     1       3.609   2.707  20.347  0.00  0.00    +0.000 A 
ATOM     21  C   UNL     1       2.890   2.643  21.553  0.00  0.00    +0.000 A 
ATOM     22  C   UNL     1       1.666   3.294  21.691  0.00  0.00    +0.000 A 
ATOM     23  C   UNL     1       1.165   4.044  20.638  0.00  0.00    +0.000 A 
ATOM     24  C   UNL     1       1.899   4.157  19.456  0.00  0.00    +0.000 A 
ATOM     25  C   UNL     1       3.134   3.493  19.268  0.00  0.00    +0.000 A 
BRANCH  20  27
ATOM     26  C   UNL     1       5.148   1.124  21.222  0.00  0.00    +0.000 C 
ATOM     27  O   UNL     1       4.794   2.030  20.180  0.00  0.00    +0.000 OA
ENDBRANCH  20  27
ENDBRANCH   1  25
TORSDOF 3
ENDMDL
MODEL 4
REMARK VINA RESULT:      -7.9      3.702      7.089
REMARK  Name = 
REMARK  4 active torsions:
REMARK  status: ('A' for Active; 'I' for Inactive)
REMARK    1  A    between atoms: C_1  and  O_2
REMARK    2  A    between atoms: O_2  and  C_3
REMARK    3  A    between atoms: C_8  and  C_9
REMARK    4  A    between atoms: C_17  and  N_18
REMARK                            x       y       z     vdW  Elec       q    Type
REMARK                         _______ _______ _______ _____ _____    ______ ____
ROOT
ATOM      1  C   UNL     1       4.778   5.219  16.234  0.00  0.00    +0.000 A 
ATOM      2  C   UNL     1       4.620   6.558  16.609  0.00  0.00    +0.000 A 
ATOM      3  C   UNL     1       3.822   6.925  17.702  0.00  0.00    +0.000 A 
ATOM      4  C   UNL     1       3.152   5.960  18.491  0.00  0.00    +0.000 A 
ATOM      5  C   UNL     1       2.293   6.268  19.565  0.00  0.00    +0.000 A 
ATOM      6 CL   UNL     1       1.912   7.889  20.029  0.00  0.00    +0.000 Cl
ATOM      7  C   UNL     1       1.697   5.230  20.270  0.00  0.00    +0.000 A 
ATOM      8  N   UNL     1       1.891   3.919  20.009  0.00  0.00    +0.000 NA
ATOM      9  C   UNL     1       2.709   3.622  18.967  0.00  0.00    +0.000 A 
ATOM     10  C   UNL     1       3.352   4.600  18.174  0.00  0.00    +0.000 A 
ATOM     11  C   UNL     1       4.154   4.263  17.058  0.00  0.00    +0.000 A 
ENDROOT
BRANCH   9  12
ATOM     12  N   UNL     1       2.937   2.258  18.700  0.00  0.00    +0.000 NA
ATOM     13  C   UNL     1       3.969   1.639  19.162  0.00  0.00    +0.000 C 
ATOM     14  N   UNL     1       4.979   2.125  19.922  0.00  0.00    +0.000 N 
ATOM     15  N   UNL     1       4.098   0.311  18.947  0.00  0.00    +0.000 N 
ATOM     16  H   UNL     1       4.963   3.146  19.902  0.00  0.00    +0.000 HD
ATOM     17  H   UNL     1       5.898   1.785  19.678  0.00  0.00    +0.000 HD
ATOM     18  H   UNL     1       3.465  -0.038  18.240  0.00  0.00    +0.000 HD
ATOM     19  H   UNL     1       5.028  -0.075  18.907  0.00  0.00    +0.000 HD
ENDBRANCH   9  12
BRANCH   1  25
ATOM     20  C   UNL     1       6.930   4.999  14.857  0.00  0.00    +0.000 A 
ATOM     21  C   UNL     1       7.573   4.598  13.674  0.00  0.00    +0.000 A 
ATOM     22  C   UNL     1       6.848   4.058  12.614  0.00  0.00    +0.000 A 
ATOM     23  C   UNL     1       5.479   3.881  12.739  0.00  0.00    +0.000 A 
ATOM     24  C   UNL     1       4.840   4.227  13.931  0.00  0.00    +0.000 A 
ATOM     25  C   UNL     1       5.536   4.799  15.021  0.00  0.00    +0.000 A 
BRANCH  20  27
ATOM     26  C   UNL     1       7.775   4.786  17.066  0.00  0.00    +0.000 C 
ATOM     27  O   UNL     1       7.626   5.579  15.892  0.00  0.00    +0.000 OA
ENDBRANCH  20  27
ENDBRANCH   1  25
TORSDOF 3
ENDMDL
MODEL 5
REMARK VINA RESULT:      -7.8      1.172      2.154
REMARK  Name = 
REMARK  4 active torsions:
REMARK  status: ('A' for Active; 'I' for Inactive)
REMARK    1  A    between atoms: C_1  and  O_2
REMARK    2  A    between atoms: O_2  and  C_3
REMARK    3  A    between atoms: C_8  and  C_9
REMARK    4  A    between atoms: C_17  and  N_18
REMARK                            x       y       z     vdW  Elec       q    Type
REMARK                         _______ _______ _______ _____ _____    ______ ____
ROOT
ATOM      1  C   UNL     1       2.243   7.964  18.548  0.00  0.00    +0.000 A 
ATOM      2  C   UNL     1       3.176   8.223  17.537  0.00  0.00    +0.000 A 
ATOM      3  C   UNL     1       4.224   7.334  17.260  0.00  0.00    +0.000 A 
ATOM      4  C   UNL     1       4.380   6.122  17.972  0.00  0.00    +0.000 A 
ATOM      5  C   UNL     1       5.442   5.216  17.778  0.00  0.00    +0.000 A 
ATOM      6 CL   UNL     1       6.728   5.500  16.658  0.00  0.00    +0.000 Cl
ATOM      7  C   UNL     1       5.482   4.053  18.537  0.00  0.00    +0.000 A 
ATOM      8  N   UNL     1       4.556   3.709  19.458  0.00  0.00    +0.000 NA
ATOM      9  C   UNL     1       3.540   4.588  19.654  0.00  0.00    +0.000 A 
ATOM     10  C   UNL     1       3.412   5.806  18.949  0.00  0.00    +0.000 A 
ATOM     11  C   UNL     1       2.373   6.729  19.213  0.00  0.00    +0.000 A 
ENDROOT
BRANCH   9  12
ATOM     12  N   UNL     1       2.556   4.228  20.595  0.00  0.00    +0.000 NA
ATOM     13  C   UNL     1       1.842   3.164  20.459  0.00  0.00    +0.000 C 
ATOM     14  N   UNL     1       1.867   2.248  19.461  0.00  0.00    +0.000 N 
ATOM     15  N   UNL     1       0.969   2.820  21.432  0.00  0.00    +0.000 N 
ATOM     16  H   UNL     1       2.378   2.626  18.661  0.00  0.00    +0.000 HD
ATOM     17  H   UNL     1       0.961   1.910  19.170  0.00  0.00    +0.000 HD
ATOM     18  H   UNL     1       0.798   3.567  22.092  0.00  0.00    +0.000 HD
ATOM     19  H   UNL     1       0.150   2.294  21.171  0.00  0.00    +0.000 HD
ENDBRANCH   9  12
BRANCH   1  25
ATOM     20  C   UNL     1       0.832   9.219  20.282  0.00  0.00    +0.000 A 
ATOM     21  C   UNL     1      -0.203  10.124  20.573  0.00  0.00    +0.000 A 
ATOM     22  C   UNL     1      -0.953  10.705  19.552  0.00  0.00    +0.000 A 
ATOM     23  C   UNL     1      -0.653  10.413  18.230  0.00  0.00    +0.000 A 
ATOM     24  C   UNL     1       0.408   9.557  17.931  0.00  0.00    +0.000 A 
ATOM     25  C   UNL     1       1.178   8.930  18.938  0.00  0.00    +0.000 A 
BRANCH  20  27
ATOM     26  C   UNL     1       1.382   9.137  22.591  0.00  0.00    +0.000 C 
ATOM     27  O   UNL     1       1.547   8.601  21.281  0.00  0.00    +0.000 OA
ENDBRANCH  20  27
ENDBRANCH   1  25
TORSDOF 3
ENDMDL
MODEL 6
REMARK VINA RESULT:      -7.7      3.873      7.508
REMARK  Name = 
REMARK  4 active torsions:
REMARK  status: ('A' for Active; 'I' for Inactive)
REMARK    1  A    between atoms: C_1  and  O_2
REMARK    2  A    between atoms: O_2  and  C_3
REMARK    3  A    between atoms: C_8  and  C_9
REMARK    4  A    between atoms: C_17  and  N_18
REMARK                            x       y       z     vdW  Elec       q    Type
REMARK                         _______ _______ _______ _____ _____    ______ ____
ROOT
ATOM      1  C   UNL     1       4.455   4.514  16.931  0.00  0.00    +0.000 A 
ATOM      2  C   UNL     1       4.140   3.361  17.660  0.00  0.00    +0.000 A 
ATOM      3  C   UNL     1       3.355   3.419  18.821  0.00  0.00    +0.000 A 
ATOM      4  C   UNL     1       2.826   4.640  19.302  0.00  0.00    +0.000 A 
ATOM      5  C   UNL     1       2.079   4.771  20.489  0.00  0.00    +0.000 A 
ATOM      6 CL   UNL     1       1.748   3.441  21.543  0.00  0.00    +0.000 Cl
ATOM      7  C   UNL     1       1.606   6.026  20.853  0.00  0.00    +0.000 A 
ATOM      8  N   UNL     1       1.801   7.153  20.135  0.00  0.00    +0.000 NA
ATOM      9  C   UNL     1       2.531   7.030  18.998  0.00  0.00    +0.000 A 
ATOM     10  C   UNL     1       3.073   5.804  18.544  0.00  0.00    +0.000 A 
ATOM     11  C   UNL     1       3.878   5.715  17.384  0.00  0.00    +0.000 A 
ENDROOT
BRANCH   9  12
ATOM     12  N   UNL     1       2.721   8.194  18.229  0.00  0.00    +0.000 NA
ATOM     13  C   UNL     1       1.900   9.187  18.285  0.00  0.00    +0.000 C 
ATOM     14  N   UNL     1       0.767   9.309  19.018  0.00  0.00    +0.000 N 
ATOM     15  N   UNL     1       2.172  10.314  17.591  0.00  0.00    +0.000 N 
ATOM     16  H   UNL     1       0.484   8.392  19.369  0.00  0.00    +0.000 HD
ATOM     17  H   UNL     1      -0.003   9.753  18.539  0.00  0.00    +0.000 HD
ATOM     18  H   UNL     1       2.902  10.188  16.903  0.00  0.00    +0.000 HD
ATOM     19  H   UNL     1       1.396  10.880  17.282  0.00  0.00    +0.000 HD
ENDBRANCH   9  12
BRANCH   1  25
ATOM     20  C   UNL     1       6.671   5.061  15.762  0.00  0.00    +0.000 A 
ATOM     21  C   UNL     1       7.465   5.037  14.603  0.00  0.00    +0.000 A 
ATOM     22  C   UNL     1       6.966   4.530  13.405  0.00  0.00    +0.000 A 
ATOM     23  C   UNL     1       5.682   4.009  13.363  0.00  0.00    +0.000 A 
ATOM     24  C   UNL     1       4.906   3.979  14.523  0.00  0.00    +0.000 A 
ATOM     25  C   UNL     1       5.367   4.505  15.752  0.00  0.00    +0.000 A 
BRANCH  20  27
ATOM     26  C   UNL     1       7.719   4.689  17.860  0.00  0.00    +0.000 C 
ATOM     27  O   UNL     1       7.133   5.604  16.938  0.00  0.00    +0.000 OA
ENDBRANCH  20  27
ENDBRANCH   1  25
TORSDOF 3
ENDMDL
MODEL 7
REMARK VINA RESULT:      -7.5      1.199      1.340
REMARK  Name = 
REMARK  4 active torsions:
REMARK  status: ('A' for Active; 'I' for Inactive)
REMARK    1  A    between atoms: C_1  and  O_2
REMARK    2  A    between atoms: O_2  and  C_3
REMARK    3  A    between atoms: C_8  and  C_9
REMARK    4  A    between atoms: C_17  and  N_18
REMARK                            x       y       z     vdW  Elec       q    Type
REMARK                         _______ _______ _______ _____ _____    ______ ____
ROOT
ATOM      1  C   UNL     1       2.185   7.703  19.060  0.00  0.00    +0.000 A 
ATOM      2  C   UNL     1       3.063   8.118  18.052  0.00  0.00    +0.000 A 
ATOM      3  C   UNL     1       3.815   7.197  17.309  0.00  0.00    +0.000 A 
ATOM      4  C   UNL     1       3.710   5.802  17.526  0.00  0.00    +0.000 A 
ATOM      5  C   UNL     1       4.477   4.832  16.852  0.00  0.00    +0.000 A 
ATOM      6 CL   UNL     1       5.692   5.234  15.689  0.00  0.00    +0.000 Cl
ATOM      7  C   UNL     1       4.277   3.489  17.148  0.00  0.00    +0.000 A 
ATOM      8  N   UNL     1       3.375   3.031  18.044  0.00  0.00    +0.000 NA
ATOM      9  C   UNL     1       2.644   3.966  18.702  0.00  0.00    +0.000 A 
ATOM     10  C   UNL     1       2.780   5.358  18.489  0.00  0.00    +0.000 A 
ATOM     11  C   UNL     1       2.044   6.313  19.230  0.00  0.00    +0.000 A 
ENDROOT
BRANCH   9  12
ATOM     12  N   UNL     1       1.684   3.499  19.620  0.00  0.00    +0.000 NA
ATOM     13  C   UNL     1       2.022   2.902  20.712  0.00  0.00    +0.000 C 
ATOM     14  N   UNL     1       3.263   2.605  21.166  0.00  0.00    +0.000 N 
ATOM     15  N   UNL     1       1.066   2.548  21.599  0.00  0.00    +0.000 N 
ATOM     16  H   UNL     1       3.939   2.701  20.407  0.00  0.00    +0.000 HD
ATOM     17  H   UNL     1       3.351   1.699  21.602  0.00  0.00    +0.000 HD
ATOM     18  H   UNL     1       0.132   2.590  21.211  0.00  0.00    +0.000 HD
ATOM     19  H   UNL     1       1.239   1.751  22.191  0.00  0.00    +0.000 HD
ENDBRANCH   9  12
BRANCH   1  25
ATOM     20  C   UNL     1       1.111   9.979  19.552  0.00  0.00    +0.000 A 
ATOM     21  C   UNL     1       0.433  10.829  20.442  0.00  0.00    +0.000 A 
ATOM     22  C   UNL     1       0.135  10.416  21.739  0.00  0.00    +0.000 A 
ATOM     23  C   UNL     1       0.480   9.136  22.147  0.00  0.00    +0.000 A 
ATOM     24  C   UNL     1       1.106   8.266  21.252  0.00  0.00    +0.000 A 
ATOM     25  C   UNL     1       1.446   8.656  19.936  0.00  0.00    +0.000 A 
BRANCH  20  27
ATOM     26  C   UNL     1       2.070  11.673  18.192  0.00  0.00    +0.000 C 
ATOM     27  O   UNL     1       1.455  10.391  18.286  0.00  0.00    +0.000 OA
ENDBRANCH  20  27
ENDBRANCH   1  25
TORSDOF 3
ENDMDL
MODEL 8
REMARK VINA RESULT:      -7.5      3.555      4.905
REMARK  Name = 
REMARK  4 active torsions:
REMARK  status: ('A' for Active; 'I' for Inactive)
REMARK    1  A    between atoms: C_1  and  O_2
REMARK    2  A    between atoms: O_2  and  C_3
REMARK    3  A    between atoms: C_8  and  C_9
REMARK    4  A    between atoms: C_17  and  N_18
REMARK                            x       y       z     vdW  Elec       q    Type
REMARK                         _______ _______ _______ _____ _____    ______ ____
ROOT
ATOM      1  C   UNL     1       3.193   6.868  18.047  0.00  0.00    +0.000 A 
ATOM      2  C   UNL     1       2.799   5.550  17.791  0.00  0.00    +0.000 A 
ATOM      3  C   UNL     1       3.651   4.640  17.149  0.00  0.00    +0.000 A 
ATOM      4  C   UNL     1       4.959   5.002  16.746  0.00  0.00    +0.000 A 
ATOM      5  C   UNL     1       5.841   4.152  16.049  0.00  0.00    +0.000 A 
ATOM      6 CL   UNL     1       5.411   2.552  15.554  0.00  0.00    +0.000 Cl
ATOM      7  C   UNL     1       7.105   4.621  15.714  0.00  0.00    +0.000 A 
ATOM      8  N   UNL     1       7.569   5.852  16.022  0.00  0.00    +0.000 NA
ATOM      9  C   UNL     1       6.715   6.675  16.682  0.00  0.00    +0.000 A 
ATOM     10  C   UNL     1       5.403   6.304  17.056  0.00  0.00    +0.000 A 
ATOM     11  C   UNL     1       4.515   7.202  17.694  0.00  0.00    +0.000 A 
ENDROOT
BRANCH   9  12
ATOM     12  N   UNL     1       7.197   7.952  17.029  0.00  0.00    +0.000 NA
ATOM     13  C   UNL     1       7.980   8.132  18.036  0.00  0.00    +0.000 C 
ATOM     14  N   UNL     1       8.456   7.217  18.915  0.00  0.00    +0.000 N 
ATOM     15  N   UNL     1       8.482   9.365  18.276  0.00  0.00    +0.000 N 
ATOM     16  H   UNL     1       7.918   6.352  18.835  0.00  0.00    +0.000 HD
ATOM     17  H   UNL     1       8.485   7.524  19.876  0.00  0.00    +0.000 HD
ATOM     18  H   UNL     1       8.008  10.092  17.757  0.00  0.00    +0.000 HD
ATOM     19  H   UNL     1       8.709   9.607  19.228  0.00  0.00    +0.000 HD
ENDBRANCH   9  12
BRANCH   1  25
ATOM     20  C   UNL     1       1.826   7.856  19.978  0.00  0.00    +0.000 A 
ATOM     21  C   UNL     1       0.947   8.842  20.457  0.00  0.00    +0.000 A 
ATOM     22  C   UNL     1       0.451   9.830  19.610  0.00  0.00    +0.000 A 
ATOM     23  C   UNL     1       0.857   9.864  18.284  0.00  0.00    +0.000 A 
ATOM     24  C   UNL     1       1.773   8.921  17.814  0.00  0.00    +0.000 A 
ATOM     25  C   UNL     1       2.281   7.889  18.636  0.00  0.00    +0.000 A 
BRANCH  20  27
ATOM     26  C   UNL     1       1.429   5.715  20.924  0.00  0.00    +0.000 C 
ATOM     27  O   UNL     1       2.285   6.846  20.791  0.00  0.00    +0.000 OA
ENDBRANCH  20  27
ENDBRANCH   1  25
TORSDOF 3
ENDMDL
MODEL 9
REMARK VINA RESULT:      -7.5      2.867      6.293
REMARK  Name = 
REMARK  4 active torsions:
REMARK  status: ('A' for Active; 'I' for Inactive)
REMARK    1  A    between atoms: C_1  and  O_2
REMARK    2  A    between atoms: O_2  and  C_3
REMARK    3  A    between atoms: C_8  and  C_9
REMARK    4  A    between atoms: C_17  and  N_18
REMARK                            x       y       z     vdW  Elec       q    Type
REMARK                         _______ _______ _______ _____ _____    ______ ____
ROOT
ATOM      1  C   UNL     1       4.177   6.462  17.529  0.00  0.00    +0.000 A 
ATOM      2  C   UNL     1       3.809   7.758  17.150  0.00  0.00    +0.000 A 
ATOM      3  C   UNL     1       2.845   8.485  17.864  0.00  0.00    +0.000 A 
ATOM      4  C   UNL     1       2.211   7.954  19.012  0.00  0.00    +0.000 A 
ATOM      5  C   UNL     1       1.198   8.612  19.738  0.00  0.00    +0.000 A 
ATOM      6 CL   UNL     1       0.564  10.154  19.281  0.00  0.00    +0.000 Cl
ATOM      7  C   UNL     1       0.657   7.989  20.855  0.00  0.00    +0.000 A 
ATOM      8  N   UNL     1       1.044   6.780  21.318  0.00  0.00    +0.000 NA
ATOM      9  C   UNL     1       2.011   6.141  20.612  0.00  0.00    +0.000 A 
ATOM     10  C   UNL     1       2.617   6.677  19.453  0.00  0.00    +0.000 A 
ATOM     11  C   UNL     1       3.583   5.965  18.705  0.00  0.00    +0.000 A 
ENDROOT
BRANCH   9  12
ATOM     12  N   UNL     1       2.439   4.891  21.100  0.00  0.00    +0.000 NA
ATOM     13  C   UNL     1       1.729   3.825  20.952  0.00  0.00    +0.000 C 
ATOM     14  N   UNL     1       0.517   3.689  20.362  0.00  0.00    +0.000 N 
ATOM     15  N   UNL     1       2.223   2.636  21.363  0.00  0.00    +0.000 N 
ATOM     16  H   UNL     1       0.088   4.608  20.242  0.00  0.00    +0.000 HD
ATOM     17  H   UNL     1      -0.119   3.065  20.837  0.00  0.00    +0.000 HD
ATOM     18  H   UNL     1       3.032   2.730  21.962  0.00  0.00    +0.000 HD
ATOM     19  H   UNL     1       1.569   1.924  21.649  0.00  0.00    +0.000 HD
ENDBRANCH   9  12
BRANCH   1  25
ATOM     20  C   UNL     1       6.530   5.666  16.894  0.00  0.00    +0.000 A 
ATOM     21  C   UNL     1       7.360   4.861  16.095  0.00  0.00    +0.000 A 
ATOM     22  C   UNL     1       6.825   4.056  15.092  0.00  0.00    +0.000 A 
ATOM     23  C   UNL     1       5.452   4.021  14.901  0.00  0.00    +0.000 A 
ATOM     24  C   UNL     1       4.616   4.776  15.725  0.00  0.00    +0.000 A 
ATOM     25  C   UNL     1       5.122   5.623  16.739  0.00  0.00    +0.000 A 
BRANCH  20  27
ATOM     26  C   UNL     1       7.615   5.866  18.997  0.00  0.00    +0.000 C 
ATOM     27  O   UNL     1       7.049   6.502  17.855  0.00  0.00    +0.000 OA
ENDBRANCH  20  27
ENDBRANCH   1  25
TORSDOF 3
ENDMDL
