MODEL 1
REMARK VINA RESULT:      -7.4      0.000      0.000
REMARK  Name = 
REMARK  10 active torsions:
REMARK  status: ('A' for Active; 'I' for Inactive)
REMARK    1  A    between atoms: C_1  and  C_2
REMARK    2  A    between atoms: C_2  and  O_3
REMARK    3  A    between atoms: O_3  and  C_4
REMARK    4  A    between atoms: C_4  and  C_6
REMARK    5  A    between atoms: N_10  and  C_11
REMARK    6  A    between atoms: C_11  and  C_12
REMARK    7  A    between atoms: C_12  and  O_13
REMARK    8  A    between atoms: O_13  and  C_14
REMARK    9  A    between atoms: C_14  and  C_15
REMARK   10  A    between atoms: C_14  and  C_22
REMARK                            x       y       z     vdW  Elec       q    Type
REMARK                         _______ _______ _______ _____ _____    ______ ____
ROOT
ATOM      1  C   UNL     1       2.577   6.069  17.980  0.00  0.00    +0.000 C 
ENDROOT
BRANCH   1   2
ATOM      2  C   UNL     1       3.848   5.751  17.203  0.00  0.00    +0.000 A 
ATOM      3  C   UNL     1       4.614   6.753  16.584  0.00  0.00    +0.000 A 
ATOM      4  C   UNL     1       5.672   6.420  15.731  0.00  0.00    +0.000 A 
ATOM      5  C   UNL     1       5.987   5.082  15.500  0.00  0.00    +0.000 A 
ATOM      6 CL   UNL     1       7.223   4.669  14.374  0.00  0.00    +0.000 Cl
ATOM      7  C   UNL     1       5.285   4.075  16.153  0.00  0.00    +0.000 A 
ATOM      8  C   UNL     1       4.230   4.409  17.005  0.00  0.00    +0.000 A 
ENDBRANCH   1   2
BRANCH   1   9
ATOM      9  C   UNL     1       2.219   5.056  19.065  0.00  0.00    +0.000 A 
ATOM     10  C   UNL     1       1.364   3.980  18.777  0.00  0.00    +0.000 A 
ATOM     11  C   UNL     1       0.996   3.076  19.778  0.00  0.00    +0.000 A 
ATOM     12  C   UNL     1       1.484   3.235  21.075  0.00  0.00    +0.000 A 
ATOM     13 CL   UNL     1       1.043   2.111  22.301  0.00  0.00    +0.000 Cl
ATOM     14  C   UNL     1       2.327   4.296  21.384  0.00  0.00    +0.000 A 
ATOM     15  C   UNL     1       2.693   5.199  20.384  0.00  0.00    +0.000 A 
ENDBRANCH   1   9
BRANCH   1  16
ATOM     16  O   UNL     1       2.632   7.351  18.620  0.00  0.00    +0.000 OA
BRANCH  16  17
ATOM     17  C   UNL     1       1.876   8.412  18.047  0.00  0.00    +0.000 C 
BRANCH  17  18
ATOM     18  C   UNL     1       1.841   9.704  18.885  0.00  0.00    +0.000 C 
BRANCH  18  23
ATOM     19  C   UNL     1      -1.748  10.964  18.975  0.00  0.00    +0.000 C 
ATOM     20  C   UNL     1      -1.474  12.463  19.126  0.00  0.00    +0.000 C 
ATOM     21  C   UNL     1      -0.200  12.870  18.397  0.00  0.00    +0.000 C 
ATOM     22  C   UNL     1       0.977  11.987  18.801  0.00  0.00    +0.000 C 
ATOM     23  N   UNL     1       0.687  10.564  18.561  0.00  0.00    +0.000 NA
ATOM     24  C   UNL     1      -0.504  10.135  19.314  0.00  0.00    +0.000 C 
BRANCH  19  25
ATOM     25  C   UNL     1      -2.331  10.639  17.608  0.00  0.00    +0.000 C 
ATOM     26  O   UNL     1      -1.959   9.720  16.888  0.00  0.00    +0.000 OA
BRANCH  25  27
ATOM     27  O   UNL     1      -3.184  11.630  17.216  0.00  0.00    +0.000 OA
BRANCH  27  29
ATOM     28  C   UNL     1      -5.526  12.105  17.193  0.00  0.00    +0.000 C 
ATOM     29  C   UNL     1      -4.437  11.176  16.686  0.00  0.00    +0.000 C 
ENDBRANCH  27  29
ENDBRANCH  25  27
ENDBRANCH  19  25
ENDBRANCH  18  23
ENDBRANCH  17  18
ENDBRANCH  16  17
ENDBRANCH   1  16
TORSDOF 9
ENDMDL
MODEL 2
REMARK VINA RESULT:      -7.3      0.921      1.474
REMARK  Name = 
REMARK  10 active torsions:
REMARK  status: ('A' for Active; 'I' for Inactive)
REMARK    1  A    between atoms: C_1  and  C_2
REMARK    2  A    between atoms: C_2  and  O_3
REMARK    3  A    between atoms: O_3  and  C_4
REMARK    4  A    between atoms: C_4  and  C_6
REMARK    5  A    between atoms: N_10  and  C_11
REMARK    6  A    between atoms: C_11  and  C_12
REMARK    7  A    between atoms: C_12  and  O_13
REMARK    8  A    between atoms: O_13  and  C_14
REMARK    9  A    between atoms: C_14  and  C_15
REMARK   10  A    between atoms: C_14  and  C_22
REMARK                            x       y       z     vdW  Elec       q    Type
REMARK                         _______ _______ _______ _____ _____    ______ ____
ROOT
ATOM      1  C   UNL     1       2.685   6.176  18.129  0.00  0.00    +0.000 C 
ENDROOT
BRANCH   1   2
ATOM      2  C   UNL     1       3.927   5.782  17.340  0.00  0.00    +0.000 A 
ATOM      3  C   UNL     1       4.900   6.722  16.961  0.00  0.00    +0.000 A 
ATOM      4  C   UNL     1       5.936   6.368  16.089  0.00  0.00    +0.000 A 
ATOM      5  C   UNL     1       6.021   5.067  15.599  0.00  0.00    +0.000 A 
ATOM      6 CL   UNL     1       7.235   4.656  14.449  0.00  0.00    +0.000 Cl
ATOM      7  C   UNL     1       5.108   4.102  16.012  0.00  0.00    +0.000 A 
ATOM      8  C   UNL     1       4.076   4.456  16.883  0.00  0.00    +0.000 A 
ENDBRANCH   1   2
BRANCH   1   9
ATOM      9  C   UNL     1       2.249   5.162  19.184  0.00  0.00    +0.000 A 
ATOM     10  C   UNL     1       2.813   5.187  20.469  0.00  0.00    +0.000 A 
ATOM     11  C   UNL     1       2.452   4.231  21.424  0.00  0.00    +0.000 A 
ATOM     12  C   UNL     1       1.519   3.246  21.106  0.00  0.00    +0.000 A 
ATOM     13 CL   UNL     1       1.063   2.082  22.288  0.00  0.00    +0.000 Cl
ATOM     14  C   UNL     1       0.951   3.198  19.837  0.00  0.00    +0.000 A 
ATOM     15  C   UNL     1       1.314   4.152  18.884  0.00  0.00    +0.000 A 
ENDBRANCH   1   9
BRANCH   1  16
ATOM     16  O   UNL     1       2.841   7.429  18.806  0.00  0.00    +0.000 OA
BRANCH  16  17
ATOM     17  C   UNL     1       1.727   8.315  18.830  0.00  0.00    +0.000 C 
BRANCH  17  18
ATOM     18  C   UNL     1       1.947   9.647  18.088  0.00  0.00    +0.000 C 
BRANCH  18  23
ATOM     19  C   UNL     1      -1.071  11.170  19.834  0.00  0.00    +0.000 C 
ATOM     20  C   UNL     1      -0.514  12.571  20.102  0.00  0.00    +0.000 C 
ATOM     21  C   UNL     1       0.435  13.011  18.995  0.00  0.00    +0.000 C 
ATOM     22  C   UNL     1       1.512  11.961  18.736  0.00  0.00    +0.000 C 
ATOM     23  N   UNL     1       0.918  10.655  18.407  0.00  0.00    +0.000 NA
ATOM     24  C   UNL     1       0.050  10.180  19.498  0.00  0.00    +0.000 C 
BRANCH  19  25
ATOM     25  C   UNL     1      -2.176  11.201  18.789  0.00  0.00    +0.000 C 
ATOM     26  O   UNL     1      -3.030  12.075  18.698  0.00  0.00    +0.000 OA
BRANCH  25  27
ATOM     27  O   UNL     1      -2.198  10.024  18.097  0.00  0.00    +0.000 OA
BRANCH  27  29
ATOM     28  C   UNL     1      -2.681  10.192  15.762  0.00  0.00    +0.000 C 
ATOM     29  C   UNL     1      -3.258   9.906  17.137  0.00  0.00    +0.000 C 
ENDBRANCH  27  29
ENDBRANCH  25  27
ENDBRANCH  19  25
ENDBRANCH  18  23
ENDBRANCH  17  18
ENDBRANCH  16  17
ENDBRANCH   1  16
TORSDOF 9
ENDMDL
MODEL 3
REMARK VINA RESULT:      -7.3      1.922      5.325
REMARK  Name = 
REMARK  10 active torsions:
REMARK  status: ('A' for Active; 'I' for Inactive)
REMARK    1  A    between atoms: C_1  and  C_2
REMARK    2  A    between atoms: C_2  and  O_3
REMARK    3  A    between atoms: O_3  and  C_4
REMARK    4  A    between atoms: C_4  and  C_6
REMARK    5  A    between atoms: N_10  and  C_11
REMARK    6  A    between atoms: C_11  and  C_12
REMARK    7  A    between atoms: C_12  and  O_13
REMARK    8  A    between atoms: O_13  and  C_14
REMARK    9  A    between atoms: C_14  and  C_15
REMARK   10  A    between atoms: C_14  and  C_22
REMARK                            x       y       z     vdW  Elec       q    Type
REMARK                         _______ _______ _______ _____ _____    ______ ____
ROOT
ATOM      1  C   UNL     1       3.305   6.164  18.502  0.00  0.00    +0.000 C 
ENDROOT
BRANCH   1   2
ATOM      2  C   UNL     1       2.730   5.037  19.350  0.00  0.00    +0.000 A 
ATOM      3  C   UNL     1       1.376   4.667  19.281  0.00  0.00    +0.000 A 
ATOM      4  C   UNL     1       0.836   3.754  20.194  0.00  0.00    +0.000 A 
ATOM      5  C   UNL     1       1.646   3.189  21.176  0.00  0.00    +0.000 A 
ATOM      6 CL   UNL     1       0.962   2.143  22.361  0.00  0.00    +0.000 Cl
ATOM      7  C   UNL     1       3.003   3.490  21.224  0.00  0.00    +0.000 A 
ATOM      8  C   UNL     1       3.541   4.400  20.312  0.00  0.00    +0.000 A 
ENDBRANCH   1   2
BRANCH   1   9
ATOM      9  C   UNL     1       4.105   5.704  17.285  0.00  0.00    +0.000 A 
ATOM     10  C   UNL     1       4.237   4.336  16.998  0.00  0.00    +0.000 A 
ATOM     11  C   UNL     1       5.008   3.908  15.913  0.00  0.00    +0.000 A 
ATOM     12  C   UNL     1       5.649   4.842  15.101  0.00  0.00    +0.000 A 
ATOM     13 CL   UNL     1       6.583   4.313  13.756  0.00  0.00    +0.000 Cl
ATOM     14  C   UNL     1       5.538   6.202  15.370  0.00  0.00    +0.000 A 
ATOM     15  C   UNL     1       4.769   6.628  16.454  0.00  0.00    +0.000 A 
ENDBRANCH   1   9
BRANCH   1  16
ATOM     16  O   UNL     1       2.293   7.054  18.014  0.00  0.00    +0.000 OA
BRANCH  16  17
ATOM     17  C   UNL     1       2.159   8.320  18.650  0.00  0.00    +0.000 C 
BRANCH  17  18
ATOM     18  C   UNL     1       1.302   9.341  17.879  0.00  0.00    +0.000 C 
BRANCH  18  23
ATOM     19  C   UNL     1       0.183  12.086  20.265  0.00  0.00    +0.000 C 
ATOM     20  C   UNL     1      -1.163  12.432  19.620  0.00  0.00    +0.000 C 
ATOM     21  C   UNL     1      -1.813  11.202  19.000  0.00  0.00    +0.000 C 
ATOM     22  C   UNL     1      -0.851  10.478  18.062  0.00  0.00    +0.000 C 
ATOM     23  N   UNL     1       0.391  10.101  18.756  0.00  0.00    +0.000 NA
ATOM     24  C   UNL     1       1.070  11.287  19.303  0.00  0.00    +0.000 C 
BRANCH  19  25
ATOM     25  C   UNL     1      -0.004  11.405  21.612  0.00  0.00    +0.000 C 
ATOM     26  O   UNL     1      -0.817  11.747  22.463  0.00  0.00    +0.000 OA
BRANCH  25  27
ATOM     27  O   UNL     1       0.988  10.491  21.816  0.00  0.00    +0.000 OA
BRANCH  27  29
ATOM     28  C   UNL     1      -0.246   8.445  21.727  0.00  0.00    +0.000 C 
ATOM     29  C   UNL     1       0.609   9.349  22.598  0.00  0.00    +0.000 C 
ENDBRANCH  27  29
ENDBRANCH  25  27
ENDBRANCH  19  25
ENDBRANCH  18  23
ENDBRANCH  17  18
ENDBRANCH  16  17
ENDBRANCH   1  16
TORSDOF 9
ENDMDL
MODEL 4
REMARK VINA RESULT:      -7.3      3.840      8.918
REMARK  Name = 
REMARK  10 active torsions:
REMARK  status: ('A' for Active; 'I' for Inactive)
REMARK    1  A    between atoms: C_1  and  C_2
REMARK    2  A    between atoms: C_2  and  O_3
REMARK    3  A    between atoms: O_3  and  C_4
REMARK    4  A    between atoms: C_4  and  C_6
REMARK    5  A    between atoms: N_10  and  C_11
REMARK    6  A    between atoms: C_11  and  C_12
REMARK    7  A    between atoms: C_12  and  O_13
REMARK    8  A    between atoms: O_13  and  C_14
REMARK    9  A    between atoms: C_14  and  C_15
REMARK   10  A    between atoms: C_14  and  C_22
REMARK                            x       y       z     vdW  Elec       q    Type
REMARK                         _______ _______ _______ _____ _____    ______ ____
ROOT
ATOM      1  C   UNL     1       0.784  10.307  18.759  0.00  0.00    +0.000 C 
ENDROOT
BRANCH   1   2
ATOM      2  C   UNL     1      -0.692  10.437  18.405  0.00  0.00    +0.000 A 
ATOM      3  C   UNL     1      -1.266   9.741  17.327  0.00  0.00    +0.000 A 
ATOM      4  C   UNL     1      -2.575  10.012  16.915  0.00  0.00    +0.000 A 
ATOM      5  C   UNL     1      -3.332  10.971  17.585  0.00  0.00    +0.000 A 
ATOM      6 CL   UNL     1      -4.906  11.378  17.018  0.00  0.00    +0.000 Cl
ATOM      7  C   UNL     1      -2.809  11.626  18.695  0.00  0.00    +0.000 A 
ATOM      8  C   UNL     1      -1.503  11.353  19.106  0.00  0.00    +0.000 A 
ENDBRANCH   1   2
BRANCH   1   9
ATOM      9  C   UNL     1       1.485  11.626  19.072  0.00  0.00    +0.000 A 
ATOM     10  C   UNL     1       2.235  12.284  18.083  0.00  0.00    +0.000 A 
ATOM     11  C   UNL     1       2.919  13.467  18.378  0.00  0.00    +0.000 A 
ATOM     12  C   UNL     1       2.854  14.009  19.661  0.00  0.00    +0.000 A 
ATOM     13 CL   UNL     1       3.682  15.475  20.017  0.00  0.00    +0.000 Cl
ATOM     14  C   UNL     1       2.122  13.372  20.658  0.00  0.00    +0.000 A 
ATOM     15  C   UNL     1       1.441  12.189  20.362  0.00  0.00    +0.000 A 
ENDBRANCH   1   9
BRANCH   1  16
ATOM     16  O   UNL     1       1.003   9.449  19.885  0.00  0.00    +0.000 OA
BRANCH  16  17
ATOM     17  C   UNL     1       1.729   8.243  19.671  0.00  0.00    +0.000 C 
BRANCH  17  18
ATOM     18  C   UNL     1       2.268   8.062  18.239  0.00  0.00    +0.000 C 
BRANCH  18  23
ATOM     19  C   UNL     1       3.502   4.472  17.970  0.00  0.00    +0.000 C 
ATOM     20  C   UNL     1       4.540   4.657  16.859  0.00  0.00    +0.000 C 
ATOM     21  C   UNL     1       5.200   6.027  16.939  0.00  0.00    +0.000 C 
ATOM     22  C   UNL     1       4.159   7.142  16.997  0.00  0.00    +0.000 C 
ATOM     23  N   UNL     1       3.238   6.955  18.130  0.00  0.00    +0.000 NA
ATOM     24  C   UNL     1       2.539   5.663  18.033  0.00  0.00    +0.000 C 
BRANCH  19  25
ATOM     25  C   UNL     1       4.164   4.166  19.305  0.00  0.00    +0.000 C 
ATOM     26  O   UNL     1       5.338   3.846  19.447  0.00  0.00    +0.000 OA
BRANCH  25  27
ATOM     27  O   UNL     1       3.222   4.106  20.291  0.00  0.00    +0.000 OA
BRANCH  27  29
ATOM     28  C   UNL     1       0.997   3.248  20.462  0.00  0.00    +0.000 C 
ATOM     29  C   UNL     1       2.467   2.887  20.334  0.00  0.00    +0.000 C 
ENDBRANCH  27  29
ENDBRANCH  25  27
ENDBRANCH  19  25
ENDBRANCH  18  23
ENDBRANCH  17  18
ENDBRANCH  16  17
ENDBRANCH   1  16
TORSDOF 9
ENDMDL
MODEL 5
REMARK VINA RESULT:      -7.3      3.889      8.613
REMARK  Name = 
REMARK  10 active torsions:
REMARK  status: ('A' for Active; 'I' for Inactive)
REMARK    1  A    between atoms: C_1  and  C_2
REMARK    2  A    between atoms: C_2  and  O_3
REMARK    3  A    between atoms: O_3  and  C_4
REMARK    4  A    between atoms: C_4  and  C_6
REMARK    5  A    between atoms: N_10  and  C_11
REMARK    6  A    between atoms: C_11  and  C_12
REMARK    7  A    between atoms: C_12  and  O_13
REMARK    8  A    between atoms: O_13  and  C_14
REMARK    9  A    between atoms: C_14  and  C_15
REMARK   10  A    between atoms: C_14  and  C_22
REMARK                            x       y       z     vdW  Elec       q    Type
REMARK                         _______ _______ _______ _____ _____    ______ ____
ROOT
ATOM      1  C   UNL     1       0.480  10.250  18.768  0.00  0.00    +0.000 C 
ENDROOT
BRANCH   1   2
ATOM      2  C   UNL     1       1.290  11.487  19.135  0.00  0.00    +0.000 A 
ATOM      3  C   UNL     1       1.353  11.975  20.451  0.00  0.00    +0.000 A 
ATOM      4  C   UNL     1       1.954  13.207  20.730  0.00  0.00    +0.000 A 
ATOM      5  C   UNL     1       2.515  13.958  19.699  0.00  0.00    +0.000 A 
ATOM      6 CL   UNL     1       3.167  15.518  20.025  0.00  0.00    +0.000 Cl
ATOM      7  C   UNL     1       2.524  13.465  18.399  0.00  0.00    +0.000 A 
ATOM      8  C   UNL     1       1.924  12.235  18.122  0.00  0.00    +0.000 A 
ENDBRANCH   1   2
BRANCH   1   9
ATOM      9  C   UNL     1      -0.976  10.525  18.400  0.00  0.00    +0.000 A 
ATOM     10  C   UNL     1      -1.569   9.866  17.311  0.00  0.00    +0.000 A 
ATOM     11  C   UNL     1      -2.888  10.149  16.941  0.00  0.00    +0.000 A 
ATOM     12  C   UNL     1      -3.628  11.087  17.659  0.00  0.00    +0.000 A 
ATOM     13 CL   UNL     1      -5.255  11.421  17.212  0.00  0.00    +0.000 Cl
ATOM     14  C   UNL     1      -3.059  11.756  18.737  0.00  0.00    +0.000 A 
ATOM     15  C   UNL     1      -1.742  11.473  19.105  0.00  0.00    +0.000 A 
ENDBRANCH   1   9
BRANCH   1  16
ATOM     16  O   UNL     1       1.050   9.528  17.669  0.00  0.00    +0.000 OA
BRANCH  16  17
ATOM     17  C   UNL     1       2.298   8.875  17.879  0.00  0.00    +0.000 C 
BRANCH  17  18
ATOM     18  C   UNL     1       2.247   7.690  18.862  0.00  0.00    +0.000 C 
BRANCH  18  23
ATOM     19  C   UNL     1       3.438   4.259  17.726  0.00  0.00    +0.000 C 
ATOM     20  C   UNL     1       4.545   4.696  16.761  0.00  0.00    +0.000 C 
ATOM     21  C   UNL     1       5.220   5.976  17.235  0.00  0.00    +0.000 C 
ATOM     22  C   UNL     1       4.195   7.069  17.528  0.00  0.00    +0.000 C 
ATOM     23  N   UNL     1       3.204   6.621  18.519  0.00  0.00    +0.000 NA
ATOM     24  C   UNL     1       2.492   5.422  18.047  0.00  0.00    +0.000 C 
BRANCH  19  25
ATOM     25  C   UNL     1       4.012   3.593  18.967  0.00  0.00    +0.000 C 
ATOM     26  O   UNL     1       5.205   3.531  19.240  0.00  0.00    +0.000 OA
BRANCH  25  27
ATOM     27  O   UNL     1       3.032   2.910  19.626  0.00  0.00    +0.000 OA
BRANCH  27  29
ATOM     28  C   UNL     1       0.837   2.232  18.965  0.00  0.00    +0.000 C 
ATOM     29  C   UNL     1       2.323   1.949  18.831  0.00  0.00    +0.000 C 
ENDBRANCH  27  29
ENDBRANCH  25  27
ENDBRANCH  19  25
ENDBRANCH  18  23
ENDBRANCH  17  18
ENDBRANCH  16  17
ENDBRANCH   1  16
TORSDOF 9
ENDMDL
MODEL 6
REMARK VINA RESULT:      -7.2      2.342      2.878
REMARK  Name = 
REMARK  10 active torsions:
REMARK  status: ('A' for Active; 'I' for Inactive)
REMARK    1  A    between atoms: C_1  and  C_2
REMARK    2  A    between atoms: C_2  and  O_3
REMARK    3  A    between atoms: O_3  and  C_4
REMARK    4  A    between atoms: C_4  and  C_6
REMARK    5  A    between atoms: N_10  and  C_11
REMARK    6  A    between atoms: C_11  and  C_12
REMARK    7  A    between atoms: C_12  and  O_13
REMARK    8  A    between atoms: O_13  and  C_14
REMARK    9  A    between atoms: C_14  and  C_15
REMARK   10  A    between atoms: C_14  and  C_22
REMARK                            x       y       z     vdW  Elec       q    Type
REMARK                         _______ _______ _______ _____ _____    ______ ____
ROOT
ATOM      1  C   UNL     1       2.683   6.128  18.096  0.00  0.00    +0.000 C 
ENDROOT
BRANCH   1   2
ATOM      2  C   UNL     1       3.896   5.752  17.254  0.00  0.00    +0.000 A 
ATOM      3  C   UNL     1       4.743   6.722  16.692  0.00  0.00    +0.000 A 
ATOM      4  C   UNL     1       5.741   6.358  15.781  0.00  0.00    +0.000 A 
ATOM      5  C   UNL     1       5.914   5.020  15.433  0.00  0.00    +0.000 A 
ATOM      6 CL   UNL     1       7.074   4.583  14.238  0.00  0.00    +0.000 Cl
ATOM      7  C   UNL     1       5.131   4.036  16.027  0.00  0.00    +0.000 A 
ATOM      8  C   UNL     1       4.137   4.400  16.937  0.00  0.00    +0.000 A 
ENDBRANCH   1   2
BRANCH   1   9
ATOM      9  C   UNL     1       2.295   5.098  19.154  0.00  0.00    +0.000 A 
ATOM     10  C   UNL     1       1.313   4.132  18.878  0.00  0.00    +0.000 A 
ATOM     11  C   UNL     1       0.920   3.217  19.859  0.00  0.00    +0.000 A 
ATOM     12  C   UNL     1       1.508   3.253  21.123  0.00  0.00    +0.000 A 
ATOM     13 CL   UNL     1       1.035   2.114  22.323  0.00  0.00    +0.000 Cl
ATOM     14  C   UNL     1       2.477   4.205  21.420  0.00  0.00    +0.000 A 
ATOM     15  C   UNL     1       2.868   5.119  20.440  0.00  0.00    +0.000 A 
ENDBRANCH   1   9
BRANCH   1  16
ATOM     16  O   UNL     1       2.857   7.374  18.782  0.00  0.00    +0.000 OA
BRANCH  16  17
ATOM     17  C   UNL     1       1.711   8.198  18.964  0.00  0.00    +0.000 C 
BRANCH  17  18
ATOM     18  C   UNL     1       1.391   8.542  20.431  0.00  0.00    +0.000 C 
BRANCH  18  23
ATOM     19  C   UNL     1      -0.200  11.803  21.578  0.00  0.00    +0.000 C 
ATOM     20  C   UNL     1      -0.797  12.262  20.244  0.00  0.00    +0.000 C 
ATOM     21  C   UNL     1      -1.243  11.076  19.399  0.00  0.00    +0.000 C 
ATOM     22  C   UNL     1      -0.124  10.049  19.249  0.00  0.00    +0.000 C 
ATOM     23  N   UNL     1       0.356   9.586  20.561  0.00  0.00    +0.000 NA
ATOM     24  C   UNL     1       0.856  10.712  21.367  0.00  0.00    +0.000 C 
BRANCH  19  25
ATOM     25  C   UNL     1      -1.285  11.404  22.565  0.00  0.00    +0.000 C 
ATOM     26  O   UNL     1      -1.222  10.447  23.328  0.00  0.00    +0.000 OA
BRANCH  25  27
ATOM     27  O   UNL     1      -2.413  12.141  22.344  0.00  0.00    +0.000 OA
BRANCH  27  29
ATOM     28  C   UNL     1      -2.891  13.846  23.950  0.00  0.00    +0.000 C 
ATOM     29  C   UNL     1      -3.193  12.422  23.515  0.00  0.00    +0.000 C 
ENDBRANCH  27  29
ENDBRANCH  25  27
ENDBRANCH  19  25
ENDBRANCH  18  23
ENDBRANCH  17  18
ENDBRANCH  16  17
ENDBRANCH   1  16
TORSDOF 9
ENDMDL
MODEL 7
REMARK VINA RESULT:      -7.2      0.931      1.489
REMARK  Name = 
REMARK  10 active torsions:
REMARK  status: ('A' for Active; 'I' for Inactive)
REMARK    1  A    between atoms: C_1  and  C_2
REMARK    2  A    between atoms: C_2  and  O_3
REMARK    3  A    between atoms: O_3  and  C_4
REMARK    4  A    between atoms: C_4  and  C_6
REMARK    5  A    between atoms: N_10  and  C_11
REMARK    6  A    between atoms: C_11  and  C_12
REMARK    7  A    between atoms: C_12  and  O_13
REMARK    8  A    between atoms: O_13  and  C_14
REMARK    9  A    between atoms: C_14  and  C_15
REMARK   10  A    between atoms: C_14  and  C_22
REMARK                            x       y       z     vdW  Elec       q    Type
REMARK                         _______ _______ _______ _____ _____    ______ ____
ROOT
ATOM      1  C   UNL     1       2.553   6.092  18.304  0.00  0.00    +0.000 C 
ENDROOT
BRANCH   1   2
ATOM      2  C   UNL     1       3.640   5.699  17.311  0.00  0.00    +0.000 A 
ATOM      3  C   UNL     1       3.948   4.357  17.034  0.00  0.00    +0.000 A 
ATOM      4  C   UNL     1       5.064   4.024  16.258  0.00  0.00    +0.000 A 
ATOM      5  C   UNL     1       5.874   5.030  15.736  0.00  0.00    +0.000 A 
ATOM      6 CL   UNL     1       7.303   4.621  14.865  0.00  0.00    +0.000 Cl
ATOM      7  C   UNL     1       5.552   6.366  15.941  0.00  0.00    +0.000 A 
ATOM      8  C   UNL     1       4.437   6.697  16.715  0.00  0.00    +0.000 A 
ENDBRANCH   1   2
BRANCH   1   9
ATOM      9  C   UNL     1       2.204   5.016  19.329  0.00  0.00    +0.000 A 
ATOM     10  C   UNL     1       1.232   4.045  19.036  0.00  0.00    +0.000 A 
ATOM     11  C   UNL     1       0.875   3.086  19.990  0.00  0.00    +0.000 A 
ATOM     12  C   UNL     1       1.489   3.084  21.241  0.00  0.00    +0.000 A 
ATOM     13 CL   UNL     1       1.060   1.892  22.406  0.00  0.00    +0.000 Cl
ATOM     14  C   UNL     1       2.449   4.039  21.555  0.00  0.00    +0.000 A 
ATOM     15  C   UNL     1       2.804   4.997  20.603  0.00  0.00    +0.000 A 
ENDBRANCH   1   9
BRANCH   1  16
ATOM     16  O   UNL     1       2.889   7.271  19.046  0.00  0.00    +0.000 OA
BRANCH  16  17
ATOM     17  C   UNL     1       1.883   8.265  19.204  0.00  0.00    +0.000 C 
BRANCH  17  18
ATOM     18  C   UNL     1       1.861   9.341  18.102  0.00  0.00    +0.000 C 
BRANCH  18  23
ATOM     19  C   UNL     1      -1.070  11.105  19.768  0.00  0.00    +0.000 C 
ATOM     20  C   UNL     1      -0.432  12.480  19.986  0.00  0.00    +0.000 C 
ATOM     21  C   UNL     1       0.547  12.821  18.870  0.00  0.00    +0.000 C 
ATOM     22  C   UNL     1       1.561  11.700  18.659  0.00  0.00    +0.000 C 
ATOM     23  N   UNL     1       0.892  10.420  18.375  0.00  0.00    +0.000 NA
ATOM     24  C   UNL     1      -0.008  10.039  19.476  0.00  0.00    +0.000 C 
BRANCH  19  25
ATOM     25  C   UNL     1      -2.166  11.162  18.714  0.00  0.00    +0.000 C 
ATOM     26  O   UNL     1      -3.001  12.053  18.618  0.00  0.00    +0.000 OA
BRANCH  25  27
ATOM     27  O   UNL     1      -2.207   9.988  18.018  0.00  0.00    +0.000 OA
BRANCH  27  29
ATOM     28  C   UNL     1      -2.778   9.977  15.697  0.00  0.00    +0.000 C 
ATOM     29  C   UNL     1      -3.313   9.858  17.114  0.00  0.00    +0.000 C 
ENDBRANCH  27  29
ENDBRANCH  25  27
ENDBRANCH  19  25
ENDBRANCH  18  23
ENDBRANCH  17  18
ENDBRANCH  16  17
ENDBRANCH   1  16
TORSDOF 9
ENDMDL
MODEL 8
REMARK VINA RESULT:      -7.1      2.350      3.092
REMARK  Name = 
REMARK  10 active torsions:
REMARK  status: ('A' for Active; 'I' for Inactive)
REMARK    1  A    between atoms: C_1  and  C_2
REMARK    2  A    between atoms: C_2  and  O_3
REMARK    3  A    between atoms: O_3  and  C_4
REMARK    4  A    between atoms: C_4  and  C_6
REMARK    5  A    between atoms: N_10  and  C_11
REMARK    6  A    between atoms: C_11  and  C_12
REMARK    7  A    between atoms: C_12  and  O_13
REMARK    8  A    between atoms: O_13  and  C_14
REMARK    9  A    between atoms: C_14  and  C_15
REMARK   10  A    between atoms: C_14  and  C_22
REMARK                            x       y       z     vdW  Elec       q    Type
REMARK                         _______ _______ _______ _____ _____    ______ ____
ROOT
ATOM      1  C   UNL     1       2.599   6.133  18.303  0.00  0.00    +0.000 C 
ENDROOT
BRANCH   1   2
ATOM      2  C   UNL     1       3.776   5.777  17.403  0.00  0.00    +0.000 A 
ATOM      3  C   UNL     1       4.562   6.760  16.779  0.00  0.00    +0.000 A 
ATOM      4  C   UNL     1       5.520   6.409  15.821  0.00  0.00    +0.000 A 
ATOM      5  C   UNL     1       5.714   5.070  15.488  0.00  0.00    +0.000 A 
ATOM      6 CL   UNL     1       6.821   4.644  14.239  0.00  0.00    +0.000 Cl
ATOM      7  C   UNL     1       4.995   4.075  16.140  0.00  0.00    +0.000 A 
ATOM      8  C   UNL     1       4.040   4.426  17.097  0.00  0.00    +0.000 A 
ENDBRANCH   1   2
BRANCH   1   9
ATOM      9  C   UNL     1       2.228   5.060  19.324  0.00  0.00    +0.000 A 
ATOM     10  C   UNL     1       1.211   4.133  19.041  0.00  0.00    +0.000 A 
ATOM     11  C   UNL     1       0.834   3.179  19.992  0.00  0.00    +0.000 A 
ATOM     12  C   UNL     1       1.473   3.138  21.230  0.00  0.00    +0.000 A 
ATOM     13 CL   UNL     1       1.020   1.952  22.391  0.00  0.00    +0.000 Cl
ATOM     14  C   UNL     1       2.478   4.050  21.534  0.00  0.00    +0.000 A 
ATOM     15  C   UNL     1       2.853   5.003  20.585  0.00  0.00    +0.000 A 
ENDBRANCH   1   9
BRANCH   1  16
ATOM     16  O   UNL     1       2.820   7.341  19.041  0.00  0.00    +0.000 OA
BRANCH  16  17
ATOM     17  C   UNL     1       1.691   8.157  19.333  0.00  0.00    +0.000 C 
BRANCH  17  18
ATOM     18  C   UNL     1       1.353   8.278  20.831  0.00  0.00    +0.000 C 
BRANCH  18  23
ATOM     19  C   UNL     1      -0.376  11.628  20.314  0.00  0.00    +0.000 C 
ATOM     20  C   UNL     1      -1.310  11.607  21.527  0.00  0.00    +0.000 C 
ATOM     21  C   UNL     1      -0.670  10.888  22.707  0.00  0.00    +0.000 C 
ATOM     22  C   UNL     1      -0.157   9.508  22.305  0.00  0.00    +0.000 C 
ATOM     23  N   UNL     1       0.796   9.597  21.186  0.00  0.00    +0.000 NA
ATOM     24  C   UNL     1       0.174  10.229  20.012  0.00  0.00    +0.000 C 
BRANCH  19  25
ATOM     25  C   UNL     1       0.713  12.679  20.468  0.00  0.00    +0.000 C 
ATOM     26  O   UNL     1       1.398  12.837  21.472  0.00  0.00    +0.000 OA
BRANCH  25  27
ATOM     27  O   UNL     1       0.685  13.541  19.410  0.00  0.00    +0.000 OA
BRANCH  27  29
ATOM     28  C   UNL     1       2.522  12.656  18.162  0.00  0.00    +0.000 C 
ATOM     29  C   UNL     1       1.970  13.881  18.871  0.00  0.00    +0.000 C 
ENDBRANCH  27  29
ENDBRANCH  25  27
ENDBRANCH  19  25
ENDBRANCH  18  23
ENDBRANCH  17  18
ENDBRANCH  16  17
ENDBRANCH   1  16
TORSDOF 9
ENDMDL
MODEL 9
REMARK VINA RESULT:      -7.1      0.577      1.076
REMARK  Name = 
REMARK  10 active torsions:
REMARK  status: ('A' for Active; 'I' for Inactive)
REMARK    1  A    between atoms: C_1  and  C_2
REMARK    2  A    between atoms: C_2  and  O_3
REMARK    3  A    between atoms: O_3  and  C_4
REMARK    4  A    between atoms: C_4  and  C_6
REMARK    5  A    between atoms: N_10  and  C_11
REMARK    6  A    between atoms: C_11  and  C_12
REMARK    7  A    between atoms: C_12  and  O_13
REMARK    8  A    between atoms: O_13  and  C_14
REMARK    9  A    between atoms: C_14  and  C_15
REMARK   10  A    between atoms: C_14  and  C_22
REMARK                            x       y       z     vdW  Elec       q    Type
REMARK                         _______ _______ _______ _____ _____    ______ ____
ROOT
ATOM      1  C   UNL     1       2.617   6.190  18.027  0.00  0.00    +0.000 C 
ENDROOT
BRANCH   1   2
ATOM      2  C   UNL     1       3.890   5.830  17.273  0.00  0.00    +0.000 A 
ATOM      3  C   UNL     1       4.836   6.799  16.899  0.00  0.00    +0.000 A 
ATOM      4  C   UNL     1       5.903   6.470  16.056  0.00  0.00    +0.000 A 
ATOM      5  C   UNL     1       6.048   5.165  15.591  0.00  0.00    +0.000 A 
ATOM      6 CL   UNL     1       7.303   4.781  14.476  0.00  0.00    +0.000 Cl
ATOM      7  C   UNL     1       5.163   4.174  16.001  0.00  0.00    +0.000 A 
ATOM      8  C   UNL     1       4.099   4.503  16.843  0.00  0.00    +0.000 A 
ENDBRANCH   1   2
BRANCH   1   9
ATOM      9  C   UNL     1       2.209   5.191  19.108  0.00  0.00    +0.000 A 
ATOM     10  C   UNL     1       2.735   5.296  20.405  0.00  0.00    +0.000 A 
ATOM     11  C   UNL     1       2.402   4.356  21.386  0.00  0.00    +0.000 A 
ATOM     12  C   UNL     1       1.535   3.308  21.082  0.00  0.00    +0.000 A 
ATOM     13 CL   UNL     1       1.113   2.163  22.295  0.00  0.00    +0.000 Cl
ATOM     14  C   UNL     1       1.006   3.182  19.802  0.00  0.00    +0.000 A 
ATOM     15  C   UNL     1       1.341   4.119  18.823  0.00  0.00    +0.000 A 
ENDBRANCH   1   9
BRANCH   1  16
ATOM     16  O   UNL     1       2.701   7.471  18.664  0.00  0.00    +0.000 OA
BRANCH  16  17
ATOM     17  C   UNL     1       1.779   8.476  18.258  0.00  0.00    +0.000 C 
BRANCH  17  18
ATOM     18  C   UNL     1       1.246   9.361  19.401  0.00  0.00    +0.000 C 
BRANCH  18  23
ATOM     19  C   UNL     1      -1.888  11.506  19.167  0.00  0.00    +0.000 C 
ATOM     20  C   UNL     1      -1.232  12.890  19.153  0.00  0.00    +0.000 C 
ATOM     21  C   UNL     1       0.115  12.858  18.444  0.00  0.00    +0.000 C 
ATOM     22  C   UNL     1       1.013  11.760  19.007  0.00  0.00    +0.000 C 
ATOM     23  N   UNL     1       0.363  10.442  18.923  0.00  0.00    +0.000 NA
ATOM     24  C   UNL     1      -0.911  10.434  19.661  0.00  0.00    +0.000 C 
BRANCH  19  25
ATOM     25  C   UNL     1      -2.513  11.173  17.821  0.00  0.00    +0.000 C 
ATOM     26  O   UNL     1      -2.079  11.542  16.736  0.00  0.00    +0.000 OA
BRANCH  25  27
ATOM     27  O   UNL     1      -3.726  10.574  18.004  0.00  0.00    +0.000 OA
BRANCH  27  29
ATOM     28  C   UNL     1      -5.443  12.219  18.246  0.00  0.00    +0.000 C 
ATOM     29  C   UNL     1      -4.819  11.195  17.314  0.00  0.00    +0.000 C 
ENDBRANCH  27  29
ENDBRANCH  25  27
ENDBRANCH  19  25
ENDBRANCH  18  23
ENDBRANCH  17  18
ENDBRANCH  16  17
ENDBRANCH   1  16
TORSDOF 9
ENDMDL
