MODEL 1
REMARK VINA RESULT:      -7.5      0.000      0.000
REMARK  Name = 
REMARK  4 active torsions:
REMARK  status: ('A' for Active; 'I' for Inactive)
REMARK    1  A    between atoms: C_2  and  C_3
REMARK    2  A    between atoms: C_3  and  N_4
REMARK    3  A    between atoms: N_13  and  C_14
REMARK    4  A    between atoms: C_14  and  C_15
REMARK                            x       y       z     vdW  Elec       q    Type
REMARK                         _______ _______ _______ _____ _____    ______ ____
ROOT
ATOM      1  O   UNL     1       2.280   5.911  20.472  0.00  0.00    +0.000 OA
ATOM      2  C   UNL     1       2.255   6.898  19.734  0.00  0.00    +0.000 C 
ATOM      3  N   UNL     1       1.768   8.126  20.123  0.00  0.00    +0.000 N 
ATOM      4  H   UNL     1       2.085   8.918  19.577  0.00  0.00    +0.000 HD
ENDROOT
BRANCH   2   5
ATOM      5  C   UNL     1       2.726   6.830  18.276  0.00  0.00    +0.000 C 
BRANCH   5   6
ATOM      6  N   UNL     1       3.941   5.979  18.119  0.00  0.00    +0.000 NA
ATOM      7  C   UNL     1       3.570   4.687  17.504  0.00  0.00    +0.000 C 
ATOM      8  C   UNL     1       4.714   3.683  17.301  0.00  0.00    +0.000 C 
ATOM      9  C   UNL     1       5.613   4.004  16.119  0.00  0.00    +0.000 C 
ATOM     10  S   UNL     1       6.987   5.067  16.527  0.00  0.00    +0.000 S 
ATOM     11  O   UNL     1       7.333   5.804  15.323  0.00  0.00    +0.000 OA
ATOM     12  O   UNL     1       7.984   4.258  17.205  0.00  0.00    +0.000 OA
ATOM     13  C   UNL     1       6.346   6.229  17.702  0.00  0.00    +0.000 C 
ATOM     14  C   UNL     1       4.954   6.709  17.328  0.00  0.00    +0.000 C 
ENDBRANCH   5   6
ENDBRANCH   2   5
BRANCH   3  15
ATOM     15  C   UNL     1       1.339   8.364  21.483  0.00  0.00    +0.000 C 
BRANCH  15  16
ATOM     16  C   UNL     1       0.397   9.531  21.570  0.00  0.00    +0.000 A 
ATOM     17  C   UNL     1       0.069  10.279  20.429  0.00  0.00    +0.000 A 
ATOM     18  C   UNL     1      -0.823  11.352  20.516  0.00  0.00    +0.000 A 
ATOM     19  C   UNL     1      -1.386  11.699  21.744  0.00  0.00    +0.000 A 
ATOM     20  C   UNL     1      -1.049  10.976  22.888  0.00  0.00    +0.000 A 
ATOM     21  C   UNL     1      -0.164   9.905  22.793  0.00  0.00    +0.000 A 
ATOM     22  F   UNL     1       0.149   9.226  23.905  0.00  0.00    +0.000 F 
ENDBRANCH  15  16
ENDBRANCH   3  15
TORSDOF 4
ENDMDL
MODEL 2
REMARK VINA RESULT:      -7.4      2.267      3.123
REMARK  Name = 
REMARK  4 active torsions:
REMARK  status: ('A' for Active; 'I' for Inactive)
REMARK    1  A    between atoms: C_2  and  C_3
REMARK    2  A    between atoms: C_3  and  N_4
REMARK    3  A    between atoms: N_13  and  C_14
REMARK    4  A    between atoms: C_14  and  C_15
REMARK                            x       y       z     vdW  Elec       q    Type
REMARK                         _______ _______ _______ _____ _____    ______ ____
ROOT
ATOM      1  O   UNL     1       1.847   3.561  19.758  0.00  0.00    +0.000 OA
ATOM      2  C   UNL     1       2.942   4.075  19.997  0.00  0.00    +0.000 C 
ATOM      3  N   UNL     1       3.099   5.388  20.381  0.00  0.00    +0.000 N 
ATOM      4  H   UNL     1       3.968   5.609  20.852  0.00  0.00    +0.000 HD
ENDROOT
BRANCH   2   5
ATOM      5  C   UNL     1       4.254   3.296  19.833  0.00  0.00    +0.000 C 
BRANCH   5   6
ATOM      6  N   UNL     1       4.998   3.706  18.607  0.00  0.00    +0.000 NA
ATOM      7  C   UNL     1       4.049   3.928  17.497  0.00  0.00    +0.000 C 
ATOM      8  C   UNL     1       4.667   4.331  16.150  0.00  0.00    +0.000 C 
ATOM      9  C   UNL     1       5.108   5.783  16.084  0.00  0.00    +0.000 C 
ATOM     10  S   UNL     1       6.787   6.052  16.621  0.00  0.00    +0.000 S 
ATOM     11  O   UNL     1       6.863   7.408  17.136  0.00  0.00    +0.000 OA
ATOM     12  O   UNL     1       7.668   5.622  15.550  0.00  0.00    +0.000 OA
ATOM     13  C   UNL     1       7.023   4.947  17.988  0.00  0.00    +0.000 C 
ATOM     14  C   UNL     1       5.811   4.905  18.903  0.00  0.00    +0.000 C 
ENDBRANCH   5   6
ENDBRANCH   2   5
BRANCH   3  15
ATOM     15  C   UNL     1       1.954   6.235  20.631  0.00  0.00    +0.000 C 
BRANCH  15  16
ATOM     16  C   UNL     1       1.930   7.421  19.708  0.00  0.00    +0.000 A 
ATOM     17  C   UNL     1       2.598   7.387  18.475  0.00  0.00    +0.000 A 
ATOM     18  C   UNL     1       2.555   8.488  17.614  0.00  0.00    +0.000 A 
ATOM     19  C   UNL     1       1.858   9.639  17.981  0.00  0.00    +0.000 A 
ATOM     20  C   UNL     1       1.210   9.691  19.215  0.00  0.00    +0.000 A 
ATOM     21  C   UNL     1       1.253   8.588  20.064  0.00  0.00    +0.000 A 
ATOM     22  F   UNL     1       0.626   8.661  21.247  0.00  0.00    +0.000 F 
ENDBRANCH  15  16
ENDBRANCH   3  15
TORSDOF 4
ENDMDL
MODEL 3
REMARK VINA RESULT:      -7.3      4.933      8.942
REMARK  Name = 
REMARK  4 active torsions:
REMARK  status: ('A' for Active; 'I' for Inactive)
REMARK    1  A    between atoms: C_2  and  C_3
REMARK    2  A    between atoms: C_3  and  N_4
REMARK    3  A    between atoms: N_13  and  C_14
REMARK    4  A    between atoms: C_14  and  C_15
REMARK                            x       y       z     vdW  Elec       q    Type
REMARK                         _______ _______ _______ _____ _____    ______ ____
ROOT
ATOM      1  O   UNL     1       6.422   5.076  18.322  0.00  0.00    +0.000 OA
ATOM      2  C   UNL     1       5.648   5.626  17.537  0.00  0.00    +0.000 C 
ATOM      3  N   UNL     1       5.916   5.796  16.196  0.00  0.00    +0.000 N 
ATOM      4  H   UNL     1       5.111   5.954  15.602  0.00  0.00    +0.000 HD
ENDROOT
BRANCH   2   5
ATOM      5  C   UNL     1       4.315   6.227  18.001  0.00  0.00    +0.000 C 
BRANCH   5   6
ATOM      6  N   UNL     1       3.724   5.465  19.139  0.00  0.00    +0.000 NA
ATOM      7  C   UNL     1       2.495   6.138  19.607  0.00  0.00    +0.000 C 
ATOM      8  C   UNL     1       1.780   5.487  20.800  0.00  0.00    +0.000 C 
ATOM      9  C   UNL     1       0.981   4.247  20.437  0.00  0.00    +0.000 C 
ATOM     10  S   UNL     1       1.919   2.733  20.526  0.00  0.00    +0.000 S 
ATOM     11  O   UNL     1       1.327   1.803  19.579  0.00  0.00    +0.000 OA
ATOM     12  O   UNL     1       2.046   2.374  21.927  0.00  0.00    +0.000 OA
ATOM     13  C   UNL     1       3.536   3.149  19.928  0.00  0.00    +0.000 C 
ATOM     14  C   UNL     1       3.478   4.069  18.721  0.00  0.00    +0.000 C 
ENDBRANCH   5   6
ENDBRANCH   2   5
BRANCH   3  15
ATOM     15  C   UNL     1       7.107   5.236  15.596  0.00  0.00    +0.000 C 
BRANCH  15  16
ATOM     16  C   UNL     1       6.822   4.656  14.239  0.00  0.00    +0.000 A 
ATOM     17  C   UNL     1       5.743   3.781  14.041  0.00  0.00    +0.000 A 
ATOM     18  C   UNL     1       5.475   3.261  12.772  0.00  0.00    +0.000 A 
ATOM     19  C   UNL     1       6.288   3.598  11.689  0.00  0.00    +0.000 A 
ATOM     20  C   UNL     1       7.376   4.448  11.880  0.00  0.00    +0.000 A 
ATOM     21  C   UNL     1       7.634   4.966  13.147  0.00  0.00    +0.000 A 
ATOM     22  F   UNL     1       8.687   5.780  13.309  0.00  0.00    +0.000 F 
ENDBRANCH  15  16
ENDBRANCH   3  15
TORSDOF 4
ENDMDL
MODEL 4
REMARK VINA RESULT:      -7.2      1.593      2.169
REMARK  Name = 
REMARK  4 active torsions:
REMARK  status: ('A' for Active; 'I' for Inactive)
REMARK    1  A    between atoms: C_2  and  C_3
REMARK    2  A    between atoms: C_3  and  N_4
REMARK    3  A    between atoms: N_13  and  C_14
REMARK    4  A    between atoms: C_14  and  C_15
REMARK                            x       y       z     vdW  Elec       q    Type
REMARK                         _______ _______ _______ _____ _____    ______ ____
ROOT
ATOM      1  O   UNL     1       1.197   4.717  20.529  0.00  0.00    +0.000 OA
ATOM      2  C   UNL     1       2.091   5.319  19.931  0.00  0.00    +0.000 C 
ATOM      3  N   UNL     1       2.303   6.675  20.044  0.00  0.00    +0.000 N 
ATOM      4  H   UNL     1       3.226   7.000  19.784  0.00  0.00    +0.000 HD
ENDROOT
BRANCH   2   5
ATOM      5  C   UNL     1       3.031   4.606  18.950  0.00  0.00    +0.000 C 
BRANCH   5   6
ATOM      6  N   UNL     1       4.281   5.383  18.708  0.00  0.00    +0.000 NA
ATOM      7  C   UNL     1       5.398   4.783  19.468  0.00  0.00    +0.000 C 
ATOM      8  C   UNL     1       6.755   5.490  19.345  0.00  0.00    +0.000 C 
ATOM      9  C   UNL     1       7.477   5.214  18.037  0.00  0.00    +0.000 C 
ATOM     10  S   UNL     1       7.072   6.362  16.734  0.00  0.00    +0.000 S 
ATOM     11  O   UNL     1       7.248   5.662  15.472  0.00  0.00    +0.000 OA
ATOM     12  O   UNL     1       7.789   7.597  16.995  0.00  0.00    +0.000 OA
ATOM     13  C   UNL     1       5.341   6.694  16.925  0.00  0.00    +0.000 C 
ATOM     14  C   UNL     1       4.553   5.438  17.256  0.00  0.00    +0.000 C 
ENDBRANCH   5   6
ENDBRANCH   2   5
BRANCH   3  15
ATOM     15  C   UNL     1       1.535   7.477  20.971  0.00  0.00    +0.000 C 
BRANCH  15  16
ATOM     16  C   UNL     1       0.979   8.707  20.310  0.00  0.00    +0.000 A 
ATOM     17  C   UNL     1       1.462   9.136  19.065  0.00  0.00    +0.000 A 
ATOM     18  C   UNL     1       0.926  10.271  18.449  0.00  0.00    +0.000 A 
ATOM     19  C   UNL     1      -0.087  10.996  19.075  0.00  0.00    +0.000 A 
ATOM     20  C   UNL     1      -0.558  10.591  20.323  0.00  0.00    +0.000 A 
ATOM     21  C   UNL     1      -0.023   9.457  20.928  0.00  0.00    +0.000 A 
ATOM     22  F   UNL     1      -0.488   9.086  22.129  0.00  0.00    +0.000 F 
ENDBRANCH  15  16
ENDBRANCH   3  15
TORSDOF 4
ENDMDL
MODEL 5
REMARK VINA RESULT:      -7.2      3.225      4.051
REMARK  Name = 
REMARK  4 active torsions:
REMARK  status: ('A' for Active; 'I' for Inactive)
REMARK    1  A    between atoms: C_2  and  C_3
REMARK    2  A    between atoms: C_3  and  N_4
REMARK    3  A    between atoms: N_13  and  C_14
REMARK    4  A    between atoms: C_14  and  C_15
REMARK                            x       y       z     vdW  Elec       q    Type
REMARK                         _______ _______ _______ _____ _____    ______ ____
ROOT
ATOM      1  O   UNL     1       2.240   8.941  17.087  0.00  0.00    +0.000 OA
ATOM      2  C   UNL     1       2.264   8.267  18.119  0.00  0.00    +0.000 C 
ATOM      3  N   UNL     1       1.559   8.593  19.257  0.00  0.00    +0.000 N 
ATOM      4  H   UNL     1       1.392   7.833  19.905  0.00  0.00    +0.000 HD
ENDROOT
BRANCH   2   5
ATOM      5  C   UNL     1       3.136   7.011  18.246  0.00  0.00    +0.000 C 
BRANCH   5   6
ATOM      6  N   UNL     1       2.410   5.891  18.910  0.00  0.00    +0.000 NA
ATOM      7  C   UNL     1       2.052   4.864  17.910  0.00  0.00    +0.000 C 
ATOM      8  C   UNL     1       1.270   3.651  18.436  0.00  0.00    +0.000 C 
ATOM      9  C   UNL     1       2.126   2.645  19.184  0.00  0.00    +0.000 C 
ATOM     10  S   UNL     1       2.258   2.970  20.933  0.00  0.00    +0.000 S 
ATOM     11  O   UNL     1       3.530   2.426  21.378  0.00  0.00    +0.000 OA
ATOM     12  O   UNL     1       1.018   2.543  21.556  0.00  0.00    +0.000 OA
ATOM     13  C   UNL     1       2.352   4.735  21.075  0.00  0.00    +0.000 C 
ATOM     14  C   UNL     1       3.241   5.346  20.005  0.00  0.00    +0.000 C 
ENDBRANCH   5   6
ENDBRANCH   2   5
BRANCH   3  15
ATOM     15  C   UNL     1       0.649   9.717  19.276  0.00  0.00    +0.000 C 
BRANCH  15  16
ATOM     16  C   UNL     1       0.095   9.957  20.652  0.00  0.00    +0.000 A 
ATOM     17  C   UNL     1       0.148   8.956  21.635  0.00  0.00    +0.000 A 
ATOM     18  C   UNL     1      -0.353   9.195  22.918  0.00  0.00    +0.000 A 
ATOM     19  C   UNL     1      -0.925  10.428  23.230  0.00  0.00    +0.000 A 
ATOM     20  C   UNL     1      -1.003  11.421  22.254  0.00  0.00    +0.000 A 
ATOM     21  C   UNL     1      -0.497  11.178  20.979  0.00  0.00    +0.000 A 
ATOM     22  F   UNL     1      -0.586  12.145  20.055  0.00  0.00    +0.000 F 
ENDBRANCH  15  16
ENDBRANCH   3  15
TORSDOF 4
ENDMDL
MODEL 6
REMARK VINA RESULT:      -7.2      5.398      8.935
REMARK  Name = 
REMARK  4 active torsions:
REMARK  status: ('A' for Active; 'I' for Inactive)
REMARK    1  A    between atoms: C_2  and  C_3
REMARK    2  A    between atoms: C_3  and  N_4
REMARK    3  A    between atoms: N_13  and  C_14
REMARK    4  A    between atoms: C_14  and  C_15
REMARK                            x       y       z     vdW  Elec       q    Type
REMARK                         _______ _______ _______ _____ _____    ______ ____
ROOT
ATOM      1  O   UNL     1       6.692   7.574  16.928  0.00  0.00    +0.000 OA
ATOM      2  C   UNL     1       5.856   6.669  16.919  0.00  0.00    +0.000 C 
ATOM      3  N   UNL     1       5.983   5.524  16.162  0.00  0.00    +0.000 N 
ATOM      4  H   UNL     1       5.430   4.732  16.466  0.00  0.00    +0.000 HD
ENDROOT
BRANCH   2   5
ATOM      5  C   UNL     1       4.552   6.761  17.723  0.00  0.00    +0.000 C 
BRANCH   5   6
ATOM      6  N   UNL     1       3.975   5.416  18.008  0.00  0.00    +0.000 NA
ATOM      7  C   UNL     1       4.751   4.755  19.078  0.00  0.00    +0.000 C 
ATOM      8  C   UNL     1       4.295   3.341  19.469  0.00  0.00    +0.000 C 
ATOM      9  C   UNL     1       3.048   3.314  20.336  0.00  0.00    +0.000 C 
ATOM     10  S   UNL     1       1.526   3.250  19.409  0.00  0.00    +0.000 S 
ATOM     11  O   UNL     1       0.499   3.878  20.222  0.00  0.00    +0.000 OA
ATOM     12  O   UNL     1       1.356   1.890  18.932  0.00  0.00    +0.000 OA
ATOM     13  C   UNL     1       1.796   4.286  17.995  0.00  0.00    +0.000 C 
ATOM     14  C   UNL     1       2.545   5.558  18.355  0.00  0.00    +0.000 C 
ENDBRANCH   5   6
ENDBRANCH   2   5
BRANCH   3  15
ATOM     15  C   UNL     1       7.180   5.265  15.394  0.00  0.00    +0.000 C 
BRANCH  15  16
ATOM     16  C   UNL     1       6.859   4.653  14.059  0.00  0.00    +0.000 A 
ATOM     17  C   UNL     1       5.761   3.792  13.907  0.00  0.00    +0.000 A 
ATOM     18  C   UNL     1       5.460   3.241  12.658  0.00  0.00    +0.000 A 
ATOM     19  C   UNL     1       6.257   3.532  11.552  0.00  0.00    +0.000 A 
ATOM     20  C   UNL     1       7.364   4.369  11.697  0.00  0.00    +0.000 A 
ATOM     21  C   UNL     1       7.655   4.917  12.944  0.00  0.00    +0.000 A 
ATOM     22  F   UNL     1       8.725   5.716  13.063  0.00  0.00    +0.000 F 
ENDBRANCH  15  16
ENDBRANCH   3  15
TORSDOF 4
ENDMDL
MODEL 7
REMARK VINA RESULT:      -7.1      5.623      8.793
REMARK  Name = 
REMARK  4 active torsions:
REMARK  status: ('A' for Active; 'I' for Inactive)
REMARK    1  A    between atoms: C_2  and  C_3
REMARK    2  A    between atoms: C_3  and  N_4
REMARK    3  A    between atoms: N_13  and  C_14
REMARK    4  A    between atoms: C_14  and  C_15
REMARK                            x       y       z     vdW  Elec       q    Type
REMARK                         _______ _______ _______ _____ _____    ______ ____
ROOT
ATOM      1  O   UNL     1       8.082   4.404  17.959  0.00  0.00    +0.000 OA
ATOM      2  C   UNL     1       7.028   5.034  17.853  0.00  0.00    +0.000 C 
ATOM      3  N   UNL     1       6.689   5.767  16.737  0.00  0.00    +0.000 N 
ATOM      4  H   UNL     1       5.702   5.966  16.623  0.00  0.00    +0.000 HD
ENDROOT
BRANCH   2   5
ATOM      5  C   UNL     1       6.006   5.101  18.995  0.00  0.00    +0.000 C 
BRANCH   5   6
ATOM      6  N   UNL     1       4.754   4.359  18.670  0.00  0.00    +0.000 NA
ATOM      7  C   UNL     1       4.836   2.983  19.203  0.00  0.00    +0.000 C 
ATOM      8  C   UNL     1       3.627   2.078  18.924  0.00  0.00    +0.000 C 
ATOM      9  C   UNL     1       2.426   2.365  19.809  0.00  0.00    +0.000 C 
ATOM     10  S   UNL     1       1.314   3.588  19.139  0.00  0.00    +0.000 S 
ATOM     11  O   UNL     1       0.655   4.233  20.262  0.00  0.00    +0.000 OA
ATOM     12  O   UNL     1       0.532   2.950  18.096  0.00  0.00    +0.000 OA
ATOM     13  C   UNL     1       2.358   4.795  18.366  0.00  0.00    +0.000 C 
ATOM     14  C   UNL     1       3.590   5.101  19.201  0.00  0.00    +0.000 C 
ENDBRANCH   5   6
ENDBRANCH   2   5
BRANCH   3  15
ATOM     15  C   UNL     1       7.523   5.759  15.556  0.00  0.00    +0.000 C 
BRANCH  15  16
ATOM     16  C   UNL     1       6.907   4.949  14.450  0.00  0.00    +0.000 A 
ATOM     17  C   UNL     1       5.727   4.220  14.662  0.00  0.00    +0.000 A 
ATOM     18  C   UNL     1       5.152   3.484  13.621  0.00  0.00    +0.000 A 
ATOM     19  C   UNL     1       5.755   3.457  12.364  0.00  0.00    +0.000 A 
ATOM     20  C   UNL     1       6.940   4.160  12.150  0.00  0.00    +0.000 A 
ATOM     21  C   UNL     1       7.504   4.894  13.189  0.00  0.00    +0.000 A 
ATOM     22  F   UNL     1       8.645   5.560  12.962  0.00  0.00    +0.000 F 
ENDBRANCH  15  16
ENDBRANCH   3  15
TORSDOF 4
ENDMDL
MODEL 8
REMARK VINA RESULT:      -7.1      5.562      8.872
REMARK  Name = 
REMARK  4 active torsions:
REMARK  status: ('A' for Active; 'I' for Inactive)
REMARK    1  A    between atoms: C_2  and  C_3
REMARK    2  A    between atoms: C_3  and  N_4
REMARK    3  A    between atoms: N_13  and  C_14
REMARK    4  A    between atoms: C_14  and  C_15
REMARK                            x       y       z     vdW  Elec       q    Type
REMARK                         _______ _______ _______ _____ _____    ______ ____
ROOT
ATOM      1  O   UNL     1       5.716   7.144  17.401  0.00  0.00    +0.000 OA
ATOM      2  C   UNL     1       5.969   5.957  17.618  0.00  0.00    +0.000 C 
ATOM      3  N   UNL     1       6.661   5.154  16.739  0.00  0.00    +0.000 N 
ATOM      4  H   UNL     1       7.084   4.325  17.140  0.00  0.00    +0.000 HD
ENDROOT
BRANCH   2   5
ATOM      5  C   UNL     1       5.479   5.244  18.885  0.00  0.00    +0.000 C 
BRANCH   5   6
ATOM      6  N   UNL     1       4.205   4.505  18.654  0.00  0.00    +0.000 NA
ATOM      7  C   UNL     1       4.497   3.092  18.335  0.00  0.00    +0.000 C 
ATOM      8  C   UNL     1       3.281   2.200  18.041  0.00  0.00    +0.000 C 
ATOM      9  C   UNL     1       2.515   1.776  19.283  0.00  0.00    +0.000 C 
ATOM     10  S   UNL     1       1.222   2.911  19.754  0.00  0.00    +0.000 S 
ATOM     11  O   UNL     1       1.046   2.791  21.191  0.00  0.00    +0.000 OA
ATOM     12  O   UNL     1       0.101   2.700  18.856  0.00  0.00    +0.000 OA
ATOM     13  C   UNL     1       1.876   4.526  19.427  0.00  0.00    +0.000 C 
ATOM     14  C   UNL     1       3.333   4.646  19.840  0.00  0.00    +0.000 C 
ENDBRANCH   5   6
ENDBRANCH   2   5
BRANCH   3  15
ATOM     15  C   UNL     1       7.235   5.693  15.526  0.00  0.00    +0.000 C 
BRANCH  15  16
ATOM     16  C   UNL     1       6.819   4.903  14.318  0.00  0.00    +0.000 A 
ATOM     17  C   UNL     1       5.669   4.099  14.344  0.00  0.00    +0.000 A 
ATOM     18  C   UNL     1       5.280   3.382  13.209  0.00  0.00    +0.000 A 
ATOM     19  C   UNL     1       6.039   3.448  12.042  0.00  0.00    +0.000 A 
ATOM     20  C   UNL     1       7.196   4.227  12.013  0.00  0.00    +0.000 A 
ATOM     21  C   UNL     1       7.575   4.942  13.145  0.00  0.00    +0.000 A 
ATOM     22  F   UNL     1       8.692   5.682  13.097  0.00  0.00    +0.000 F 
ENDBRANCH  15  16
ENDBRANCH   3  15
TORSDOF 4
ENDMDL
MODEL 9
REMARK VINA RESULT:      -7.1      5.427      7.716
REMARK  Name = 
REMARK  4 active torsions:
REMARK  status: ('A' for Active; 'I' for Inactive)
REMARK    1  A    between atoms: C_2  and  C_3
REMARK    2  A    between atoms: C_3  and  N_4
REMARK    3  A    between atoms: N_13  and  C_14
REMARK    4  A    between atoms: C_14  and  C_15
REMARK                            x       y       z     vdW  Elec       q    Type
REMARK                         _______ _______ _______ _____ _____    ______ ____
ROOT
ATOM      1  O   UNL     1       6.983   7.766  16.604  0.00  0.00    +0.000 OA
ATOM      2  C   UNL     1       7.509   7.502  17.687  0.00  0.00    +0.000 C 
ATOM      3  N   UNL     1       8.344   8.368  18.358  0.00  0.00    +0.000 N 
ATOM      4  H   UNL     1       8.452   8.195  19.350  0.00  0.00    +0.000 HD
ENDROOT
BRANCH   2   5
ATOM      5  C   UNL     1       7.318   6.142  18.370  0.00  0.00    +0.000 C 
BRANCH   5   6
ATOM      6  N   UNL     1       5.931   5.620  18.199  0.00  0.00    +0.000 NA
ATOM      7  C   UNL     1       5.914   4.579  17.151  0.00  0.00    +0.000 C 
ATOM      8  C   UNL     1       4.545   3.959  16.836  0.00  0.00    +0.000 C 
ATOM      9  C   UNL     1       4.074   2.949  17.867  0.00  0.00    +0.000 C 
ATOM     10  S   UNL     1       3.134   3.666  19.203  0.00  0.00    +0.000 S 
ATOM     11  O   UNL     1       3.324   2.818  20.367  0.00  0.00    +0.000 OA
ATOM     12  O   UNL     1       1.799   3.942  18.704  0.00  0.00    +0.000 OA
ATOM     13  C   UNL     1       3.915   5.222  19.541  0.00  0.00    +0.000 C 
ATOM     14  C   UNL     1       5.430   5.120  19.497  0.00  0.00    +0.000 C 
ENDBRANCH   5   6
ENDBRANCH   2   5
BRANCH   3  15
ATOM     15  C   UNL     1       8.578   9.709  17.870  0.00  0.00    +0.000 C 
BRANCH  15  16
ATOM     16  C   UNL     1       9.361  10.528  18.857  0.00  0.00    +0.000 A 
ATOM     17  C   UNL     1       8.972  10.599  20.204  0.00  0.00    +0.000 A 
ATOM     18  C   UNL     1       9.716  11.348  21.119  0.00  0.00    +0.000 A 
ATOM     19  C   UNL     1      10.848  12.047  20.698  0.00  0.00    +0.000 A 
ATOM     20  C   UNL     1      11.230  12.002  19.358  0.00  0.00    +0.000 A 
ATOM     21  C   UNL     1      10.486  11.249  18.453  0.00  0.00    +0.000 A 
ATOM     22  F   UNL     1      10.869  11.221  17.169  0.00  0.00    +0.000 F 
ENDBRANCH  15  16
ENDBRANCH   3  15
TORSDOF 4
ENDMDL
