MODEL 1
REMARK VINA RESULT:      -8.4      0.000      0.000
REMARK  Name = 
REMARK  7 active torsions:
REMARK  status: ('A' for Active; 'I' for Inactive)
REMARK    1  A    between atoms: C_1  and  C_2
REMARK    2  A    between atoms: C_2  and  C_3
REMARK    3  A    between atoms: C_3  and  O_4
REMARK    4  A    between atoms: C_3  and  C_16
REMARK    5  A    between atoms: O_4  and  C_5
REMARK    6  A    between atoms: C_10  and  C_11
REMARK    7  A    between atoms: C_18  and  C_19
REMARK                            x       y       z     vdW  Elec       q    Type
REMARK                         _______ _______ _______ _____ _____    ______ ____
ROOT
ATOM      1  C   UNL     1       0.765   8.765  20.937  0.00  0.00    +0.000 C 
ENDROOT
BRANCH   1   2
ATOM      2  C   UNL     1       1.536   7.674  20.239  0.00  0.00    +0.000 A 
ATOM      3  N   UNL     1       2.293   7.691  19.153  0.00  0.00    +0.000 NA
ATOM      4  C   UNL     1       2.760   6.385  19.040  0.00  0.00    +0.000 A 
ATOM      5  C   UNL     1       2.297   5.650  20.116  0.00  0.00    +0.000 A 
ATOM      6 BR   UNL     1       2.667   3.884  20.600  0.00  0.00    +0.000 Br
ATOM      7  O   UNL     1       1.503   6.461  20.872  0.00  0.00    +0.000 OA
BRANCH   4   8
ATOM      8  C   UNL     1       3.604   5.935  17.937  0.00  0.00    +0.000 A 
ATOM      9  C   UNL     1       3.623   4.582  17.561  0.00  0.00    +0.000 A 
ATOM     10  C   UNL     1       4.459   4.136  16.526  0.00  0.00    +0.000 A 
ATOM     11  C   UNL     1       5.286   5.038  15.860  0.00  0.00    +0.000 A 
ATOM     12 CL   UNL     1       6.333   4.490  14.609  0.00  0.00    +0.000 Cl
ATOM     13  C   UNL     1       5.281   6.382  16.216  0.00  0.00    +0.000 A 
ATOM     14  C   UNL     1       4.454   6.822  17.256  0.00  0.00    +0.000 A 
ENDBRANCH   4   8
ENDBRANCH   1   2
BRANCH   1  16
ATOM     15  C   UNL     1       0.230   9.492  23.326  0.00  0.00    +0.000 C 
ATOM     16  C   UNL     1       1.316   9.095  22.331  0.00  0.00    +0.000 C 
ENDBRANCH   1  16
BRANCH   1  17
ATOM     17  O   UNL     1       0.832   9.934  20.094  0.00  0.00    +0.000 OA
BRANCH  17  18
ATOM     18  C   UNL     1      -0.329  10.445  19.569  0.00  0.00    +0.000 A 
ATOM     19  C   UNL     1      -0.956  11.410  20.365  0.00  0.00    +0.000 A 
ATOM     20  C   UNL     1      -2.140  12.020  19.941  0.00  0.00    +0.000 A 
ATOM     21  C   UNL     1      -2.681  11.695  18.699  0.00  0.00    +0.000 A 
ATOM     22  F   UNL     1      -3.824  12.301  18.352  0.00  0.00    +0.000 F 
ATOM     23  C   UNL     1      -2.050  10.776  17.857  0.00  0.00    +0.000 A 
ATOM     24  C   UNL     1      -0.869  10.161  18.305  0.00  0.00    +0.000 A 
ATOM     25  F   UNL     1      -0.213   9.328  17.483  0.00  0.00    +0.000 F 
BRANCH  23  26
ATOM     26  C   UNL     1      -2.630  10.514  16.513  0.00  0.00    +0.000 C 
ATOM     27  N   UNL     1      -2.627  11.529  15.595  0.00  0.00    +0.000 N 
ATOM     28  O   UNL     1      -3.126   9.439  16.204  0.00  0.00    +0.000 OA
ATOM     29  H   UNL     1      -2.287  12.462  15.790  0.00  0.00    +0.000 HD
ATOM     30  H   UNL     1      -3.082  11.352  14.709  0.00  0.00    +0.000 HD
ENDBRANCH  23  26
ENDBRANCH  17  18
ENDBRANCH   1  17
TORSDOF 6
ENDMDL
MODEL 2
REMARK VINA RESULT:      -8.3      4.680      8.775
REMARK  Name = 
REMARK  7 active torsions:
REMARK  status: ('A' for Active; 'I' for Inactive)
REMARK    1  A    between atoms: C_1  and  C_2
REMARK    2  A    between atoms: C_2  and  C_3
REMARK    3  A    between atoms: C_3  and  O_4
REMARK    4  A    between atoms: C_3  and  C_16
REMARK    5  A    between atoms: O_4  and  C_5
REMARK    6  A    between atoms: C_10  and  C_11
REMARK    7  A    between atoms: C_18  and  C_19
REMARK                            x       y       z     vdW  Elec       q    Type
REMARK                         _______ _______ _______ _____ _____    ______ ____
ROOT
ATOM      1  C   UNL     1       2.500   4.935  19.809  0.00  0.00    +0.000 C 
ENDROOT
BRANCH   1   2
ATOM      2  C   UNL     1       1.963   6.340  19.906  0.00  0.00    +0.000 A 
ATOM      3  N   UNL     1       1.308   6.965  20.873  0.00  0.00    +0.000 NA
ATOM      4  C   UNL     1       1.122   8.254  20.384  0.00  0.00    +0.000 A 
ATOM      5  C   UNL     1       1.737   8.357  19.149  0.00  0.00    +0.000 A 
ATOM      6 BR   UNL     1       1.945   9.847  18.043  0.00  0.00    +0.000 Br
ATOM      7  O   UNL     1       2.257   7.137  18.833  0.00  0.00    +0.000 OA
BRANCH   4   8
ATOM      8  C   UNL     1       0.390   9.285  21.115  0.00  0.00    +0.000 A 
ATOM      9  C   UNL     1       0.198   9.174  22.501  0.00  0.00    +0.000 A 
ATOM     10  C   UNL     1      -0.536  10.141  23.205  0.00  0.00    +0.000 A 
ATOM     11  C   UNL     1      -1.087  11.227  22.527  0.00  0.00    +0.000 A 
ATOM     12 CL   UNL     1      -2.011  12.400  23.381  0.00  0.00    +0.000 Cl
ATOM     13  C   UNL     1      -0.907  11.356  21.155  0.00  0.00    +0.000 A 
ATOM     14  C   UNL     1      -0.183  10.384  20.454  0.00  0.00    +0.000 A 
ENDBRANCH   4   8
ENDBRANCH   1   2
BRANCH   1  16
ATOM     15  C   UNL     1       1.876   3.265  21.636  0.00  0.00    +0.000 C 
ATOM     16  C   UNL     1       1.501   3.873  20.288  0.00  0.00    +0.000 C 
ENDBRANCH   1  16
BRANCH   1  17
ATOM     17  O   UNL     1       2.833   4.706  18.424  0.00  0.00    +0.000 OA
BRANCH  17  18
ATOM     18  C   UNL     1       4.154   4.680  18.052  0.00  0.00    +0.000 A 
ATOM     19  C   UNL     1       4.402   4.068  16.818  0.00  0.00    +0.000 A 
ATOM     20  C   UNL     1       5.703   3.986  16.315  0.00  0.00    +0.000 A 
ATOM     21  C   UNL     1       6.759   4.551  17.027  0.00  0.00    +0.000 A 
ATOM     22  F   UNL     1       7.985   4.429  16.502  0.00  0.00    +0.000 F 
ATOM     23  C   UNL     1       6.538   5.217  18.235  0.00  0.00    +0.000 A 
ATOM     24  C   UNL     1       5.225   5.277  18.734  0.00  0.00    +0.000 A 
ATOM     25  F   UNL     1       4.984   5.971  19.857  0.00  0.00    +0.000 F 
BRANCH  23  26
ATOM     26  C   UNL     1       7.687   5.863  18.922  0.00  0.00    +0.000 C 
ATOM     27  N   UNL     1       8.242   5.226  19.998  0.00  0.00    +0.000 N 
ATOM     28  O   UNL     1       8.139   6.947  18.579  0.00  0.00    +0.000 OA
ATOM     29  H   UNL     1       7.892   4.355  20.378  0.00  0.00    +0.000 HD
ATOM     30  H   UNL     1       8.981   5.709  20.491  0.00  0.00    +0.000 HD
ENDBRANCH  23  26
ENDBRANCH  17  18
ENDBRANCH   1  17
TORSDOF 6
ENDMDL
MODEL 3
REMARK VINA RESULT:      -8.2      5.182      9.125
REMARK  Name = 
REMARK  7 active torsions:
REMARK  status: ('A' for Active; 'I' for Inactive)
REMARK    1  A    between atoms: C_1  and  C_2
REMARK    2  A    between atoms: C_2  and  C_3
REMARK    3  A    between atoms: C_3  and  O_4
REMARK    4  A    between atoms: C_3  and  C_16
REMARK    5  A    between atoms: O_4  and  C_5
REMARK    6  A    between atoms: C_10  and  C_11
REMARK    7  A    between atoms: C_18  and  C_19
REMARK                            x       y       z     vdW  Elec       q    Type
REMARK                         _______ _______ _______ _____ _____    ______ ____
ROOT
ATOM      1  C   UNL     1       6.689   6.280  16.832  0.00  0.00    +0.000 C 
ENDROOT
BRANCH   1   2
ATOM      2  C   UNL     1       5.289   6.467  17.358  0.00  0.00    +0.000 A 
ATOM      3  N   UNL     1       4.636   7.551  17.748  0.00  0.00    +0.000 NA
ATOM      4  C   UNL     1       3.370   7.084  18.088  0.00  0.00    +0.000 A 
ATOM      5  C   UNL     1       3.307   5.728  17.825  0.00  0.00    +0.000 A 
ATOM      6 BR   UNL     1       1.860   4.555  17.953  0.00  0.00    +0.000 Br
ATOM      7  O   UNL     1       4.532   5.328  17.378  0.00  0.00    +0.000 OA
BRANCH   4   8
ATOM      8  C   UNL     1       2.322   7.948  18.626  0.00  0.00    +0.000 A 
ATOM      9  C   UNL     1       1.707   8.912  17.812  0.00  0.00    +0.000 A 
ATOM     10  C   UNL     1       0.725   9.770  18.331  0.00  0.00    +0.000 A 
ATOM     11  C   UNL     1       0.351   9.672  19.670  0.00  0.00    +0.000 A 
ATOM     12 CL   UNL     1      -0.833  10.740  20.317  0.00  0.00    +0.000 Cl
ATOM     13  C   UNL     1       0.947   8.722  20.492  0.00  0.00    +0.000 A 
ATOM     14  C   UNL     1       1.933   7.875  19.974  0.00  0.00    +0.000 A 
ENDBRANCH   4   8
ENDBRANCH   1   2
BRANCH   1  16
ATOM     15  C   UNL     1       7.484   5.683  19.183  0.00  0.00    +0.000 C 
ATOM     16  C   UNL     1       7.768   6.468  17.907  0.00  0.00    +0.000 C 
ENDBRANCH   1  16
BRANCH   1  17
ATOM     17  O   UNL     1       6.761   4.943  16.294  0.00  0.00    +0.000 OA
BRANCH  17  18
ATOM     18  C   UNL     1       6.830   4.775  14.933  0.00  0.00    +0.000 A 
ATOM     19  C   UNL     1       7.862   5.484  14.308  0.00  0.00    +0.000 A 
ATOM     20  C   UNL     1       8.052   5.391  12.926  0.00  0.00    +0.000 A 
ATOM     21  C   UNL     1       7.233   4.556  12.169  0.00  0.00    +0.000 A 
ATOM     22  F   UNL     1       7.454   4.517  10.848  0.00  0.00    +0.000 F 
ATOM     23  C   UNL     1       6.230   3.792  12.771  0.00  0.00    +0.000 A 
ATOM     24  C   UNL     1       6.043   3.909  14.158  0.00  0.00    +0.000 A 
ATOM     25  F   UNL     1       5.130   3.133  14.763  0.00  0.00    +0.000 F 
BRANCH  23  26
ATOM     26  C   UNL     1       5.429   2.864  11.930  0.00  0.00    +0.000 C 
ATOM     27  N   UNL     1       5.975   1.656  11.594  0.00  0.00    +0.000 N 
ATOM     28  O   UNL     1       4.314   3.146  11.510  0.00  0.00    +0.000 OA
ATOM     29  H   UNL     1       6.910   1.369  11.853  0.00  0.00    +0.000 HD
ATOM     30  H   UNL     1       5.441   1.064  10.970  0.00  0.00    +0.000 HD
ENDBRANCH  23  26
ENDBRANCH  17  18
ENDBRANCH   1  17
TORSDOF 6
ENDMDL
MODEL 4
REMARK VINA RESULT:      -8.1      1.721      2.300
REMARK  Name = 
REMARK  7 active torsions:
REMARK  status: ('A' for Active; 'I' for Inactive)
REMARK    1  A    between atoms: C_1  and  C_2
REMARK    2  A    between atoms: C_2  and  C_3
REMARK    3  A    between atoms: C_3  and  O_4
REMARK    4  A    between atoms: C_3  and  C_16
REMARK    5  A    between atoms: O_4  and  C_5
REMARK    6  A    between atoms: C_10  and  C_11
REMARK    7  A    between atoms: C_18  and  C_19
REMARK                            x       y       z     vdW  Elec       q    Type
REMARK                         _______ _______ _______ _____ _____    ______ ____
ROOT
ATOM      1  C   UNL     1       0.721   8.862  20.883  0.00  0.00    +0.000 C 
ENDROOT
BRANCH   1   2
ATOM      2  C   UNL     1       1.467   7.692  20.293  0.00  0.00    +0.000 A 
ATOM      3  N   UNL     1       2.263   7.599  19.239  0.00  0.00    +0.000 NA
ATOM      4  C   UNL     1       2.674   6.270  19.236  0.00  0.00    +0.000 A 
ATOM      5  C   UNL     1       2.141   5.634  20.342  0.00  0.00    +0.000 A 
ATOM      6 BR   UNL     1       2.413   3.893  20.963  0.00  0.00    +0.000 Br
ATOM      7  O   UNL     1       1.358   6.530  21.008  0.00  0.00    +0.000 OA
BRANCH   4   8
ATOM      8  C   UNL     1       3.537   5.706  18.201  0.00  0.00    +0.000 A 
ATOM      9  C   UNL     1       4.613   6.449  17.689  0.00  0.00    +0.000 A 
ATOM     10  C   UNL     1       5.424   5.928  16.669  0.00  0.00    +0.000 A 
ATOM     11  C   UNL     1       5.165   4.661  16.150  0.00  0.00    +0.000 A 
ATOM     12 CL   UNL     1       6.139   4.031  14.880  0.00  0.00    +0.000 Cl
ATOM     13  C   UNL     1       4.104   3.910  16.645  0.00  0.00    +0.000 A 
ATOM     14  C   UNL     1       3.291   4.435  17.655  0.00  0.00    +0.000 A 
ENDBRANCH   4   8
ENDBRANCH   1   2
BRANCH   1  16
ATOM     15  C   UNL     1       0.155   9.418  23.309  0.00  0.00    +0.000 C 
ATOM     16  C   UNL     1       1.253   9.284  22.259  0.00  0.00    +0.000 C 
ENDBRANCH   1  16
BRANCH   1  17
ATOM     17  O   UNL     1       0.850   9.956  19.950  0.00  0.00    +0.000 OA
BRANCH  17  18
ATOM     18  C   UNL     1      -0.285  10.519  19.423  0.00  0.00    +0.000 A 
ATOM     19  C   UNL     1      -0.647  10.034  18.162  0.00  0.00    +0.000 A 
ATOM     20  C   UNL     1      -1.791  10.514  17.517  0.00  0.00    +0.000 A 
ATOM     21  C   UNL     1      -2.600  11.454  18.151  0.00  0.00    +0.000 A 
ATOM     22  F   UNL     1      -3.676  11.887  17.480  0.00  0.00    +0.000 F 
ATOM     23  C   UNL     1      -2.298  11.917  19.434  0.00  0.00    +0.000 A 
ATOM     24  C   UNL     1      -1.136  11.435  20.061  0.00  0.00    +0.000 A 
ATOM     25  F   UNL     1      -0.866  11.817  21.319  0.00  0.00    +0.000 F 
BRANCH  23  26
ATOM     26  C   UNL     1      -3.230  12.868  20.095  0.00  0.00    +0.000 C 
ATOM     27  N   UNL     1      -2.838  14.170  20.236  0.00  0.00    +0.000 N 
ATOM     28  O   UNL     1      -4.320  12.528  20.536  0.00  0.00    +0.000 OA
ATOM     29  H   UNL     1      -1.932  14.519  19.949  0.00  0.00    +0.000 HD
ATOM     30  H   UNL     1      -3.457  14.788  20.744  0.00  0.00    +0.000 HD
ENDBRANCH  23  26
ENDBRANCH  17  18
ENDBRANCH   1  17
TORSDOF 6
ENDMDL
MODEL 5
REMARK VINA RESULT:      -8.1      4.580      8.599
REMARK  Name = 
REMARK  7 active torsions:
REMARK  status: ('A' for Active; 'I' for Inactive)
REMARK    1  A    between atoms: C_1  and  C_2
REMARK    2  A    between atoms: C_2  and  C_3
REMARK    3  A    between atoms: C_3  and  O_4
REMARK    4  A    between atoms: C_3  and  C_16
REMARK    5  A    between atoms: O_4  and  C_5
REMARK    6  A    between atoms: C_10  and  C_11
REMARK    7  A    between atoms: C_18  and  C_19
REMARK                            x       y       z     vdW  Elec       q    Type
REMARK                         _______ _______ _______ _____ _____    ______ ____
ROOT
ATOM      1  C   UNL     1       2.760   6.617  18.894  0.00  0.00    +0.000 C 
ENDROOT
BRANCH   1   2
ATOM      2  C   UNL     1       2.046   7.840  19.410  0.00  0.00    +0.000 A 
ATOM      3  N   UNL     1       1.826   9.025  18.862  0.00  0.00    +0.000 NA
ATOM      4  C   UNL     1       1.079   9.711  19.816  0.00  0.00    +0.000 A 
ATOM      5  C   UNL     1       0.834   8.867  20.883  0.00  0.00    +0.000 A 
ATOM      6 BR   UNL     1      -0.202   9.149  22.412  0.00  0.00    +0.000 Br
ATOM      7  O   UNL     1       1.463   7.682  20.638  0.00  0.00    +0.000 OA
BRANCH   4   8
ATOM      8  C   UNL     1       0.651  11.097  19.645  0.00  0.00    +0.000 A 
ATOM      9  C   UNL     1       1.205  12.115  20.438  0.00  0.00    +0.000 A 
ATOM     10  C   UNL     1       0.773  13.443  20.305  0.00  0.00    +0.000 A 
ATOM     11  C   UNL     1      -0.219  13.766  19.381  0.00  0.00    +0.000 A 
ATOM     12 CL   UNL     1      -0.771  15.388  19.235  0.00  0.00    +0.000 Cl
ATOM     13  C   UNL     1      -0.779  12.772  18.586  0.00  0.00    +0.000 A 
ATOM     14  C   UNL     1      -0.353  11.445  18.727  0.00  0.00    +0.000 A 
ENDBRANCH   4   8
ENDBRANCH   1   2
BRANCH   1  16
ATOM     15  C   UNL     1       1.696   4.322  19.236  0.00  0.00    +0.000 C 
ATOM     16  C   UNL     1       1.805   5.551  18.340  0.00  0.00    +0.000 C 
ENDBRANCH   1  16
BRANCH   1  17
ATOM     17  O   UNL     1       3.657   7.061  17.855  0.00  0.00    +0.000 OA
BRANCH  17  18
ATOM     18  C   UNL     1       4.800   6.341  17.609  0.00  0.00    +0.000 A 
ATOM     19  C   UNL     1       5.413   5.809  18.748  0.00  0.00    +0.000 A 
ATOM     20  C   UNL     1       6.577   5.044  18.636  0.00  0.00    +0.000 A 
ATOM     21  C   UNL     1       7.111   4.775  17.378  0.00  0.00    +0.000 A 
ATOM     22  F   UNL     1       8.235   4.047  17.334  0.00  0.00    +0.000 F 
ATOM     23  C   UNL     1       6.492   5.244  16.217  0.00  0.00    +0.000 A 
ATOM     24  C   UNL     1       5.331   6.024  16.349  0.00  0.00    +0.000 A 
ATOM     25  F   UNL     1       4.685   6.427  15.243  0.00  0.00    +0.000 F 
BRANCH  23  26
ATOM     26  C   UNL     1       7.062   4.871  14.896  0.00  0.00    +0.000 C 
ATOM     27  N   UNL     1       6.549   3.779  14.252  0.00  0.00    +0.000 N 
ATOM     28  O   UNL     1       7.981   5.488  14.373  0.00  0.00    +0.000 OA
ATOM     29  H   UNL     1       5.828   3.184  14.640  0.00  0.00    +0.000 HD
ATOM     30  H   UNL     1       6.991   3.504  13.384  0.00  0.00    +0.000 HD
ENDBRANCH  23  26
ENDBRANCH  17  18
ENDBRANCH   1  17
TORSDOF 6
ENDMDL
MODEL 6
REMARK VINA RESULT:      -8.1      4.726      8.635
REMARK  Name = 
REMARK  7 active torsions:
REMARK  status: ('A' for Active; 'I' for Inactive)
REMARK    1  A    between atoms: C_1  and  C_2
REMARK    2  A    between atoms: C_2  and  C_3
REMARK    3  A    between atoms: C_3  and  O_4
REMARK    4  A    between atoms: C_3  and  C_16
REMARK    5  A    between atoms: O_4  and  C_5
REMARK    6  A    between atoms: C_10  and  C_11
REMARK    7  A    between atoms: C_18  and  C_19
REMARK                            x       y       z     vdW  Elec       q    Type
REMARK                         _______ _______ _______ _____ _____    ______ ____
ROOT
ATOM      1  C   UNL     1       2.579   5.258  20.234  0.00  0.00    +0.000 C 
ENDROOT
BRANCH   1   2
ATOM      2  C   UNL     1       1.971   6.637  20.233  0.00  0.00    +0.000 A 
ATOM      3  N   UNL     1       1.292   7.299  21.157  0.00  0.00    +0.000 NA
ATOM      4  C   UNL     1       1.036   8.536  20.576  0.00  0.00    +0.000 A 
ATOM      5  C   UNL     1       1.635   8.578  19.330  0.00  0.00    +0.000 A 
ATOM      6 BR   UNL     1       1.759   9.989  18.114  0.00  0.00    +0.000 Br
ATOM      7  O   UNL     1       2.215   7.365  19.100  0.00  0.00    +0.000 OA
BRANCH   4   8
ATOM      8  C   UNL     1       0.256   9.580  21.236  0.00  0.00    +0.000 A 
ATOM      9  C   UNL     1      -0.116   9.446  22.583  0.00  0.00    +0.000 A 
ATOM     10  C   UNL     1      -0.896  10.427  23.214  0.00  0.00    +0.000 A 
ATOM     11  C   UNL     1      -1.312  11.550  22.503  0.00  0.00    +0.000 A 
ATOM     12 CL   UNL     1      -2.292  12.742  23.264  0.00  0.00    +0.000 Cl
ATOM     13  C   UNL     1      -0.953  11.703  21.168  0.00  0.00    +0.000 A 
ATOM     14  C   UNL     1      -0.184  10.717  20.538  0.00  0.00    +0.000 A 
ENDBRANCH   4   8
ENDBRANCH   1   2
BRANCH   1  16
ATOM     15  C   UNL     1       1.109   3.220  19.784  0.00  0.00    +0.000 C 
ATOM     16  C   UNL     1       1.651   4.191  20.829  0.00  0.00    +0.000 C 
ENDBRANCH   1  16
BRANCH   1  17
ATOM     17  O   UNL     1       2.888   4.932  18.863  0.00  0.00    +0.000 OA
BRANCH  17  18
ATOM     18  C   UNL     1       4.199   4.932  18.457  0.00  0.00    +0.000 A 
ATOM     19  C   UNL     1       5.131   5.086  19.489  0.00  0.00    +0.000 A 
ATOM     20  C   UNL     1       6.501   5.091  19.213  0.00  0.00    +0.000 A 
ATOM     21  C   UNL     1       6.946   4.901  17.907  0.00  0.00    +0.000 A 
ATOM     22  F   UNL     1       8.270   4.928  17.702  0.00  0.00    +0.000 F 
ATOM     23  C   UNL     1       6.043   4.688  16.862  0.00  0.00    +0.000 A 
ATOM     24  C   UNL     1       4.669   4.702  17.155  0.00  0.00    +0.000 A 
ATOM     25  F   UNL     1       3.790   4.432  16.177  0.00  0.00    +0.000 F 
BRANCH  23  26
ATOM     26  C   UNL     1       6.570   4.421  15.498  0.00  0.00    +0.000 C 
ATOM     27  N   UNL     1       7.444   5.321  14.951  0.00  0.00    +0.000 N 
ATOM     28  O   UNL     1       6.237   3.445  14.839  0.00  0.00    +0.000 OA
ATOM     29  H   UNL     1       7.726   6.179  15.407  0.00  0.00    +0.000 HD
ATOM     30  H   UNL     1       7.742   5.155  13.999  0.00  0.00    +0.000 HD
ENDBRANCH  23  26
ENDBRANCH  17  18
ENDBRANCH   1  17
TORSDOF 6
ENDMDL
MODEL 7
REMARK VINA RESULT:      -8.0      4.487      8.212
REMARK  Name = 
REMARK  7 active torsions:
REMARK  status: ('A' for Active; 'I' for Inactive)
REMARK    1  A    between atoms: C_1  and  C_2
REMARK    2  A    between atoms: C_2  and  C_3
REMARK    3  A    between atoms: C_3  and  O_4
REMARK    4  A    between atoms: C_3  and  C_16
REMARK    5  A    between atoms: O_4  and  C_5
REMARK    6  A    between atoms: C_10  and  C_11
REMARK    7  A    between atoms: C_18  and  C_19
REMARK                            x       y       z     vdW  Elec       q    Type
REMARK                         _______ _______ _______ _____ _____    ______ ____
ROOT
ATOM      1  C   UNL     1       2.340   6.142  20.051  0.00  0.00    +0.000 C 
ENDROOT
BRANCH   1   2
ATOM      2  C   UNL     1       1.738   7.497  20.323  0.00  0.00    +0.000 A 
ATOM      3  N   UNL     1       1.607   8.569  19.557  0.00  0.00    +0.000 NA
ATOM      4  C   UNL     1       0.935   9.485  20.361  0.00  0.00    +0.000 A 
ATOM      5  C   UNL     1       0.640   8.885  21.572  0.00  0.00    +0.000 A 
ATOM      6 BR   UNL     1      -0.344   9.541  23.017  0.00  0.00    +0.000 Br
ATOM      7  O   UNL     1       1.164   7.627  21.559  0.00  0.00    +0.000 OA
BRANCH   4   8
ATOM      8  C   UNL     1       0.620  10.844  19.928  0.00  0.00    +0.000 A 
ATOM      9  C   UNL     1      -0.312  11.065  18.902  0.00  0.00    +0.000 A 
ATOM     10  C   UNL     1      -0.592  12.366  18.455  0.00  0.00    +0.000 A 
ATOM     11  C   UNL     1       0.059  13.456  19.028  0.00  0.00    +0.000 A 
ATOM     12 CL   UNL     1      -0.261  15.049  18.464  0.00  0.00    +0.000 Cl
ATOM     13  C   UNL     1       0.985  13.257  20.047  0.00  0.00    +0.000 A 
ATOM     14  C   UNL     1       1.270  11.958  20.483  0.00  0.00    +0.000 A 
ENDBRANCH   4   8
ENDBRANCH   1   2
BRANCH   1  16
ATOM     15  C   UNL     1       2.106   3.955  21.348  0.00  0.00    +0.000 C 
ATOM     16  C   UNL     1       1.420   4.982  20.453  0.00  0.00    +0.000 C 
ENDBRANCH   1  16
BRANCH   1  17
ATOM     17  O   UNL     1       2.619   6.081  18.637  0.00  0.00    +0.000 OA
BRANCH  17  18
ATOM     18  C   UNL     1       3.915   6.217  18.206  0.00  0.00    +0.000 A 
ATOM     19  C   UNL     1       4.107   7.204  17.233  0.00  0.00    +0.000 A 
ATOM     20  C   UNL     1       5.382   7.454  16.717  0.00  0.00    +0.000 A 
ATOM     21  C   UNL     1       6.478   6.745  17.204  0.00  0.00    +0.000 A 
ATOM     22  F   UNL     1       7.672   7.019  16.664  0.00  0.00    +0.000 F 
ATOM     23  C   UNL     1       6.328   5.794  18.216  0.00  0.00    +0.000 A 
ATOM     24  C   UNL     1       5.037   5.543  18.711  0.00  0.00    +0.000 A 
ATOM     25  F   UNL     1       4.883   4.682  19.729  0.00  0.00    +0.000 F 
BRANCH  23  26
ATOM     26  C   UNL     1       7.537   5.113  18.750  0.00  0.00    +0.000 C 
ATOM     27  N   UNL     1       8.003   5.487  19.980  0.00  0.00    +0.000 N 
ATOM     28  O   UNL     1       8.142   4.251  18.126  0.00  0.00    +0.000 OA
ATOM     29  H   UNL     1       7.594   6.228  20.535  0.00  0.00    +0.000 HD
ATOM     30  H   UNL     1       8.862   5.058  20.300  0.00  0.00    +0.000 HD
ENDBRANCH  23  26
ENDBRANCH  17  18
ENDBRANCH   1  17
TORSDOF 6
ENDMDL
MODEL 8
REMARK VINA RESULT:      -8.0      4.195      8.228
REMARK  Name = 
REMARK  7 active torsions:
REMARK  status: ('A' for Active; 'I' for Inactive)
REMARK    1  A    between atoms: C_1  and  C_2
REMARK    2  A    between atoms: C_2  and  C_3
REMARK    3  A    between atoms: C_3  and  O_4
REMARK    4  A    between atoms: C_3  and  C_16
REMARK    5  A    between atoms: O_4  and  C_5
REMARK    6  A    between atoms: C_10  and  C_11
REMARK    7  A    between atoms: C_18  and  C_19
REMARK                            x       y       z     vdW  Elec       q    Type
REMARK                         _______ _______ _______ _____ _____    ______ ____
ROOT
ATOM      1  C   UNL     1       2.327   6.374  19.789  0.00  0.00    +0.000 C 
ENDROOT
BRANCH   1   2
ATOM      2  C   UNL     1       1.743   7.729  20.101  0.00  0.00    +0.000 A 
ATOM      3  N   UNL     1       1.574   8.806  19.350  0.00  0.00    +0.000 NA
ATOM      4  C   UNL     1       0.949   9.718  20.194  0.00  0.00    +0.000 A 
ATOM      5  C   UNL     1       0.717   9.112  21.415  0.00  0.00    +0.000 A 
ATOM      6 BR   UNL     1      -0.187   9.761  22.915  0.00  0.00    +0.000 Br
ATOM      7  O   UNL     1       1.237   7.852  21.366  0.00  0.00    +0.000 OA
BRANCH   4   8
ATOM      8  C   UNL     1       0.615  11.081  19.786  0.00  0.00    +0.000 A 
ATOM      9  C   UNL     1       1.630  12.017  19.535  0.00  0.00    +0.000 A 
ATOM     10  C   UNL     1       1.316  13.338  19.178  0.00  0.00    +0.000 A 
ATOM     11  C   UNL     1      -0.015  13.734  19.072  0.00  0.00    +0.000 A 
ATOM     12 CL   UNL     1      -0.404  15.359  18.663  0.00  0.00    +0.000 Cl
ATOM     13  C   UNL     1      -1.035  12.821  19.316  0.00  0.00    +0.000 A 
ATOM     14  C   UNL     1      -0.719  11.507  19.681  0.00  0.00    +0.000 A 
ENDBRANCH   4   8
ENDBRANCH   1   2
BRANCH   1  16
ATOM     15  C   UNL     1       2.450   4.263  21.219  0.00  0.00    +0.000 C 
ATOM     16  C   UNL     1       1.553   5.220  20.440  0.00  0.00    +0.000 C 
ENDBRANCH   1  16
BRANCH   1  17
ATOM     17  O   UNL     1       2.309   6.228  18.353  0.00  0.00    +0.000 OA
BRANCH  17  18
ATOM     18  C   UNL     1       3.328   5.543  17.741  0.00  0.00    +0.000 A 
ATOM     19  C   UNL     1       3.050   4.198  17.474  0.00  0.00    +0.000 A 
ATOM     20  C   UNL     1       3.998   3.389  16.841  0.00  0.00    +0.000 A 
ATOM     21  C   UNL     1       5.214   3.934  16.436  0.00  0.00    +0.000 A 
ATOM     22  F   UNL     1       6.089   3.107  15.846  0.00  0.00    +0.000 F 
ATOM     23  C   UNL     1       5.501   5.286  16.637  0.00  0.00    +0.000 A 
ATOM     24  C   UNL     1       4.543   6.081  17.289  0.00  0.00    +0.000 A 
ATOM     25  F   UNL     1       4.771   7.396  17.430  0.00  0.00    +0.000 F 
BRANCH  23  26
ATOM     26  C   UNL     1       6.784   5.835  16.125  0.00  0.00    +0.000 C 
ATOM     27  N   UNL     1       7.131   5.574  14.828  0.00  0.00    +0.000 N 
ATOM     28  O   UNL     1       7.548   6.491  16.821  0.00  0.00    +0.000 OA
ATOM     29  H   UNL     1       6.582   4.996  14.205  0.00  0.00    +0.000 HD
ATOM     30  H   UNL     1       8.036   5.902  14.517  0.00  0.00    +0.000 HD
ENDBRANCH  23  26
ENDBRANCH  17  18
ENDBRANCH   1  17
TORSDOF 6
ENDMDL
MODEL 9
REMARK VINA RESULT:      -8.0      4.986      8.697
REMARK  Name = 
REMARK  7 active torsions:
REMARK  status: ('A' for Active; 'I' for Inactive)
REMARK    1  A    between atoms: C_1  and  C_2
REMARK    2  A    between atoms: C_2  and  C_3
REMARK    3  A    between atoms: C_3  and  O_4
REMARK    4  A    between atoms: C_3  and  C_16
REMARK    5  A    between atoms: O_4  and  C_5
REMARK    6  A    between atoms: C_10  and  C_11
REMARK    7  A    between atoms: C_18  and  C_19
REMARK                            x       y       z     vdW  Elec       q    Type
REMARK                         _______ _______ _______ _____ _____    ______ ____
ROOT
ATOM      1  C   UNL     1       2.523   5.407  19.962  0.00  0.00    +0.000 C 
ENDROOT
BRANCH   1   2
ATOM      2  C   UNL     1       1.952   6.800  20.053  0.00  0.00    +0.000 A 
ATOM      3  N   UNL     1       1.330   7.431  21.036  0.00  0.00    +0.000 NA
ATOM      4  C   UNL     1       1.083   8.702  20.526  0.00  0.00    +0.000 A 
ATOM      5  C   UNL     1       1.630   8.789  19.259  0.00  0.00    +0.000 A 
ATOM      6 BR   UNL     1       1.739  10.255  18.106  0.00  0.00    +0.000 Br
ATOM      7  O   UNL     1       2.168   7.576  18.947  0.00  0.00    +0.000 OA
BRANCH   4   8
ATOM      8  C   UNL     1       0.360   9.731  21.268  0.00  0.00    +0.000 A 
ATOM      9  C   UNL     1       0.383  11.067  20.838  0.00  0.00    +0.000 A 
ATOM     10  C   UNL     1      -0.279  12.067  21.567  0.00  0.00    +0.000 A 
ATOM     11  C   UNL     1      -0.968  11.740  22.733  0.00  0.00    +0.000 A 
ATOM     12 CL   UNL     1      -1.758  12.968  23.645  0.00  0.00    +0.000 Cl
ATOM     13  C   UNL     1      -1.004  10.422  23.175  0.00  0.00    +0.000 A 
ATOM     14  C   UNL     1      -0.334   9.428  22.452  0.00  0.00    +0.000 A 
ENDBRANCH   4   8
ENDBRANCH   1   2
BRANCH   1  16
ATOM     15  C   UNL     1       2.065   3.557  21.660  0.00  0.00    +0.000 C 
ATOM     16  C   UNL     1       1.550   4.324  20.447  0.00  0.00    +0.000 C 
ENDBRANCH   1  16
BRANCH   1  17
ATOM     17  O   UNL     1       2.862   5.180  18.578  0.00  0.00    +0.000 OA
BRANCH  17  18
ATOM     18  C   UNL     1       4.123   5.498  18.140  0.00  0.00    +0.000 A 
ATOM     19  C   UNL     1       4.168   6.510  17.175  0.00  0.00    +0.000 A 
ATOM     20  C   UNL     1       5.391   6.939  16.653  0.00  0.00    +0.000 A 
ATOM     21  C   UNL     1       6.579   6.384  17.124  0.00  0.00    +0.000 A 
ATOM     22  F   UNL     1       7.720   6.825  16.578  0.00  0.00    +0.000 F 
ATOM     23  C   UNL     1       6.571   5.412  18.127  0.00  0.00    +0.000 A 
ATOM     24  C   UNL     1       5.332   4.981  18.630  0.00  0.00    +0.000 A 
ATOM     25  F   UNL     1       5.307   4.098  19.640  0.00  0.00    +0.000 F 
BRANCH  23  26
ATOM     26  C   UNL     1       7.868   4.900  18.646  0.00  0.00    +0.000 C 
ATOM     27  N   UNL     1       8.310   5.360  19.855  0.00  0.00    +0.000 N 
ATOM     28  O   UNL     1       8.561   4.105  18.026  0.00  0.00    +0.000 OA
ATOM     29  H   UNL     1       7.825   6.059  20.404  0.00  0.00    +0.000 HD
ATOM     30  H   UNL     1       9.223   5.050  20.162  0.00  0.00    +0.000 HD
ENDBRANCH  23  26
ENDBRANCH  17  18
ENDBRANCH   1  17
TORSDOF 6
ENDMDL
