MODEL 1
REMARK VINA RESULT:      -9.0      0.000      0.000
REMARK  Name = 
REMARK  5 active torsions:
REMARK  status: ('A' for Active; 'I' for Inactive)
REMARK    1  A    between atoms: C_1  and  N_2
REMARK    2  A    between atoms: C_8  and  O_9
REMARK    3  A    between atoms: O_9  and  C_10
REMARK    4  A    between atoms: C_10  and  C_11
REMARK    5  A    between atoms: C_10  and  C_18
REMARK                            x       y       z     vdW  Elec       q    Type
REMARK                         _______ _______ _______ _____ _____    ______ ____
ROOT
ATOM      1  C   UNL     1       2.968   6.668  19.164  0.00  0.00    +0.000 C 
ENDROOT
BRANCH   1   2
ATOM      2  C   UNL     1       2.066   7.909  19.257  0.00  0.00    +0.000 A 
ATOM      3  C   UNL     1       1.442   8.299  20.457  0.00  0.00    +0.000 A 
ATOM      4  C   UNL     1       0.515   9.343  20.478  0.00  0.00    +0.000 A 
ATOM      5  C   UNL     1       0.222  10.020  19.299  0.00  0.00    +0.000 A 
ATOM      6  F   UNL     1      -0.699  10.993  19.309  0.00  0.00    +0.000 F 
ATOM      7  C   UNL     1       0.871   9.705  18.114  0.00  0.00    +0.000 A 
ATOM      8  C   UNL     1       1.801   8.652  18.091  0.00  0.00    +0.000 A 
ENDBRANCH   1   2
BRANCH   1   9
ATOM      9  C   UNL     1       2.180   5.356  19.104  0.00  0.00    +0.000 A 
ATOM     10  C   UNL     1       1.855   4.671  20.289  0.00  0.00    +0.000 A 
ATOM     11  C   UNL     1       1.201   3.436  20.242  0.00  0.00    +0.000 A 
ATOM     12  C   UNL     1       0.861   2.880  19.015  0.00  0.00    +0.000 A 
ATOM     13  F   UNL     1       0.247   1.691  18.974  0.00  0.00    +0.000 F 
ATOM     14  C   UNL     1       1.161   3.534  17.830  0.00  0.00    +0.000 A 
ATOM     15  C   UNL     1       1.821   4.766  17.874  0.00  0.00    +0.000 A 
ENDBRANCH   1   9
BRANCH   1  16
ATOM     16  O   UNL     1       3.857   6.642  18.040  0.00  0.00    +0.000 OA
BRANCH  16  24
ATOM     17  C   UNL     1       5.604   5.616  15.083  0.00  0.00    +0.000 C 
ATOM     18  N   UNL     1       6.504   5.737  16.224  0.00  0.00    +0.000 NA
ATOM     19  C   UNL     1       6.554   4.491  17.004  0.00  0.00    +0.000 C 
ATOM     20  C   UNL     1       7.916   4.572  17.723  0.00  0.00    +0.000 C 
ATOM     21  C   UNL     1       8.077   5.802  18.623  0.00  0.00    +0.000 C 
ATOM     22  C   UNL     1       7.422   7.060  18.029  0.00  0.00    +0.000 C 
ATOM     23  C   UNL     1       6.127   6.736  17.251  0.00  0.00    +0.000 C 
ATOM     24  C   UNL     1       5.142   6.055  18.226  0.00  0.00    +0.000 C 
ATOM     25  C   UNL     1       5.278   4.573  17.871  0.00  0.00    +0.000 C 
ENDBRANCH  16  24
ENDBRANCH   1  16
TORSDOF 4
ENDMDL
MODEL 2
REMARK VINA RESULT:      -8.9      1.215      4.883
REMARK  Name = 
REMARK  5 active torsions:
REMARK  status: ('A' for Active; 'I' for Inactive)
REMARK    1  A    between atoms: C_1  and  N_2
REMARK    2  A    between atoms: C_8  and  O_9
REMARK    3  A    between atoms: O_9  and  C_10
REMARK    4  A    between atoms: C_10  and  C_11
REMARK    5  A    between atoms: C_10  and  C_18
REMARK                            x       y       z     vdW  Elec       q    Type
REMARK                         _______ _______ _______ _____ _____    ______ ____
ROOT
ATOM      1  C   UNL     1       2.760   6.165  18.356  0.00  0.00    +0.000 C 
ENDROOT
BRANCH   1   2
ATOM      2  C   UNL     1       2.315   5.023  19.283  0.00  0.00    +0.000 A 
ATOM      3  C   UNL     1       1.318   4.098  18.916  0.00  0.00    +0.000 A 
ATOM      4  C   UNL     1       0.834   3.164  19.834  0.00  0.00    +0.000 A 
ATOM      5  C   UNL     1       1.360   3.132  21.121  0.00  0.00    +0.000 A 
ATOM      6  F   UNL     1       0.866   2.265  22.014  0.00  0.00    +0.000 F 
ATOM      7  C   UNL     1       2.390   3.985  21.492  0.00  0.00    +0.000 A 
ATOM      8  C   UNL     1       2.875   4.929  20.572  0.00  0.00    +0.000 A 
ENDBRANCH   1   2
BRANCH   1   9
ATOM      9  C   UNL     1       2.165   7.521  18.747  0.00  0.00    +0.000 A 
ATOM     10  C   UNL     1       1.743   7.754  20.069  0.00  0.00    +0.000 A 
ATOM     11  C   UNL     1       1.131   8.961  20.420  0.00  0.00    +0.000 A 
ATOM     12  C   UNL     1       0.941   9.946  19.458  0.00  0.00    +0.000 A 
ATOM     13  F   UNL     1       0.342  11.094  19.795  0.00  0.00    +0.000 F 
ATOM     14  C   UNL     1       1.352   9.749  18.149  0.00  0.00    +0.000 A 
ATOM     15  C   UNL     1       1.959   8.540  17.794  0.00  0.00    +0.000 A 
ENDBRANCH   1   9
BRANCH   1  16
ATOM     16  O   UNL     1       4.176   6.368  18.274  0.00  0.00    +0.000 OA
BRANCH  16  24
ATOM     17  C   UNL     1       7.576   5.305  18.674  0.00  0.00    +0.000 C 
ATOM     18  N   UNL     1       6.996   4.798  17.435  0.00  0.00    +0.000 NA
ATOM     19  C   UNL     1       7.151   5.762  16.335  0.00  0.00    +0.000 C 
ATOM     20  C   UNL     1       7.074   4.880  15.072  0.00  0.00    +0.000 C 
ATOM     21  C   UNL     1       5.769   4.086  14.940  0.00  0.00    +0.000 C 
ATOM     22  C   UNL     1       5.250   3.573  16.293  0.00  0.00    +0.000 C 
ATOM     23  C   UNL     1       5.533   4.564  17.445  0.00  0.00    +0.000 C 
ATOM     24  C   UNL     1       4.844   5.903  17.104  0.00  0.00    +0.000 C 
ATOM     25  C   UNL     1       5.999   6.761  16.585  0.00  0.00    +0.000 C 
ENDBRANCH  16  24
ENDBRANCH   1  16
TORSDOF 4
ENDMDL
MODEL 3
REMARK VINA RESULT:      -8.8      0.166      1.377
REMARK  Name = 
REMARK  5 active torsions:
REMARK  status: ('A' for Active; 'I' for Inactive)
REMARK    1  A    between atoms: C_1  and  N_2
REMARK    2  A    between atoms: C_8  and  O_9
REMARK    3  A    between atoms: O_9  and  C_10
REMARK    4  A    between atoms: C_10  and  C_11
REMARK    5  A    between atoms: C_10  and  C_18
REMARK                            x       y       z     vdW  Elec       q    Type
REMARK                         _______ _______ _______ _____ _____    ______ ____
ROOT
ATOM      1  C   UNL     1       3.002   6.700  19.127  0.00  0.00    +0.000 C 
ENDROOT
BRANCH   1   2
ATOM      2  C   UNL     1       2.035   7.894  19.152  0.00  0.00    +0.000 A 
ATOM      3  C   UNL     1       1.736   8.646  18.000  0.00  0.00    +0.000 A 
ATOM      4  C   UNL     1       0.971   9.811  18.083  0.00  0.00    +0.000 A 
ATOM      5  C   UNL     1       0.479  10.221  19.317  0.00  0.00    +0.000 A 
ATOM      6  F   UNL     1      -0.219  11.361  19.404  0.00  0.00    +0.000 F 
ATOM      7  C   UNL     1       0.699   9.464  20.460  0.00  0.00    +0.000 A 
ATOM      8  C   UNL     1       1.472   8.295  20.380  0.00  0.00    +0.000 A 
ENDBRANCH   1   2
BRANCH   1   9
ATOM      9  C   UNL     1       2.284   5.347  19.119  0.00  0.00    +0.000 A 
ATOM     10  C   UNL     1       1.898   4.759  17.901  0.00  0.00    +0.000 A 
ATOM     11  C   UNL     1       1.176   3.561  17.884  0.00  0.00    +0.000 A 
ATOM     12  C   UNL     1       0.841   2.939  19.081  0.00  0.00    +0.000 A 
ATOM     13  F   UNL     1       0.139   1.800  19.061  0.00  0.00    +0.000 F 
ATOM     14  C   UNL     1       1.215   3.490  20.298  0.00  0.00    +0.000 A 
ATOM     15  C   UNL     1       1.931   4.691  20.317  0.00  0.00    +0.000 A 
ENDBRANCH   1   9
BRANCH   1  16
ATOM     16  O   UNL     1       3.907   6.670  18.016  0.00  0.00    +0.000 OA
BRANCH  16  24
ATOM     17  C   UNL     1       5.669   5.610  15.080  0.00  0.00    +0.000 C 
ATOM     18  N   UNL     1       6.559   5.724  16.229  0.00  0.00    +0.000 NA
ATOM     19  C   UNL     1       6.586   4.480  17.014  0.00  0.00    +0.000 C 
ATOM     20  C   UNL     1       7.942   4.546  17.746  0.00  0.00    +0.000 C 
ATOM     21  C   UNL     1       8.110   5.778  18.644  0.00  0.00    +0.000 C 
ATOM     22  C   UNL     1       7.477   7.042  18.039  0.00  0.00    +0.000 C 
ATOM     23  C   UNL     1       6.185   6.731  17.249  0.00  0.00    +0.000 C 
ATOM     24  C   UNL     1       5.182   6.066  18.216  0.00  0.00    +0.000 C 
ATOM     25  C   UNL     1       5.302   4.582  17.868  0.00  0.00    +0.000 C 
ENDBRANCH  16  24
ENDBRANCH   1  16
TORSDOF 4
ENDMDL
MODEL 4
REMARK VINA RESULT:      -8.7      4.019      6.744
REMARK  Name = 
REMARK  5 active torsions:
REMARK  status: ('A' for Active; 'I' for Inactive)
REMARK    1  A    between atoms: C_1  and  N_2
REMARK    2  A    between atoms: C_8  and  O_9
REMARK    3  A    between atoms: O_9  and  C_10
REMARK    4  A    between atoms: C_10  and  C_11
REMARK    5  A    between atoms: C_10  and  C_18
REMARK                            x       y       z     vdW  Elec       q    Type
REMARK                         _______ _______ _______ _____ _____    ______ ____
ROOT
ATOM      1  C   UNL     1       5.143   5.102  16.079  0.00  0.00    +0.000 C 
ENDROOT
BRANCH   1   2
ATOM      2  C   UNL     1       6.103   5.895  16.980  0.00  0.00    +0.000 A 
ATOM      3  C   UNL     1       6.274   7.287  16.859  0.00  0.00    +0.000 A 
ATOM      4  C   UNL     1       7.258   7.956  17.590  0.00  0.00    +0.000 A 
ATOM      5  C   UNL     1       8.065   7.238  18.467  0.00  0.00    +0.000 A 
ATOM      6  F   UNL     1       9.037   7.871  19.137  0.00  0.00    +0.000 F 
ATOM      7  C   UNL     1       7.875   5.877  18.659  0.00  0.00    +0.000 A 
ATOM      8  C   UNL     1       6.889   5.202  17.921  0.00  0.00    +0.000 A 
ENDBRANCH   1   2
BRANCH   1   9
ATOM      9  C   UNL     1       5.792   4.641  14.771  0.00  0.00    +0.000 A 
ATOM     10  C   UNL     1       7.062   5.122  14.403  0.00  0.00    +0.000 A 
ATOM     11  C   UNL     1       7.632   4.766  13.177  0.00  0.00    +0.000 A 
ATOM     12  C   UNL     1       6.943   3.923  12.312  0.00  0.00    +0.000 A 
ATOM     13  F   UNL     1       7.486   3.596  11.133  0.00  0.00    +0.000 F 
ATOM     14  C   UNL     1       5.693   3.427  12.650  0.00  0.00    +0.000 A 
ATOM     15  C   UNL     1       5.118   3.787  13.873  0.00  0.00    +0.000 A 
ENDBRANCH   1   9
BRANCH   1  16
ATOM     16  O   UNL     1       4.580   3.926  16.673  0.00  0.00    +0.000 OA
BRANCH  16  24
ATOM     17  C   UNL     1       3.708   1.131  18.741  0.00  0.00    +0.000 C 
ATOM     18  N   UNL     1       3.112   2.369  19.230  0.00  0.00    +0.000 NA
ATOM     19  C   UNL     1       1.816   2.633  18.586  0.00  0.00    +0.000 C 
ATOM     20  C   UNL     1       1.093   3.546  19.598  0.00  0.00    +0.000 C 
ATOM     21  C   UNL     1       1.838   4.849  19.910  0.00  0.00    +0.000 C 
ATOM     22  C   UNL     1       3.362   4.659  19.969  0.00  0.00    +0.000 C 
ATOM     23  C   UNL     1       3.864   3.613  18.947  0.00  0.00    +0.000 C 
ATOM     24  C   UNL     1       3.459   4.092  17.536  0.00  0.00    +0.000 C 
ATOM     25  C   UNL     1       2.223   3.246  17.228  0.00  0.00    +0.000 C 
ENDBRANCH  16  24
ENDBRANCH   1  16
TORSDOF 4
ENDMDL
MODEL 5
REMARK VINA RESULT:      -8.6      1.207      5.012
REMARK  Name = 
REMARK  5 active torsions:
REMARK  status: ('A' for Active; 'I' for Inactive)
REMARK    1  A    between atoms: C_1  and  N_2
REMARK    2  A    between atoms: C_8  and  O_9
REMARK    3  A    between atoms: O_9  and  C_10
REMARK    4  A    between atoms: C_10  and  C_11
REMARK    5  A    between atoms: C_10  and  C_18
REMARK                            x       y       z     vdW  Elec       q    Type
REMARK                         _______ _______ _______ _____ _____    ______ ____
ROOT
ATOM      1  C   UNL     1       2.639   6.210  18.450  0.00  0.00    +0.000 C 
ENDROOT
BRANCH   1   2
ATOM      2  C   UNL     1       2.176   5.124  19.433  0.00  0.00    +0.000 A 
ATOM      3  C   UNL     1       2.634   5.065  20.763  0.00  0.00    +0.000 A 
ATOM      4  C   UNL     1       2.310   3.986  21.587  0.00  0.00    +0.000 A 
ATOM      5  C   UNL     1       1.505   2.965  21.092  0.00  0.00    +0.000 A 
ATOM      6  F   UNL     1       1.229   1.908  21.868  0.00  0.00    +0.000 F 
ATOM      7  C   UNL     1       0.982   3.027  19.808  0.00  0.00    +0.000 A 
ATOM      8  C   UNL     1       1.311   4.111  18.977  0.00  0.00    +0.000 A 
ENDBRANCH   1   2
BRANCH   1   9
ATOM      9  C   UNL     1       2.038   7.587  18.750  0.00  0.00    +0.000 A 
ATOM     10  C   UNL     1       1.994   8.573  17.747  0.00  0.00    +0.000 A 
ATOM     11  C   UNL     1       1.516   9.856  18.030  0.00  0.00    +0.000 A 
ATOM     12  C   UNL     1       1.073  10.162  19.312  0.00  0.00    +0.000 A 
ATOM     13  F   UNL     1       0.629  11.396  19.582  0.00  0.00    +0.000 F 
ATOM     14  C   UNL     1       1.097   9.209  20.319  0.00  0.00    +0.000 A 
ATOM     15  C   UNL     1       1.581   7.927  20.040  0.00  0.00    +0.000 A 
ENDBRANCH   1   9
BRANCH   1  16
ATOM     16  O   UNL     1       4.057   6.409  18.383  0.00  0.00    +0.000 OA
BRANCH  16  24
ATOM     17  C   UNL     1       7.467   5.389  18.808  0.00  0.00    +0.000 C 
ATOM     18  N   UNL     1       6.900   4.867  17.570  0.00  0.00    +0.000 NA
ATOM     19  C   UNL     1       7.049   5.824  16.463  0.00  0.00    +0.000 C 
ATOM     20  C   UNL     1       6.988   4.932  15.206  0.00  0.00    +0.000 C 
ATOM     21  C   UNL     1       5.694   4.122  15.075  0.00  0.00    +0.000 C 
ATOM     22  C   UNL     1       5.174   3.613  16.429  0.00  0.00    +0.000 C 
ATOM     23  C   UNL     1       5.440   4.615  17.574  0.00  0.00    +0.000 C 
ATOM     24  C   UNL     1       4.737   5.943  17.220  0.00  0.00    +0.000 C 
ATOM     25  C   UNL     1       5.884   6.811  16.701  0.00  0.00    +0.000 C 
ENDBRANCH  16  24
ENDBRANCH   1  16
TORSDOF 4
ENDMDL
MODEL 6
REMARK VINA RESULT:      -8.6      3.985      6.743
REMARK  Name = 
REMARK  5 active torsions:
REMARK  status: ('A' for Active; 'I' for Inactive)
REMARK    1  A    between atoms: C_1  and  N_2
REMARK    2  A    between atoms: C_8  and  O_9
REMARK    3  A    between atoms: O_9  and  C_10
REMARK    4  A    between atoms: C_10  and  C_11
REMARK    5  A    between atoms: C_10  and  C_18
REMARK                            x       y       z     vdW  Elec       q    Type
REMARK                         _______ _______ _______ _____ _____    ______ ____
ROOT
ATOM      1  C   UNL     1       5.141   4.913  16.236  0.00  0.00    +0.000 C 
ENDROOT
BRANCH   1   2
ATOM      2  C   UNL     1       6.085   5.775  17.089  0.00  0.00    +0.000 A 
ATOM      3  C   UNL     1       6.189   7.170  16.923  0.00  0.00    +0.000 A 
ATOM      4  C   UNL     1       7.158   7.904  17.610  0.00  0.00    +0.000 A 
ATOM      5  C   UNL     1       8.017   7.251  18.486  0.00  0.00    +0.000 A 
ATOM      6  F   UNL     1       8.975   7.947  19.112  0.00  0.00    +0.000 F 
ATOM      7  C   UNL     1       7.896   5.888  18.723  0.00  0.00    +0.000 A 
ATOM      8  C   UNL     1       6.924   5.148  18.030  0.00  0.00    +0.000 A 
ENDBRANCH   1   2
BRANCH   1   9
ATOM      9  C   UNL     1       5.714   4.583  14.855  0.00  0.00    +0.000 A 
ATOM     10  C   UNL     1       4.997   3.756  13.970  0.00  0.00    +0.000 A 
ATOM     11  C   UNL     1       5.543   3.388  12.737  0.00  0.00    +0.000 A 
ATOM     12  C   UNL     1       6.804   3.846  12.374  0.00  0.00    +0.000 A 
ATOM     13  F   UNL     1       7.329   3.480  11.199  0.00  0.00    +0.000 F 
ATOM     14  C   UNL     1       7.532   4.668  13.221  0.00  0.00    +0.000 A 
ATOM     15  C   UNL     1       6.991   5.033  14.458  0.00  0.00    +0.000 A 
ENDBRANCH   1   9
BRANCH   1  16
ATOM     16  O   UNL     1       4.771   3.655  16.817  0.00  0.00    +0.000 OA
BRANCH  16  24
ATOM     17  C   UNL     1       4.670   2.041  20.016  0.00  0.00    +0.000 C 
ATOM     18  N   UNL     1       3.481   2.854  19.785  0.00  0.00    +0.000 NA
ATOM     19  C   UNL     1       2.440   2.095  19.075  0.00  0.00    +0.000 C 
ATOM     20  C   UNL     1       1.138   2.828  19.458  0.00  0.00    +0.000 C 
ATOM     21  C   UNL     1       1.115   4.310  19.065  0.00  0.00    +0.000 C 
ATOM     22  C   UNL     1       2.483   4.989  19.240  0.00  0.00    +0.000 C 
ATOM     23  C   UNL     1       3.657   4.038  18.913  0.00  0.00    +0.000 C 
ATOM     24  C   UNL     1       3.498   3.568  17.451  0.00  0.00    +0.000 C 
ATOM     25  C   UNL     1       2.901   2.169  17.603  0.00  0.00    +0.000 C 
ENDBRANCH  16  24
ENDBRANCH   1  16
TORSDOF 4
ENDMDL
MODEL 7
REMARK VINA RESULT:      -8.5      1.256      1.994
REMARK  Name = 
REMARK  5 active torsions:
REMARK  status: ('A' for Active; 'I' for Inactive)
REMARK    1  A    between atoms: C_1  and  N_2
REMARK    2  A    between atoms: C_8  and  O_9
REMARK    3  A    between atoms: O_9  and  C_10
REMARK    4  A    between atoms: C_10  and  C_11
REMARK    5  A    between atoms: C_10  and  C_18
REMARK                            x       y       z     vdW  Elec       q    Type
REMARK                         _______ _______ _______ _____ _____    ______ ____
ROOT
ATOM      1  C   UNL     1       2.937   6.510  18.901  0.00  0.00    +0.000 C 
ENDROOT
BRANCH   1   2
ATOM      2  C   UNL     1       2.130   7.809  19.052  0.00  0.00    +0.000 A 
ATOM      3  C   UNL     1       1.585   8.219  20.284  0.00  0.00    +0.000 A 
ATOM      4  C   UNL     1       0.737   9.326  20.361  0.00  0.00    +0.000 A 
ATOM      5  C   UNL     1       0.444  10.044  19.207  0.00  0.00    +0.000 A 
ATOM      6  F   UNL     1      -0.404  11.079  19.272  0.00  0.00    +0.000 F 
ATOM      7  C   UNL     1       1.019   9.706  17.990  0.00  0.00    +0.000 A 
ATOM      8  C   UNL     1       1.870   8.591  17.910  0.00  0.00    +0.000 A 
ENDBRANCH   1   2
BRANCH   1   9
ATOM      9  C   UNL     1       2.323   5.331  19.662  0.00  0.00    +0.000 A 
ATOM     10  C   UNL     1       2.711   5.067  20.988  0.00  0.00    +0.000 A 
ATOM     11  C   UNL     1       2.214   3.950  21.668  0.00  0.00    +0.000 A 
ATOM     12  C   UNL     1       1.323   3.094  21.032  0.00  0.00    +0.000 A 
ATOM     13  F   UNL     1       0.860   2.018  21.681  0.00  0.00    +0.000 F 
ATOM     14  C   UNL     1       0.916   3.332  19.728  0.00  0.00    +0.000 A 
ATOM     15  C   UNL     1       1.417   4.444  19.044  0.00  0.00    +0.000 A 
ENDBRANCH   1   9
BRANCH   1  16
ATOM     16  O   UNL     1       3.115   6.055  17.553  0.00  0.00    +0.000 OA
BRANCH  16  24
ATOM     17  C   UNL     1       4.794   3.172  18.863  0.00  0.00    +0.000 C 
ATOM     18  N   UNL     1       5.442   3.669  17.655  0.00  0.00    +0.000 NA
ATOM     19  C   UNL     1       6.432   4.712  17.966  0.00  0.00    +0.000 C 
ATOM     20  C   UNL     1       7.393   4.665  16.761  0.00  0.00    +0.000 C 
ATOM     21  C   UNL     1       6.716   4.921  15.409  0.00  0.00    +0.000 C 
ATOM     22  C   UNL     1       5.313   4.300  15.323  0.00  0.00    +0.000 C 
ATOM     23  C   UNL     1       4.565   4.350  16.674  0.00  0.00    +0.000 C 
ATOM     24  C   UNL     1       4.447   5.829  17.102  0.00  0.00    +0.000 C 
ATOM     25  C   UNL     1       5.560   5.975  18.141  0.00  0.00    +0.000 C 
ENDBRANCH  16  24
ENDBRANCH   1  16
TORSDOF 4
ENDMDL
MODEL 8
REMARK VINA RESULT:      -8.4      3.923      6.708
REMARK  Name = 
REMARK  5 active torsions:
REMARK  status: ('A' for Active; 'I' for Inactive)
REMARK    1  A    between atoms: C_1  and  N_2
REMARK    2  A    between atoms: C_8  and  O_9
REMARK    3  A    between atoms: O_9  and  C_10
REMARK    4  A    between atoms: C_10  and  C_11
REMARK    5  A    between atoms: C_10  and  C_18
REMARK                            x       y       z     vdW  Elec       q    Type
REMARK                         _______ _______ _______ _____ _____    ______ ____
ROOT
ATOM      1  C   UNL     1       5.319   5.215  15.992  0.00  0.00    +0.000 C 
ENDROOT
BRANCH   1   2
ATOM      2  C   UNL     1       6.395   5.908  16.843  0.00  0.00    +0.000 A 
ATOM      3  C   UNL     1       7.114   5.231  17.847  0.00  0.00    +0.000 A 
ATOM      4  C   UNL     1       7.978   5.921  18.699  0.00  0.00    +0.000 A 
ATOM      5  C   UNL     1       8.147   7.292  18.539  0.00  0.00    +0.000 A 
ATOM      6  F   UNL     1       8.943   7.961  19.383  0.00  0.00    +0.000 F 
ATOM      7  C   UNL     1       7.505   7.976  17.516  0.00  0.00    +0.000 A 
ATOM      8  C   UNL     1       6.632   7.284  16.660  0.00  0.00    +0.000 A 
ENDBRANCH   1   2
BRANCH   1   9
ATOM      9  C   UNL     1       5.845   4.730  14.638  0.00  0.00    +0.000 A 
ATOM     10  C   UNL     1       5.086   3.834  13.864  0.00  0.00    +0.000 A 
ATOM     11  C   UNL     1       5.589   3.326  12.662  0.00  0.00    +0.000 A 
ATOM     12  C   UNL     1       6.848   3.715  12.220  0.00  0.00    +0.000 A 
ATOM     13  F   UNL     1       7.332   3.216  11.076  0.00  0.00    +0.000 F 
ATOM     14  C   UNL     1       7.617   4.603  12.957  0.00  0.00    +0.000 A 
ATOM     15  C   UNL     1       7.119   5.106  14.163  0.00  0.00    +0.000 A 
ENDBRANCH   1   9
BRANCH   1  16
ATOM     16  O   UNL     1       4.699   4.076  16.601  0.00  0.00    +0.000 OA
BRANCH  16  24
ATOM     17  C   UNL     1       3.672   1.336  18.672  0.00  0.00    +0.000 C 
ATOM     18  N   UNL     1       3.158   2.608  19.169  0.00  0.00    +0.000 NA
ATOM     19  C   UNL     1       1.876   2.954  18.537  0.00  0.00    +0.000 C 
ATOM     20  C   UNL     1       1.220   3.908  19.556  0.00  0.00    +0.000 C 
ATOM     21  C   UNL     1       2.048   5.161  19.864  0.00  0.00    +0.000 C 
ATOM     22  C   UNL     1       3.557   4.876  19.909  0.00  0.00    +0.000 C 
ATOM     23  C   UNL     1       3.984   3.804  18.881  0.00  0.00    +0.000 C 
ATOM     24  C   UNL     1       3.597   4.310  17.475  0.00  0.00    +0.000 C 
ATOM     25  C   UNL     1       2.308   3.543  17.176  0.00  0.00    +0.000 C 
ENDBRANCH  16  24
ENDBRANCH   1  16
TORSDOF 4
ENDMDL
MODEL 9
REMARK VINA RESULT:      -8.4      3.569      7.458
REMARK  Name = 
REMARK  5 active torsions:
REMARK  status: ('A' for Active; 'I' for Inactive)
REMARK    1  A    between atoms: C_1  and  N_2
REMARK    2  A    between atoms: C_8  and  O_9
REMARK    3  A    between atoms: O_9  and  C_10
REMARK    4  A    between atoms: C_10  and  C_11
REMARK    5  A    between atoms: C_10  and  C_18
REMARK                            x       y       z     vdW  Elec       q    Type
REMARK                         _______ _______ _______ _____ _____    ______ ____
ROOT
ATOM      1  C   UNL     1       5.701   4.656  16.653  0.00  0.00    +0.000 C 
ENDROOT
BRANCH   1   2
ATOM      2  C   UNL     1       6.036   4.507  15.160  0.00  0.00    +0.000 A 
ATOM      3  C   UNL     1       5.214   3.787  14.271  0.00  0.00    +0.000 A 
ATOM      4  C   UNL     1       5.618   3.547  12.956  0.00  0.00    +0.000 A 
ATOM      5  C   UNL     1       6.838   4.045  12.513  0.00  0.00    +0.000 A 
ATOM      6  F   UNL     1       7.246   3.779  11.265  0.00  0.00    +0.000 F 
ATOM      7  C   UNL     1       7.639   4.816  13.345  0.00  0.00    +0.000 A 
ATOM      8  C   UNL     1       7.236   5.055  14.669  0.00  0.00    +0.000 A 
ENDBRANCH   1   2
BRANCH   1   9
ATOM      9  C   UNL     1       6.545   5.725  17.353  0.00  0.00    +0.000 A 
ATOM     10  C   UNL     1       6.493   7.062  16.919  0.00  0.00    +0.000 A 
ATOM     11  C   UNL     1       7.314   8.033  17.501  0.00  0.00    +0.000 A 
ATOM     12  C   UNL     1       8.186   7.678  18.524  0.00  0.00    +0.000 A 
ATOM     13  F   UNL     1       8.981   8.608  19.070  0.00  0.00    +0.000 F 
ATOM     14  C   UNL     1       8.254   6.370  18.979  0.00  0.00    +0.000 A 
ATOM     15  C   UNL     1       7.439   5.396  18.393  0.00  0.00    +0.000 A 
ENDBRANCH   1   9
BRANCH   1  16
ATOM     16  O   UNL     1       4.336   4.982  16.943  0.00  0.00    +0.000 OA
BRANCH  16  24
ATOM     17  C   UNL     1       2.565   6.632  19.586  0.00  0.00    +0.000 C 
ATOM     18  N   UNL     1       2.103   5.261  19.404  0.00  0.00    +0.000 NA
ATOM     19  C   UNL     1       2.914   4.312  20.184  0.00  0.00    +0.000 C 
ATOM     20  C   UNL     1       1.972   3.105  20.371  0.00  0.00    +0.000 C 
ATOM     21  C   UNL     1       1.488   2.479  19.058  0.00  0.00    +0.000 C 
ATOM     22  C   UNL     1       1.218   3.528  17.967  0.00  0.00    +0.000 C 
ATOM     23  C   UNL     1       2.209   4.712  18.032  0.00  0.00    +0.000 C 
ATOM     24  C   UNL     1       3.637   4.149  17.864  0.00  0.00    +0.000 C 
ATOM     25  C   UNL     1       4.165   4.118  19.299  0.00  0.00    +0.000 C 
ENDBRANCH  16  24
ENDBRANCH   1  16
TORSDOF 4
ENDMDL
