MODEL 1
REMARK VINA RESULT:      -8.4      0.000      0.000
REMARK  Name = 
REMARK  6 active torsions:
REMARK  status: ('A' for Active; 'I' for Inactive)
REMARK    1  A    between atoms: C_1  and  C_2
REMARK    2  A    between atoms: C_5  and  N_6
REMARK    3  A    between atoms: N_6  and  C_7
REMARK    4  A    between atoms: C_20  and  C_21
REMARK    5  A    between atoms: C_20  and  C_22
REMARK    6  A    between atoms: C_25  and  C_26
REMARK                            x       y       z     vdW  Elec       q    Type
REMARK                         _______ _______ _______ _____ _____    ______ ____
ROOT
ATOM      1  C   UNL     1       6.280   5.987  16.504  0.00  0.00    +0.000 A 
ATOM      2  C   UNL     1       7.409   6.686  16.929  0.00  0.00    +0.000 A 
ATOM      3  C   UNL     1       7.781   6.594  18.258  0.00  0.00    +0.000 A 
ATOM      4  N   UNL     1       7.143   5.835  19.182  0.00  0.00    +0.000 NA
ATOM      5  C   UNL     1       6.044   5.157  18.810  0.00  0.00    +0.000 A 
ATOM      6  C   UNL     1       5.318   4.390  19.753  0.00  0.00    +0.000 A 
ATOM      7  C   UNL     1       4.116   3.780  19.395  0.00  0.00    +0.000 A 
ATOM      8  C   UNL     1       3.677   3.920  18.108  0.00  0.00    +0.000 A 
ATOM      9  C   UNL     1       4.380   4.566  17.124  0.00  0.00    +0.000 A 
ATOM     10  C   UNL     1       5.574   5.225  17.467  0.00  0.00    +0.000 A 
ATOM     11  S   UNL     1       2.040   3.398  17.894  0.00  0.00    +0.000 S 
ATOM     12  O   UNL     1       1.287   4.528  17.383  0.00  0.00    +0.000 OA
ATOM     13  O   UNL     1       2.122   2.137  17.188  0.00  0.00    +0.000 OA
ATOM     14  C   UNL     1       1.685   3.147  19.651  0.00  0.00    +0.000 C 
ATOM     15  C   UNL     1       1.095   4.387  20.340  0.00  0.00    +0.000 C 
ATOM     16  C   UNL     1       0.683   1.995  19.752  0.00  0.00    +0.000 C 
ATOM     17  C   UNL     1       3.118   3.047  20.222  0.00  0.00    +0.000 C 
ATOM     18  O   UNL     1       3.418   2.538  21.302  0.00  0.00    +0.000 OA
ENDROOT
BRANCH   1  19
ATOM     19  N   UNL     1       5.869   5.980  15.146  0.00  0.00    +0.000 N 
ATOM     20  H   UNL     1       5.516   6.871  14.811  0.00  0.00    +0.000 HD
BRANCH  19  25
ATOM     21  C   UNL     1       7.324   3.002  11.443  0.00  0.00    +0.000 C 
ATOM     22  C   UNL     1       6.612   3.681  12.551  0.00  0.00    +0.000 A 
ATOM     23  N   UNL     1       5.431   3.219  12.980  0.00  0.00    +0.000 NA
ATOM     24  N   UNL     1       5.100   4.060  13.966  0.00  0.00    +0.000 N 
ATOM     25  C   UNL     1       6.045   5.017  14.217  0.00  0.00    +0.000 A 
ATOM     26  C   UNL     1       7.035   4.830  13.276  0.00  0.00    +0.000 A 
ATOM     27  C   UNL     1       8.281   5.607  13.064  0.00  0.00    +0.000 C 
ATOM     28  H   UNL     1       4.200   3.960  14.419  0.00  0.00    +0.000 HD
ENDBRANCH  19  25
ENDBRANCH   1  19
TORSDOF 2
ENDMDL
MODEL 2
REMARK VINA RESULT:      -8.1      0.929      1.219
REMARK  Name = 
REMARK  6 active torsions:
REMARK  status: ('A' for Active; 'I' for Inactive)
REMARK    1  A    between atoms: C_1  and  C_2
REMARK    2  A    between atoms: C_5  and  N_6
REMARK    3  A    between atoms: N_6  and  C_7
REMARK    4  A    between atoms: C_20  and  C_21
REMARK    5  A    between atoms: C_20  and  C_22
REMARK    6  A    between atoms: C_25  and  C_26
REMARK                            x       y       z     vdW  Elec       q    Type
REMARK                         _______ _______ _______ _____ _____    ______ ____
ROOT
ATOM      1  C   UNL     1       6.333   5.992  16.626  0.00  0.00    +0.000 A 
ATOM      2  C   UNL     1       7.455   6.680  17.086  0.00  0.00    +0.000 A 
ATOM      3  C   UNL     1       7.801   6.563  18.420  0.00  0.00    +0.000 A 
ATOM      4  N   UNL     1       7.144   5.786  19.317  0.00  0.00    +0.000 NA
ATOM      5  C   UNL     1       6.051   5.118  18.910  0.00  0.00    +0.000 A 
ATOM      6  C   UNL     1       5.307   4.333  19.824  0.00  0.00    +0.000 A 
ATOM      7  C   UNL     1       4.111   3.733  19.430  0.00  0.00    +0.000 A 
ATOM      8  C   UNL     1       3.697   3.899  18.138  0.00  0.00    +0.000 A 
ATOM      9  C   UNL     1       4.419   4.563  17.181  0.00  0.00    +0.000 A 
ATOM     10  C   UNL     1       5.607   5.213  17.560  0.00  0.00    +0.000 A 
ATOM     11  S   UNL     1       2.064   3.384  17.882  0.00  0.00    +0.000 S 
ATOM     12  O   UNL     1       1.322   4.525  17.379  0.00  0.00    +0.000 OA
ATOM     13  O   UNL     1       2.157   2.137  17.154  0.00  0.00    +0.000 OA
ATOM     14  C   UNL     1       1.674   3.100  19.627  0.00  0.00    +0.000 C 
ATOM     15  C   UNL     1       1.073   4.327  20.328  0.00  0.00    +0.000 C 
ATOM     16  C   UNL     1       0.669   1.947  19.686  0.00  0.00    +0.000 C 
ATOM     17  C   UNL     1       3.096   2.986  20.223  0.00  0.00    +0.000 C 
ATOM     18  O   UNL     1       3.374   2.455  21.299  0.00  0.00    +0.000 OA
ENDROOT
BRANCH   1  19
ATOM     19  N   UNL     1       5.948   6.013  15.260  0.00  0.00    +0.000 N 
ATOM     20  H   UNL     1       5.266   6.728  15.028  0.00  0.00    +0.000 HD
BRANCH  19  25
ATOM     21  C   UNL     1       7.128   2.907  11.564  0.00  0.00    +0.000 C 
ATOM     22  C   UNL     1       7.093   3.964  12.602  0.00  0.00    +0.000 A 
ATOM     23  N   UNL     1       8.129   4.796  12.757  0.00  0.00    +0.000 NA
ATOM     24  N   UNL     1       7.748   5.596  13.758  0.00  0.00    +0.000 N 
ATOM     25  C   UNL     1       6.488   5.338  14.223  0.00  0.00    +0.000 A 
ATOM     26  C   UNL     1       6.040   4.241  13.519  0.00  0.00    +0.000 A 
ATOM     27  C   UNL     1       4.752   3.515  13.642  0.00  0.00    +0.000 C 
ATOM     28  H   UNL     1       8.399   6.285  14.115  0.00  0.00    +0.000 HD
ENDBRANCH  19  25
ENDBRANCH   1  19
TORSDOF 2
ENDMDL
MODEL 3
REMARK VINA RESULT:      -7.9      4.140      7.174
REMARK  Name = 
REMARK  6 active torsions:
REMARK  status: ('A' for Active; 'I' for Inactive)
REMARK    1  A    between atoms: C_1  and  C_2
REMARK    2  A    between atoms: C_5  and  N_6
REMARK    3  A    between atoms: N_6  and  C_7
REMARK    4  A    between atoms: C_20  and  C_21
REMARK    5  A    between atoms: C_20  and  C_22
REMARK    6  A    between atoms: C_25  and  C_26
REMARK                            x       y       z     vdW  Elec       q    Type
REMARK                         _______ _______ _______ _____ _____    ______ ____
ROOT
ATOM      1  C   UNL     1       2.245   5.770  19.990  0.00  0.00    +0.000 A 
ATOM      2  C   UNL     1       1.262   4.967  20.566  0.00  0.00    +0.000 A 
ATOM      3  C   UNL     1       1.185   3.639  20.185  0.00  0.00    +0.000 A 
ATOM      4  N   UNL     1       2.031   3.044  19.308  0.00  0.00    +0.000 NA
ATOM      5  C   UNL     1       2.984   3.791  18.725  0.00  0.00    +0.000 A 
ATOM      6  C   UNL     1       3.859   3.222  17.769  0.00  0.00    +0.000 A 
ATOM      7  C   UNL     1       4.771   4.021  17.080  0.00  0.00    +0.000 A 
ATOM      8  C   UNL     1       4.815   5.355  17.375  0.00  0.00    +0.000 A 
ATOM      9  C   UNL     1       4.065   5.949  18.357  0.00  0.00    +0.000 A 
ATOM     10  C   UNL     1       3.108   5.175  19.038  0.00  0.00    +0.000 A 
ATOM     11  S   UNL     1       5.745   6.267  16.234  0.00  0.00    +0.000 S 
ATOM     12  O   UNL     1       4.871   7.280  15.672  0.00  0.00    +0.000 OA
ATOM     13  O   UNL     1       6.980   6.598  16.913  0.00  0.00    +0.000 OA
ATOM     14  C   UNL     1       5.984   4.916  15.054  0.00  0.00    +0.000 C 
ATOM     15  C   UNL     1       4.900   4.851  13.968  0.00  0.00    +0.000 C 
ATOM     16  C   UNL     1       7.346   5.129  14.389  0.00  0.00    +0.000 C 
ATOM     17  C   UNL     1       5.688   3.694  15.953  0.00  0.00    +0.000 C 
ATOM     18  O   UNL     1       6.047   2.539  15.723  0.00  0.00    +0.000 OA
ENDROOT
BRANCH   1  19
ATOM     19  N   UNL     1       2.427   7.124  20.373  0.00  0.00    +0.000 N 
ATOM     20  H   UNL     1       3.363   7.343  20.703  0.00  0.00    +0.000 HD
BRANCH  19  25
ATOM     21  C   UNL     1      -0.159  11.073  18.820  0.00  0.00    +0.000 C 
ATOM     22  C   UNL     1       0.445   9.955  19.583  0.00  0.00    +0.000 A 
ATOM     23  N   UNL     1       0.097   9.739  20.857  0.00  0.00    +0.000 NA
ATOM     24  N   UNL     1       0.824   8.673  21.209  0.00  0.00    +0.000 N 
ATOM     25  C   UNL     1       1.593   8.169  20.196  0.00  0.00    +0.000 A 
ATOM     26  C   UNL     1       1.407   9.013  19.122  0.00  0.00    +0.000 A 
ATOM     27  C   UNL     1       2.025   8.959  17.774  0.00  0.00    +0.000 C 
ATOM     28  H   UNL     1       0.787   8.344  22.166  0.00  0.00    +0.000 HD
ENDBRANCH  19  25
ENDBRANCH   1  19
TORSDOF 2
ENDMDL
MODEL 4
REMARK VINA RESULT:      -7.7      9.189     11.433
REMARK  Name = 
REMARK  6 active torsions:
REMARK  status: ('A' for Active; 'I' for Inactive)
REMARK    1  A    between atoms: C_1  and  C_2
REMARK    2  A    between atoms: C_5  and  N_6
REMARK    3  A    between atoms: N_6  and  C_7
REMARK    4  A    between atoms: C_20  and  C_21
REMARK    5  A    between atoms: C_20  and  C_22
REMARK    6  A    between atoms: C_25  and  C_26
REMARK                            x       y       z     vdW  Elec       q    Type
REMARK                         _______ _______ _______ _____ _____    ______ ____
ROOT
ATOM      1  C   UNL     1      -1.635  11.375  18.277  0.00  0.00    +0.000 A 
ATOM      2  C   UNL     1      -2.357  10.836  17.214  0.00  0.00    +0.000 A 
ATOM      3  C   UNL     1      -3.730  11.004  17.194  0.00  0.00    +0.000 A 
ATOM      4  N   UNL     1      -4.431  11.697  18.126  0.00  0.00    +0.000 NA
ATOM      5  C   UNL     1      -3.768  12.221  19.171  0.00  0.00    +0.000 A 
ATOM      6  C   UNL     1      -4.465  12.911  20.192  0.00  0.00    +0.000 A 
ATOM      7  C   UNL     1      -3.795  13.354  21.331  0.00  0.00    +0.000 A 
ATOM      8  C   UNL     1      -2.450  13.130  21.420  0.00  0.00    +0.000 A 
ATOM      9  C   UNL     1      -1.700  12.557  20.425  0.00  0.00    +0.000 A 
ATOM     10  C   UNL     1      -2.357  12.063  19.284  0.00  0.00    +0.000 A 
ATOM     11  S   UNL     1      -1.818  13.435  23.003  0.00  0.00    +0.000 S 
ATOM     12  O   UNL     1      -1.201  12.207  23.468  0.00  0.00    +0.000 OA
ATOM     13  O   UNL     1      -1.087  14.680  22.899  0.00  0.00    +0.000 OA
ATOM     14  C   UNL     1      -3.421  13.679  23.808  0.00  0.00    +0.000 C 
ATOM     15  C   UNL     1      -4.012  12.390  24.399  0.00  0.00    +0.000 C 
ATOM     16  C   UNL     1      -3.215  14.696  24.932  0.00  0.00    +0.000 C 
ATOM     17  C   UNL     1      -4.316  13.973  22.582  0.00  0.00    +0.000 C 
ATOM     18  O   UNL     1      -5.407  14.541  22.620  0.00  0.00    +0.000 OA
ENDROOT
BRANCH   1  19
ATOM     19  N   UNL     1      -0.220  11.299  18.338  0.00  0.00    +0.000 N 
ATOM     20  H   UNL     1       0.246  12.200  18.395  0.00  0.00    +0.000 HD
BRANCH  19  25
ATOM     21  C   UNL     1       2.273   7.295  19.904  0.00  0.00    +0.000 C 
ATOM     22  C   UNL     1       1.733   8.456  19.157  0.00  0.00    +0.000 A 
ATOM     23  N   UNL     1       2.207   8.758  17.942  0.00  0.00    +0.000 NA
ATOM     24  N   UNL     1       1.500   9.835  17.584  0.00  0.00    +0.000 N 
ATOM     25  C   UNL     1       0.559  10.209  18.504  0.00  0.00    +0.000 A 
ATOM     26  C   UNL     1       0.712   9.355  19.574  0.00  0.00    +0.000 A 
ATOM     27  C   UNL     1      -0.024   9.329  20.862  0.00  0.00    +0.000 C 
ATOM     28  H   UNL     1       1.719  10.302  16.713  0.00  0.00    +0.000 HD
ENDBRANCH  19  25
ENDBRANCH   1  19
TORSDOF 2
ENDMDL
MODEL 5
REMARK VINA RESULT:      -7.6      3.988      7.321
REMARK  Name = 
REMARK  6 active torsions:
REMARK  status: ('A' for Active; 'I' for Inactive)
REMARK    1  A    between atoms: C_1  and  C_2
REMARK    2  A    between atoms: C_5  and  N_6
REMARK    3  A    between atoms: N_6  and  C_7
REMARK    4  A    between atoms: C_20  and  C_21
REMARK    5  A    between atoms: C_20  and  C_22
REMARK    6  A    between atoms: C_25  and  C_26
REMARK                            x       y       z     vdW  Elec       q    Type
REMARK                         _______ _______ _______ _____ _____    ______ ____
ROOT
ATOM      1  C   UNL     1       2.212   5.904  19.904  0.00  0.00    +0.000 A 
ATOM      2  C   UNL     1       1.232   5.119  20.509  0.00  0.00    +0.000 A 
ATOM      3  C   UNL     1       1.160   3.779  20.174  0.00  0.00    +0.000 A 
ATOM      4  N   UNL     1       2.008   3.156  19.319  0.00  0.00    +0.000 NA
ATOM      5  C   UNL     1       2.958   3.884  18.710  0.00  0.00    +0.000 A 
ATOM      6  C   UNL     1       3.835   3.285  17.775  0.00  0.00    +0.000 A 
ATOM      7  C   UNL     1       4.745   4.062  17.058  0.00  0.00    +0.000 A 
ATOM      8  C   UNL     1       4.784   5.406  17.305  0.00  0.00    +0.000 A 
ATOM      9  C   UNL     1       4.033   6.031  18.266  0.00  0.00    +0.000 A 
ATOM     10  C   UNL     1       3.078   5.280  18.974  0.00  0.00    +0.000 A 
ATOM     11  S   UNL     1       5.711   6.280  16.133  0.00  0.00    +0.000 S 
ATOM     12  O   UNL     1       4.835   7.269  15.535  0.00  0.00    +0.000 OA
ATOM     13  O   UNL     1       6.945   6.638  16.799  0.00  0.00    +0.000 OA
ATOM     14  C   UNL     1       5.955   4.888  15.001  0.00  0.00    +0.000 C 
ATOM     15  C   UNL     1       4.871   4.782  13.919  0.00  0.00    +0.000 C 
ATOM     16  C   UNL     1       7.316   5.082  14.329  0.00  0.00    +0.000 C 
ATOM     17  C   UNL     1       5.663   3.698  15.943  0.00  0.00    +0.000 C 
ATOM     18  O   UNL     1       6.026   2.537  15.754  0.00  0.00    +0.000 OA
ENDROOT
BRANCH   1  19
ATOM     19  N   UNL     1       2.391   7.272  20.239  0.00  0.00    +0.000 N 
ATOM     20  H   UNL     1       3.263   7.475  20.719  0.00  0.00    +0.000 HD
BRANCH  19  25
ATOM     21  C   UNL     1      -0.802  11.047  19.733  0.00  0.00    +0.000 C 
ATOM     22  C   UNL     1       0.226   9.994  19.552  0.00  0.00    +0.000 A 
ATOM     23  N   UNL     1       0.863   9.864  18.382  0.00  0.00    +0.000 NA
ATOM     24  N   UNL     1       1.698   8.840  18.587  0.00  0.00    +0.000 N 
ATOM     25  C   UNL     1       1.653   8.336  19.858  0.00  0.00    +0.000 A 
ATOM     26  C   UNL     1       0.663   9.038  20.511  0.00  0.00    +0.000 A 
ATOM     27  C   UNL     1       0.169   8.881  21.901  0.00  0.00    +0.000 C 
ATOM     28  H   UNL     1       2.257   8.497  17.816  0.00  0.00    +0.000 HD
ENDBRANCH  19  25
ENDBRANCH   1  19
TORSDOF 2
ENDMDL
MODEL 6
REMARK VINA RESULT:      -7.5     10.062     12.207
REMARK  Name = 
REMARK  6 active torsions:
REMARK  status: ('A' for Active; 'I' for Inactive)
REMARK    1  A    between atoms: C_1  and  C_2
REMARK    2  A    between atoms: C_5  and  N_6
REMARK    3  A    between atoms: N_6  and  C_7
REMARK    4  A    between atoms: C_20  and  C_21
REMARK    5  A    between atoms: C_20  and  C_22
REMARK    6  A    between atoms: C_25  and  C_26
REMARK                            x       y       z     vdW  Elec       q    Type
REMARK                         _______ _______ _______ _____ _____    ______ ____
ROOT
ATOM      1  C   UNL     1      -1.802  10.924  18.151  0.00  0.00    +0.000 A 
ATOM      2  C   UNL     1      -1.610  10.114  17.033  0.00  0.00    +0.000 A 
ATOM      3  C   UNL     1      -2.681   9.889  16.187  0.00  0.00    +0.000 A 
ATOM      4  N   UNL     1      -3.912  10.437  16.348  0.00  0.00    +0.000 NA
ATOM      5  C   UNL     1      -4.136  11.214  17.421  0.00  0.00    +0.000 A 
ATOM      6  C   UNL     1      -5.418  11.767  17.653  0.00  0.00    +0.000 A 
ATOM      7  C   UNL     1      -5.680  12.477  18.825  0.00  0.00    +0.000 A 
ATOM      8  C   UNL     1      -4.663  12.646  19.722  0.00  0.00    +0.000 A 
ATOM      9  C   UNL     1      -3.376  12.221  19.512  0.00  0.00    +0.000 A 
ATOM     10  C   UNL     1      -3.093  11.467  18.359  0.00  0.00    +0.000 A 
ATOM     11  S   UNL     1      -5.206  13.251  21.251  0.00  0.00    +0.000 S 
ATOM     12  O   UNL     1      -4.811  12.290  22.263  0.00  0.00    +0.000 OA
ATOM     13  O   UNL     1      -4.790  14.637  21.292  0.00  0.00    +0.000 OA
ATOM     14  C   UNL     1      -6.976  13.106  20.899  0.00  0.00    +0.000 C 
ATOM     15  C   UNL     1      -7.577  11.760  21.330  0.00  0.00    +0.000 C 
ATOM     16  C   UNL     1      -7.682  14.234  21.654  0.00  0.00    +0.000 C 
ATOM     17  C   UNL     1      -6.956  13.032  19.355  0.00  0.00    +0.000 C 
ATOM     18  O   UNL     1      -7.915  13.273  18.621  0.00  0.00    +0.000 OA
ENDROOT
BRANCH   1  19
ATOM     19  N   UNL     1      -0.739  11.251  19.032  0.00  0.00    +0.000 N 
ATOM     20  H   UNL     1      -0.802  10.813  19.946  0.00  0.00    +0.000 HD
BRANCH  19  25
ATOM     21  C   UNL     1       2.886  14.517  18.084  0.00  0.00    +0.000 C 
ATOM     22  C   UNL     1       2.049  13.310  18.283  0.00  0.00    +0.000 A 
ATOM     23  N   UNL     1       2.565  12.090  18.089  0.00  0.00    +0.000 NA
ATOM     24  N   UNL     1       1.545  11.268  18.358  0.00  0.00    +0.000 N 
ATOM     25  C   UNL     1       0.407  11.911  18.760  0.00  0.00    +0.000 A 
ATOM     26  C   UNL     1       0.684  13.259  18.680  0.00  0.00    +0.000 A 
ATOM     27  C   UNL     1      -0.203  14.413  18.966  0.00  0.00    +0.000 C 
ATOM     28  H   UNL     1       1.664  10.271  18.219  0.00  0.00    +0.000 HD
ENDBRANCH  19  25
ENDBRANCH   1  19
TORSDOF 2
ENDMDL
MODEL 7
REMARK VINA RESULT:      -7.5      8.317     10.474
REMARK  Name = 
REMARK  6 active torsions:
REMARK  status: ('A' for Active; 'I' for Inactive)
REMARK    1  A    between atoms: C_1  and  C_2
REMARK    2  A    between atoms: C_5  and  N_6
REMARK    3  A    between atoms: N_6  and  C_7
REMARK    4  A    between atoms: C_20  and  C_21
REMARK    5  A    between atoms: C_20  and  C_22
REMARK    6  A    between atoms: C_25  and  C_26
REMARK                            x       y       z     vdW  Elec       q    Type
REMARK                         _______ _______ _______ _____ _____    ______ ____
ROOT
ATOM      1  C   UNL     1      -0.558  10.393  18.370  0.00  0.00    +0.000 A 
ATOM      2  C   UNL     1      -1.193   9.829  17.265  0.00  0.00    +0.000 A 
ATOM      3  C   UNL     1      -2.517  10.152  17.027  0.00  0.00    +0.000 A 
ATOM      4  N   UNL     1      -3.241  11.018  17.778  0.00  0.00    +0.000 NA
ATOM      5  C   UNL     1      -2.664  11.572  18.858  0.00  0.00    +0.000 A 
ATOM      6  C   UNL     1      -3.397  12.444  19.697  0.00  0.00    +0.000 A 
ATOM      7  C   UNL     1      -2.836  12.928  20.879  0.00  0.00    +0.000 A 
ATOM      8  C   UNL     1      -1.555  12.561  21.185  0.00  0.00    +0.000 A 
ATOM      9  C   UNL     1      -0.759  11.800  20.368  0.00  0.00    +0.000 A 
ATOM     10  C   UNL     1      -1.313  11.265  19.192  0.00  0.00    +0.000 A 
ATOM     11  S   UNL     1      -1.110  12.960  22.810  0.00  0.00    +0.000 S 
ATOM     12  O   UNL     1      -0.726  11.726  23.471  0.00  0.00    +0.000 OA
ATOM     13  O   UNL     1      -0.216  14.093  22.703  0.00  0.00    +0.000 OA
ATOM     14  C   UNL     1      -2.762  13.473  23.343  0.00  0.00    +0.000 C 
ATOM     15  C   UNL     1      -3.590  12.333  23.955  0.00  0.00    +0.000 C 
ATOM     16  C   UNL     1      -2.580  14.576  24.389  0.00  0.00    +0.000 C 
ATOM     17  C   UNL     1      -3.436  13.735  21.977  0.00  0.00    +0.000 C 
ATOM     18  O   UNL     1      -4.440  14.426  21.801  0.00  0.00    +0.000 OA
ENDROOT
BRANCH   1  19
ATOM     19  N   UNL     1       0.815  10.161  18.646  0.00  0.00    +0.000 N 
ATOM     20  H   UNL     1       1.318  10.977  18.981  0.00  0.00    +0.000 HD
BRANCH  19  25
ATOM     21  C   UNL     1       3.035   5.869  19.807  0.00  0.00    +0.000 C 
ATOM     22  C   UNL     1       2.527   7.098  19.152  0.00  0.00    +0.000 A 
ATOM     23  N   UNL     1       2.843   7.368  17.880  0.00  0.00    +0.000 NA
ATOM     24  N   UNL     1       2.219   8.525  17.637  0.00  0.00    +0.000 N 
ATOM     25  C   UNL     1       1.478   8.986  18.689  0.00  0.00    +0.000 A 
ATOM     26  C   UNL     1       1.691   8.099  19.722  0.00  0.00    +0.000 A 
ATOM     27  C   UNL     1       1.160   8.133  21.107  0.00  0.00    +0.000 C 
ATOM     28  H   UNL     1       2.357   8.982  16.743  0.00  0.00    +0.000 HD
ENDBRANCH  19  25
ENDBRANCH   1  19
TORSDOF 2
ENDMDL
MODEL 8
REMARK VINA RESULT:      -7.5      9.736     12.452
REMARK  Name = 
REMARK  6 active torsions:
REMARK  status: ('A' for Active; 'I' for Inactive)
REMARK    1  A    between atoms: C_1  and  C_2
REMARK    2  A    between atoms: C_5  and  N_6
REMARK    3  A    between atoms: N_6  and  C_7
REMARK    4  A    between atoms: C_20  and  C_21
REMARK    5  A    between atoms: C_20  and  C_22
REMARK    6  A    between atoms: C_25  and  C_26
REMARK                            x       y       z     vdW  Elec       q    Type
REMARK                         _______ _______ _______ _____ _____    ______ ____
ROOT
ATOM      1  C   UNL     1      -1.806  10.937  18.203  0.00  0.00    +0.000 A 
ATOM      2  C   UNL     1      -1.560  10.136  17.089  0.00  0.00    +0.000 A 
ATOM      3  C   UNL     1      -2.586   9.929  16.185  0.00  0.00    +0.000 A 
ATOM      4  N   UNL     1      -3.818  10.486  16.283  0.00  0.00    +0.000 NA
ATOM      5  C   UNL     1      -4.094  11.255  17.349  0.00  0.00    +0.000 A 
ATOM      6  C   UNL     1      -5.382  11.818  17.517  0.00  0.00    +0.000 A 
ATOM      7  C   UNL     1      -5.702  12.520  18.679  0.00  0.00    +0.000 A 
ATOM      8  C   UNL     1      -4.734  12.671  19.631  0.00  0.00    +0.000 A 
ATOM      9  C   UNL     1      -3.442  12.236  19.488  0.00  0.00    +0.000 A 
ATOM     10  C   UNL     1      -3.103  11.490  18.346  0.00  0.00    +0.000 A 
ATOM     11  S   UNL     1      -5.354  13.267  21.134  0.00  0.00    +0.000 S 
ATOM     12  O   UNL     1      -5.024  12.293  22.158  0.00  0.00    +0.000 OA
ATOM     13  O   UNL     1      -4.929  14.649  21.212  0.00  0.00    +0.000 OA
ATOM     14  C   UNL     1      -7.104  13.141  20.685  0.00  0.00    +0.000 C 
ATOM     15  C   UNL     1      -7.739  11.797  21.070  0.00  0.00    +0.000 C 
ATOM     16  C   UNL     1      -7.841  14.269  21.411  0.00  0.00    +0.000 C 
ATOM     17  C   UNL     1      -7.001  13.081  19.144  0.00  0.00    +0.000 C 
ATOM     18  O   UNL     1      -7.915  13.338  18.361  0.00  0.00    +0.000 OA
ENDROOT
BRANCH   1  19
ATOM     19  N   UNL     1      -0.790  11.247  19.144  0.00  0.00    +0.000 N 
ATOM     20  H   UNL     1      -0.427  12.193  19.071  0.00  0.00    +0.000 HD
BRANCH  19  25
ATOM     21  C   UNL     1       0.307   9.353  23.606  0.00  0.00    +0.000 C 
ATOM     22  C   UNL     1       0.184   9.659  22.161  0.00  0.00    +0.000 A 
ATOM     23  N   UNL     1       0.806   8.899  21.252  0.00  0.00    +0.000 NA
ATOM     24  N   UNL     1       0.472   9.461  20.085  0.00  0.00    +0.000 N 
ATOM     25  C   UNL     1      -0.378  10.525  20.207  0.00  0.00    +0.000 A 
ATOM     26  C   UNL     1      -0.555  10.717  21.561  0.00  0.00    +0.000 A 
ATOM     27  C   UNL     1      -1.352  11.755  22.261  0.00  0.00    +0.000 C 
ATOM     28  H   UNL     1       0.877   9.101  19.230  0.00  0.00    +0.000 HD
ENDBRANCH  19  25
ENDBRANCH   1  19
TORSDOF 2
ENDMDL
MODEL 9
REMARK VINA RESULT:      -7.3      8.594     10.721
REMARK  Name = 
REMARK  6 active torsions:
REMARK  status: ('A' for Active; 'I' for Inactive)
REMARK    1  A    between atoms: C_1  and  C_2
REMARK    2  A    between atoms: C_5  and  N_6
REMARK    3  A    between atoms: N_6  and  C_7
REMARK    4  A    between atoms: C_20  and  C_21
REMARK    5  A    between atoms: C_20  and  C_22
REMARK    6  A    between atoms: C_25  and  C_26
REMARK                            x       y       z     vdW  Elec       q    Type
REMARK                         _______ _______ _______ _____ _____    ______ ____
ROOT
ATOM      1  C   UNL     1      -0.738  10.562  18.494  0.00  0.00    +0.000 A 
ATOM      2  C   UNL     1      -1.353  10.043  17.356  0.00  0.00    +0.000 A 
ATOM      3  C   UNL     1      -2.665  10.395  17.095  0.00  0.00    +0.000 A 
ATOM      4  N   UNL     1      -3.395  11.249  17.855  0.00  0.00    +0.000 NA
ATOM      5  C   UNL     1      -2.838  11.759  18.966  0.00  0.00    +0.000 A 
ATOM      6  C   UNL     1      -3.579  12.617  19.814  0.00  0.00    +0.000 A 
ATOM      7  C   UNL     1      -3.040  13.054  21.024  0.00  0.00    +0.000 A 
ATOM      8  C   UNL     1      -1.774  12.656  21.351  0.00  0.00    +0.000 A 
ATOM      9  C   UNL     1      -0.969  11.908  20.531  0.00  0.00    +0.000 A 
ATOM     10  C   UNL     1      -1.501  11.419  19.324  0.00  0.00    +0.000 A 
ATOM     11  S   UNL     1      -1.365  12.996  22.999  0.00  0.00    +0.000 S 
ATOM     12  O   UNL     1      -1.018  11.737  23.630  0.00  0.00    +0.000 OA
ATOM     13  O   UNL     1      -0.451  14.117  22.950  0.00  0.00    +0.000 OA
ATOM     14  C   UNL     1      -3.022  13.520  23.506  0.00  0.00    +0.000 C 
ATOM     15  C   UNL     1      -3.883  12.375  24.060  0.00  0.00    +0.000 C 
ATOM     16  C   UNL     1      -2.850  14.587  24.590  0.00  0.00    +0.000 C 
ATOM     17  C   UNL     1      -3.656  13.836  22.132  0.00  0.00    +0.000 C 
ATOM     18  O   UNL     1      -4.644  14.549  21.953  0.00  0.00    +0.000 OA
ENDROOT
BRANCH   1  19
ATOM     19  N   UNL     1       0.622  10.298  18.798  0.00  0.00    +0.000 N 
ATOM     20  H   UNL     1       1.235  11.104  18.712  0.00  0.00    +0.000 HD
BRANCH  19  25
ATOM     21  C   UNL     1       2.958   6.039  19.849  0.00  0.00    +0.000 C 
ATOM     22  C   UNL     1       2.139   7.274  19.859  0.00  0.00    +0.000 A 
ATOM     23  N   UNL     1       1.442   7.614  20.950  0.00  0.00    +0.000 NA
ATOM     24  N   UNL     1       0.842   8.757  20.600  0.00  0.00    +0.000 N 
ATOM     25  C   UNL     1       1.164   9.188  19.342  0.00  0.00    +0.000 A 
ATOM     26  C   UNL     1       1.978   8.215  18.804  0.00  0.00    +0.000 A 
ATOM     27  C   UNL     1       2.590   8.151  17.454  0.00  0.00    +0.000 C 
ATOM     28  H   UNL     1       0.193   9.192  21.245  0.00  0.00    +0.000 HD
ENDBRANCH  19  25
ENDBRANCH   1  19
TORSDOF 2
ENDMDL
