MODEL 1
REMARK VINA RESULT:      -7.2      0.000      0.000
REMARK  Name = 
REMARK  12 active torsions:
REMARK  status: ('A' for Active; 'I' for Inactive)
REMARK    1  A    between atoms: C_1  and  O_2
REMARK    2  A    between atoms: O_2  and  C_3
REMARK    3  A    between atoms: C_6  and  C_7
REMARK    4  A    between atoms: C_7  and  C_8
REMARK    5  A    between atoms: C_8  and  O_10
REMARK    6  A    between atoms: O_10  and  C_11
REMARK    7  A    between atoms: C_11  and  C_12
REMARK    8  A    between atoms: N_14  and  C_15
REMARK    9  A    between atoms: C_19  and  C_20
REMARK   10  A    between atoms: C_21  and  C_22
REMARK   11  A    between atoms: C_24  and  O_25
REMARK   12  A    between atoms: O_25  and  C_26
REMARK                            x       y       z     vdW  Elec       q    Type
REMARK                         _______ _______ _______ _____ _____    ______ ____
ROOT
ATOM      1  O   UNL     1       2.039   9.702  18.456  0.00  0.00    +0.000 OA
ENDROOT
BRANCH   1   2
ATOM      2  C   UNL     1       0.932   9.953  19.216  0.00  0.00    +0.000 C 
ATOM      3  O   UNL     1       0.596   9.293  20.193  0.00  0.00    +0.000 OA
BRANCH   2   4
ATOM      4  C   UNL     1       0.254  11.221  18.749  0.00  0.00    +0.000 C 
BRANCH   4   8
ATOM      5  C   UNL     1      -3.962  11.104  17.748  0.00  0.00    +0.000 A 
ATOM      6  C   UNL     1      -3.518  11.800  18.883  0.00  0.00    +0.000 A 
ATOM      7  C   UNL     1      -2.163  11.828  19.235  0.00  0.00    +0.000 A 
ATOM      8  C   UNL     1      -1.225  11.126  18.479  0.00  0.00    +0.000 A 
ATOM      9  C   UNL     1      -1.681  10.385  17.382  0.00  0.00    +0.000 A 
ATOM     10  C   UNL     1      -3.037  10.353  17.010  0.00  0.00    +0.000 A 
BRANCH   5  12
ATOM     11  C   UNL     1      -5.858  12.417  17.181  0.00  0.00    +0.000 C 
ATOM     12  O   UNL     1      -5.273  11.129  17.358  0.00  0.00    +0.000 OA
ENDBRANCH   5  12
BRANCH  10  13
ATOM     13  O   UNL     1      -3.240   9.575  15.903  0.00  0.00    +0.000 OA
ATOM     14  C   UNL     1      -3.070  10.143  14.616  0.00  0.00    +0.000 C 
ENDBRANCH  10  13
ENDBRANCH   4   8
ENDBRANCH   2   4
ENDBRANCH   1   2
BRANCH   1  15
ATOM     15  C   UNL     1       1.920   8.561  17.600  0.00  0.00    +0.000 C 
BRANCH  15  16
ATOM     16  C   UNL     1       2.855   7.458  18.107  0.00  0.00    +0.000 C 
ATOM     17  O   UNL     1       4.031   7.382  17.756  0.00  0.00    +0.000 OA
ATOM     18  N   UNL     1       2.280   6.576  19.001  0.00  0.00    +0.000 N 
ATOM     19  H   UNL     1       1.274   6.574  19.109  0.00  0.00    +0.000 HD
BRANCH  18  20
ATOM     20  C   UNL     1       3.063   5.533  19.683  0.00  0.00    +0.000 C 
ATOM     21  C   UNL     1       2.319   4.991  20.917  0.00  0.00    +0.000 C 
ATOM     22  C   UNL     1       1.038   4.265  20.520  0.00  0.00    +0.000 C 
ATOM     23  C   UNL     1       1.318   3.123  19.548  0.00  0.00    +0.000 C 
ATOM     24  C   UNL     1       2.141   3.565  18.324  0.00  0.00    +0.000 C 
ATOM     25  C   UNL     1       2.444   2.354  17.438  0.00  0.00    +0.000 C 
ATOM     26  C   UNL     1       3.413   4.368  18.715  0.00  0.00    +0.000 C 
ATOM     27  C   UNL     1       4.515   3.478  19.319  0.00  0.00    +0.000 C 
ENDBRANCH  18  20
ENDBRANCH  15  16
ENDBRANCH   1  15
TORSDOF 8
ENDMDL
MODEL 2
REMARK VINA RESULT:      -7.2      6.192      9.773
REMARK  Name = 
REMARK  12 active torsions:
REMARK  status: ('A' for Active; 'I' for Inactive)
REMARK    1  A    between atoms: C_1  and  O_2
REMARK    2  A    between atoms: O_2  and  C_3
REMARK    3  A    between atoms: C_6  and  C_7
REMARK    4  A    between atoms: C_7  and  C_8
REMARK    5  A    between atoms: C_8  and  O_10
REMARK    6  A    between atoms: O_10  and  C_11
REMARK    7  A    between atoms: C_11  and  C_12
REMARK    8  A    between atoms: N_14  and  C_15
REMARK    9  A    between atoms: C_19  and  C_20
REMARK   10  A    between atoms: C_21  and  C_22
REMARK   11  A    between atoms: C_24  and  O_25
REMARK   12  A    between atoms: O_25  and  C_26
REMARK                            x       y       z     vdW  Elec       q    Type
REMARK                         _______ _______ _______ _____ _____    ______ ____
ROOT
ATOM      1  O   UNL     1       7.419   7.904  17.171  0.00  0.00    +0.000 OA
ENDROOT
BRANCH   1   2
ATOM      2  C   UNL     1       7.265   6.558  17.000  0.00  0.00    +0.000 C 
ATOM      3  O   UNL     1       7.593   5.945  15.990  0.00  0.00    +0.000 OA
BRANCH   2   4
ATOM      4  C   UNL     1       6.744   5.926  18.270  0.00  0.00    +0.000 C 
BRANCH   4   8
ATOM      5  C   UNL     1       2.729   4.295  18.383  0.00  0.00    +0.000 A 
ATOM      6  C   UNL     1       3.688   3.768  17.503  0.00  0.00    +0.000 A 
ATOM      7  C   UNL     1       4.982   4.299  17.437  0.00  0.00    +0.000 A 
ATOM      8  C   UNL     1       5.335   5.396  18.221  0.00  0.00    +0.000 A 
ATOM      9  C   UNL     1       4.357   5.954  19.054  0.00  0.00    +0.000 A 
ATOM     10  C   UNL     1       3.056   5.428  19.140  0.00  0.00    +0.000 A 
BRANCH   5  12
ATOM     11  C   UNL     1       1.428   2.315  18.547  0.00  0.00    +0.000 C 
ATOM     12  O   UNL     1       1.486   3.739  18.505  0.00  0.00    +0.000 OA
ENDBRANCH   5  12
BRANCH  10  13
ATOM     13  O   UNL     1       2.283   6.130  20.025  0.00  0.00    +0.000 OA
ATOM     14  C   UNL     1       2.097   7.522  19.830  0.00  0.00    +0.000 C 
ENDBRANCH  10  13
ENDBRANCH   4   8
ENDBRANCH   2   4
ENDBRANCH   1   2
BRANCH   1  15
ATOM     15  C   UNL     1       8.381   8.266  18.168  0.00  0.00    +0.000 C 
BRANCH  15  16
ATOM     16  C   UNL     1       8.415   9.792  18.299  0.00  0.00    +0.000 C 
ATOM     17  O   UNL     1       7.635  10.520  17.687  0.00  0.00    +0.000 OA
ATOM     18  N   UNL     1       9.368  10.279  19.171  0.00  0.00    +0.000 N 
ATOM     19  H   UNL     1      10.095   9.656  19.499  0.00  0.00    +0.000 HD
BRANCH  18  20
ATOM     20  C   UNL     1       9.459  11.707  19.512  0.00  0.00    +0.000 C 
ATOM     21  C   UNL     1      10.557  11.963  20.562  0.00  0.00    +0.000 C 
ATOM     22  C   UNL     1      11.941  11.647  20.007  0.00  0.00    +0.000 C 
ATOM     23  C   UNL     1      12.240  12.453  18.747  0.00  0.00    +0.000 C 
ATOM     24  C   UNL     1      11.140  12.323  17.677  0.00  0.00    +0.000 C 
ATOM     25  C   UNL     1      11.474  13.216  16.479  0.00  0.00    +0.000 C 
ATOM     26  C   UNL     1       9.716  12.574  18.247  0.00  0.00    +0.000 C 
ATOM     27  C   UNL     1       9.451  14.060  18.550  0.00  0.00    +0.000 C 
ENDBRANCH  18  20
ENDBRANCH  15  16
ENDBRANCH   1  15
TORSDOF 8
ENDMDL
MODEL 3
REMARK VINA RESULT:      -7.1      7.017     10.815
REMARK  Name = 
REMARK  12 active torsions:
REMARK  status: ('A' for Active; 'I' for Inactive)
REMARK    1  A    between atoms: C_1  and  O_2
REMARK    2  A    between atoms: O_2  and  C_3
REMARK    3  A    between atoms: C_6  and  C_7
REMARK    4  A    between atoms: C_7  and  C_8
REMARK    5  A    between atoms: C_8  and  O_10
REMARK    6  A    between atoms: O_10  and  C_11
REMARK    7  A    between atoms: C_11  and  C_12
REMARK    8  A    between atoms: N_14  and  C_15
REMARK    9  A    between atoms: C_19  and  C_20
REMARK   10  A    between atoms: C_21  and  C_22
REMARK   11  A    between atoms: C_24  and  O_25
REMARK   12  A    between atoms: O_25  and  C_26
REMARK                            x       y       z     vdW  Elec       q    Type
REMARK                         _______ _______ _______ _____ _____    ______ ____
ROOT
ATOM      1  O   UNL     1       8.565   8.374  18.693  0.00  0.00    +0.000 OA
ENDROOT
BRANCH   1   2
ATOM      2  C   UNL     1       7.935   7.429  17.935  0.00  0.00    +0.000 C 
ATOM      3  O   UNL     1       7.658   7.563  16.748  0.00  0.00    +0.000 OA
BRANCH   2   4
ATOM      4  C   UNL     1       7.737   6.163  18.735  0.00  0.00    +0.000 C 
BRANCH   4   8
ATOM      5  C   UNL     1       4.075   4.084  17.703  0.00  0.00    +0.000 A 
ATOM      6  C   UNL     1       4.352   4.422  19.038  0.00  0.00    +0.000 A 
ATOM      7  C   UNL     1       5.540   5.072  19.392  0.00  0.00    +0.000 A 
ATOM      8  C   UNL     1       6.499   5.363  18.422  0.00  0.00    +0.000 A 
ATOM      9  C   UNL     1       6.245   4.971  17.102  0.00  0.00    +0.000 A 
ATOM     10  C   UNL     1       5.052   4.326  16.728  0.00  0.00    +0.000 A 
BRANCH   5  12
ATOM     11  C   UNL     1       1.706   4.234  17.678  0.00  0.00    +0.000 C 
ATOM     12  O   UNL     1       2.888   3.512  17.339  0.00  0.00    +0.000 OA
ENDBRANCH   5  12
BRANCH  10  13
ATOM     13  O   UNL     1       5.023   4.052  15.388  0.00  0.00    +0.000 OA
ATOM     14  C   UNL     1       6.242   3.994  14.666  0.00  0.00    +0.000 C 
ENDBRANCH  10  13
ENDBRANCH   4   8
ENDBRANCH   2   4
ENDBRANCH   1   2
BRANCH   1  15
ATOM     15  C   UNL     1       8.481   9.703  18.168  0.00  0.00    +0.000 C 
BRANCH  15  16
ATOM     16  C   UNL     1       9.322  10.639  19.042  0.00  0.00    +0.000 C 
ATOM     17  O   UNL     1       9.453  10.465  20.252  0.00  0.00    +0.000 OA
ATOM     18  N   UNL     1       9.935  11.673  18.362  0.00  0.00    +0.000 N 
ATOM     19  H   UNL     1       9.646  11.874  17.414  0.00  0.00    +0.000 HD
BRANCH  18  20
ATOM     20  C   UNL     1      10.878  12.591  19.020  0.00  0.00    +0.000 C 
ATOM     21  C   UNL     1      12.183  12.727  18.213  0.00  0.00    +0.000 C 
ATOM     22  C   UNL     1      11.935  13.388  16.862  0.00  0.00    +0.000 C 
ATOM     23  C   UNL     1      11.285  14.759  17.018  0.00  0.00    +0.000 C 
ATOM     24  C   UNL     1      10.017  14.725  17.892  0.00  0.00    +0.000 C 
ATOM     25  C   UNL     1       9.467  16.144  18.063  0.00  0.00    +0.000 C 
ATOM     26  C   UNL     1      10.239  13.991  19.244  0.00  0.00    +0.000 C 
ATOM     27  C   UNL     1      11.080  14.814  20.236  0.00  0.00    +0.000 C 
ENDBRANCH  18  20
ENDBRANCH  15  16
ENDBRANCH   1  15
TORSDOF 8
ENDMDL
MODEL 4
REMARK VINA RESULT:      -7.0      0.805      1.135
REMARK  Name = 
REMARK  12 active torsions:
REMARK  status: ('A' for Active; 'I' for Inactive)
REMARK    1  A    between atoms: C_1  and  O_2
REMARK    2  A    between atoms: O_2  and  C_3
REMARK    3  A    between atoms: C_6  and  C_7
REMARK    4  A    between atoms: C_7  and  C_8
REMARK    5  A    between atoms: C_8  and  O_10
REMARK    6  A    between atoms: O_10  and  C_11
REMARK    7  A    between atoms: C_11  and  C_12
REMARK    8  A    between atoms: N_14  and  C_15
REMARK    9  A    between atoms: C_19  and  C_20
REMARK   10  A    between atoms: C_21  and  C_22
REMARK   11  A    between atoms: C_24  and  O_25
REMARK   12  A    between atoms: O_25  and  C_26
REMARK                            x       y       z     vdW  Elec       q    Type
REMARK                         _______ _______ _______ _____ _____    ______ ____
ROOT
ATOM      1  O   UNL     1       1.363   8.559  19.297  0.00  0.00    +0.000 OA
ENDROOT
BRANCH   1   2
ATOM      2  C   UNL     1       0.884   9.745  19.774  0.00  0.00    +0.000 C 
ATOM      3  O   UNL     1       0.869  10.062  20.959  0.00  0.00    +0.000 OA
BRANCH   2   4
ATOM      4  C   UNL     1       0.486  10.648  18.629  0.00  0.00    +0.000 C 
BRANCH   4   8
ATOM      5  C   UNL     1      -3.707  11.259  17.714  0.00  0.00    +0.000 A 
ATOM      6  C   UNL     1      -3.126  11.870  18.836  0.00  0.00    +0.000 A 
ATOM      7  C   UNL     1      -1.779  11.664  19.160  0.00  0.00    +0.000 A 
ATOM      8  C   UNL     1      -0.992  10.809  18.389  0.00  0.00    +0.000 A 
ATOM      9  C   UNL     1      -1.592  10.156  17.305  0.00  0.00    +0.000 A 
ATOM     10  C   UNL     1      -2.941  10.359  16.961  0.00  0.00    +0.000 A 
BRANCH   5  12
ATOM     11  C   UNL     1      -6.014  10.942  18.179  0.00  0.00    +0.000 C 
ATOM     12  O   UNL     1      -5.001  11.510  17.351  0.00  0.00    +0.000 OA
ENDBRANCH   5  12
BRANCH  10  13
ATOM     13  O   UNL     1      -3.299   9.626  15.862  0.00  0.00    +0.000 OA
ATOM     14  C   UNL     1      -3.096  10.172  14.570  0.00  0.00    +0.000 C 
ENDBRANCH  10  13
ENDBRANCH   4   8
ENDBRANCH   2   4
ENDBRANCH   1   2
BRANCH   1  15
ATOM     15  C   UNL     1       2.097   8.670  18.073  0.00  0.00    +0.000 C 
BRANCH  15  16
ATOM     16  C   UNL     1       3.009   7.447  17.925  0.00  0.00    +0.000 C 
ATOM     17  O   UNL     1       4.152   7.531  17.480  0.00  0.00    +0.000 OA
ATOM     18  N   UNL     1       2.455   6.256  18.351  0.00  0.00    +0.000 N 
ATOM     19  H   UNL     1       1.460   6.215  18.531  0.00  0.00    +0.000 HD
BRANCH  18  20
ATOM     20  C   UNL     1       3.231   5.006  18.399  0.00  0.00    +0.000 C 
ATOM     21  C   UNL     1       3.835   4.775  19.796  0.00  0.00    +0.000 C 
ATOM     22  C   UNL     1       2.748   4.553  20.842  0.00  0.00    +0.000 C 
ATOM     23  C   UNL     1       1.844   3.380  20.475  0.00  0.00    +0.000 C 
ATOM     24  C   UNL     1       1.269   3.490  19.050  0.00  0.00    +0.000 C 
ATOM     25  C   UNL     1       0.438   2.245  18.729  0.00  0.00    +0.000 C 
ATOM     26  C   UNL     1       2.360   3.787  17.984  0.00  0.00    +0.000 C 
ATOM     27  C   UNL     1       3.250   2.565  17.689  0.00  0.00    +0.000 C 
ENDBRANCH  18  20
ENDBRANCH  15  16
ENDBRANCH   1  15
TORSDOF 8
ENDMDL
MODEL 5
REMARK VINA RESULT:      -6.9      3.325      5.612
REMARK  Name = 
REMARK  12 active torsions:
REMARK  status: ('A' for Active; 'I' for Inactive)
REMARK    1  A    between atoms: C_1  and  O_2
REMARK    2  A    between atoms: O_2  and  C_3
REMARK    3  A    between atoms: C_6  and  C_7
REMARK    4  A    between atoms: C_7  and  C_8
REMARK    5  A    between atoms: C_8  and  O_10
REMARK    6  A    between atoms: O_10  and  C_11
REMARK    7  A    between atoms: C_11  and  C_12
REMARK    8  A    between atoms: N_14  and  C_15
REMARK    9  A    between atoms: C_19  and  C_20
REMARK   10  A    between atoms: C_21  and  C_22
REMARK   11  A    between atoms: C_24  and  O_25
REMARK   12  A    between atoms: O_25  and  C_26
REMARK                            x       y       z     vdW  Elec       q    Type
REMARK                         _______ _______ _______ _____ _____    ______ ____
ROOT
ATOM      1  O   UNL     1       1.536   4.685  18.213  0.00  0.00    +0.000 OA
ENDROOT
BRANCH   1   2
ATOM      2  C   UNL     1       1.754   5.132  19.484  0.00  0.00    +0.000 C 
ATOM      3  O   UNL     1       1.279   4.620  20.492  0.00  0.00    +0.000 OA
BRANCH   2   4
ATOM      4  C   UNL     1       2.751   6.268  19.475  0.00  0.00    +0.000 C 
BRANCH   4   8
ATOM      5  C   UNL     1       0.847  10.162  19.391  0.00  0.00    +0.000 A 
ATOM      6  C   UNL     1       1.369   9.598  18.216  0.00  0.00    +0.000 A 
ATOM      7  C   UNL     1       2.009   8.352  18.230  0.00  0.00    +0.000 A 
ATOM      8  C   UNL     1       2.176   7.660  19.428  0.00  0.00    +0.000 A 
ATOM      9  C   UNL     1       1.705   8.254  20.606  0.00  0.00    +0.000 A 
ATOM     10  C   UNL     1       1.052   9.500  20.608  0.00  0.00    +0.000 A 
BRANCH   5  12
ATOM     11  C   UNL     1       0.799  12.441  18.725  0.00  0.00    +0.000 C 
ATOM     12  O   UNL     1       0.160  11.344  19.375  0.00  0.00    +0.000 OA
ENDBRANCH   5  12
BRANCH  10  13
ATOM     13  O   UNL     1       0.673   9.870  21.870  0.00  0.00    +0.000 OA
ATOM     14  C   UNL     1      -0.353   9.145  22.525  0.00  0.00    +0.000 C 
ENDBRANCH  10  13
ENDBRANCH   4   8
ENDBRANCH   2   4
ENDBRANCH   1   2
BRANCH   1  15
ATOM     15  C   UNL     1       1.802   3.291  18.024  0.00  0.00    +0.000 C 
BRANCH  15  16
ATOM     16  C   UNL     1       3.316   3.063  18.062  0.00  0.00    +0.000 C 
ATOM     17  O   UNL     1       3.831   2.192  18.761  0.00  0.00    +0.000 OA
ATOM     18  N   UNL     1       4.049   3.891  17.235  0.00  0.00    +0.000 N 
ATOM     19  H   UNL     1       3.598   4.701  16.829  0.00  0.00    +0.000 HD
BRANCH  18  20
ATOM     20  C   UNL     1       5.500   3.727  17.051  0.00  0.00    +0.000 C 
ATOM     21  C   UNL     1       5.861   3.571  15.562  0.00  0.00    +0.000 C 
ATOM     22  C   UNL     1       5.550   4.840  14.778  0.00  0.00    +0.000 C 
ATOM     23  C   UNL     1       6.275   6.052  15.356  0.00  0.00    +0.000 C 
ATOM     24  C   UNL     1       6.036   6.227  16.867  0.00  0.00    +0.000 C 
ATOM     25  C   UNL     1       6.853   7.414  17.386  0.00  0.00    +0.000 C 
ATOM     26  C   UNL     1       6.284   4.919  17.669  0.00  0.00    +0.000 C 
ATOM     27  C   UNL     1       7.779   4.574  17.795  0.00  0.00    +0.000 C 
ENDBRANCH  18  20
ENDBRANCH  15  16
ENDBRANCH   1  15
TORSDOF 8
ENDMDL
MODEL 6
REMARK VINA RESULT:      -6.9      5.904      9.665
REMARK  Name = 
REMARK  12 active torsions:
REMARK  status: ('A' for Active; 'I' for Inactive)
REMARK    1  A    between atoms: C_1  and  O_2
REMARK    2  A    between atoms: O_2  and  C_3
REMARK    3  A    between atoms: C_6  and  C_7
REMARK    4  A    between atoms: C_7  and  C_8
REMARK    5  A    between atoms: C_8  and  O_10
REMARK    6  A    between atoms: O_10  and  C_11
REMARK    7  A    between atoms: C_11  and  C_12
REMARK    8  A    between atoms: N_14  and  C_15
REMARK    9  A    between atoms: C_19  and  C_20
REMARK   10  A    between atoms: C_21  and  C_22
REMARK   11  A    between atoms: C_24  and  O_25
REMARK   12  A    between atoms: O_25  and  C_26
REMARK                            x       y       z     vdW  Elec       q    Type
REMARK                         _______ _______ _______ _____ _____    ______ ____
ROOT
ATOM      1  O   UNL     1       7.202   7.264  17.708  0.00  0.00    +0.000 OA
ENDROOT
BRANCH   1   2
ATOM      2  C   UNL     1       6.856   6.484  16.643  0.00  0.00    +0.000 C 
ATOM      3  O   UNL     1       7.623   5.726  16.059  0.00  0.00    +0.000 OA
BRANCH   2   4
ATOM      4  C   UNL     1       5.375   6.604  16.365  0.00  0.00    +0.000 C 
BRANCH   4   8
ATOM      5  C   UNL     1       2.986   3.775  18.620  0.00  0.00    +0.000 A 
ATOM      6  C   UNL     1       3.646   3.376  17.446  0.00  0.00    +0.000 A 
ATOM      7  C   UNL     1       4.402   4.282  16.693  0.00  0.00    +0.000 A 
ATOM      8  C   UNL     1       4.482   5.620  17.076  0.00  0.00    +0.000 A 
ATOM      9  C   UNL     1       3.775   6.026  18.214  0.00  0.00    +0.000 A 
ATOM     10  C   UNL     1       3.019   5.126  18.987  0.00  0.00    +0.000 A 
BRANCH   5  12
ATOM     11  C   UNL     1       0.943   2.644  19.048  0.00  0.00    +0.000 C 
ATOM     12  O   UNL     1       2.304   2.881  19.398  0.00  0.00    +0.000 OA
ENDBRANCH   5  12
BRANCH  10  13
ATOM     13  O   UNL     1       2.429   5.748  20.054  0.00  0.00    +0.000 OA
ATOM     14  C   UNL     1       2.131   7.131  19.973  0.00  0.00    +0.000 C 
ENDBRANCH  10  13
ENDBRANCH   4   8
ENDBRANCH   2   4
ENDBRANCH   1   2
BRANCH   1  15
ATOM     15  C   UNL     1       7.513   8.620  17.370  0.00  0.00    +0.000 C 
BRANCH  15  16
ATOM     16  C   UNL     1       8.529   9.166  18.379  0.00  0.00    +0.000 C 
ATOM     17  O   UNL     1       8.990   8.474  19.285  0.00  0.00    +0.000 OA
ATOM     18  N   UNL     1       8.900  10.481  18.175  0.00  0.00    +0.000 N 
ATOM     19  H   UNL     1       8.357  11.049  17.538  0.00  0.00    +0.000 HD
BRANCH  18  20
ATOM     20  C   UNL     1       9.956  11.127  18.971  0.00  0.00    +0.000 C 
ATOM     21  C   UNL     1      11.079  11.675  18.070  0.00  0.00    +0.000 C 
ATOM     22  C   UNL     1      10.575  12.801  17.175  0.00  0.00    +0.000 C 
ATOM     23  C   UNL     1       9.971  13.941  17.990  0.00  0.00    +0.000 C 
ATOM     24  C   UNL     1       8.898  13.462  18.986  0.00  0.00    +0.000 C 
ATOM     25  C   UNL     1       8.396  14.647  19.816  0.00  0.00    +0.000 C 
ATOM     26  C   UNL     1       9.377  12.267  19.856  0.00  0.00    +0.000 C 
ATOM     27  C   UNL     1      10.397  12.685  20.930  0.00  0.00    +0.000 C 
ENDBRANCH  18  20
ENDBRANCH  15  16
ENDBRANCH   1  15
TORSDOF 8
ENDMDL
MODEL 7
REMARK VINA RESULT:      -6.8      6.043      9.691
REMARK  Name = 
REMARK  12 active torsions:
REMARK  status: ('A' for Active; 'I' for Inactive)
REMARK    1  A    between atoms: C_1  and  O_2
REMARK    2  A    between atoms: O_2  and  C_3
REMARK    3  A    between atoms: C_6  and  C_7
REMARK    4  A    between atoms: C_7  and  C_8
REMARK    5  A    between atoms: C_8  and  O_10
REMARK    6  A    between atoms: O_10  and  C_11
REMARK    7  A    between atoms: C_11  and  C_12
REMARK    8  A    between atoms: N_14  and  C_15
REMARK    9  A    between atoms: C_19  and  C_20
REMARK   10  A    between atoms: C_21  and  C_22
REMARK   11  A    between atoms: C_24  and  O_25
REMARK   12  A    between atoms: O_25  and  C_26
REMARK                            x       y       z     vdW  Elec       q    Type
REMARK                         _______ _______ _______ _____ _____    ______ ____
ROOT
ATOM      1  O   UNL     1       7.807   7.822  16.978  0.00  0.00    +0.000 OA
ENDROOT
BRANCH   1   2
ATOM      2  C   UNL     1       7.117   6.727  17.414  0.00  0.00    +0.000 C 
ATOM      3  O   UNL     1       7.501   5.973  18.301  0.00  0.00    +0.000 OA
BRANCH   2   4
ATOM      4  C   UNL     1       5.772   6.649  16.728  0.00  0.00    +0.000 C 
BRANCH   4   8
ATOM      5  C   UNL     1       3.130   3.731  18.544  0.00  0.00    +0.000 A 
ATOM      6  C   UNL     1       3.937   3.379  17.450  0.00  0.00    +0.000 A 
ATOM      7  C   UNL     1       4.778   4.316  16.836  0.00  0.00    +0.000 A 
ATOM      8  C   UNL     1       4.801   5.637  17.279  0.00  0.00    +0.000 A 
ATOM      9  C   UNL     1       3.951   5.997  18.332  0.00  0.00    +0.000 A 
ATOM     10  C   UNL     1       3.107   5.067  18.965  0.00  0.00    +0.000 A 
BRANCH   5  12
ATOM     11  C   UNL     1       1.034   2.625  18.697  0.00  0.00    +0.000 C 
ATOM     12  O   UNL     1       2.359   2.806  19.192  0.00  0.00    +0.000 OA
ENDBRANCH   5  12
BRANCH  10  13
ATOM     13  O   UNL     1       2.381   5.644  19.971  0.00  0.00    +0.000 OA
ATOM     14  C   UNL     1       2.105   7.034  19.916  0.00  0.00    +0.000 C 
ENDBRANCH  10  13
ENDBRANCH   4   8
ENDBRANCH   2   4
ENDBRANCH   1   2
BRANCH   1  15
ATOM     15  C   UNL     1       7.428   9.048  17.612  0.00  0.00    +0.000 C 
BRANCH  15  16
ATOM     16  C   UNL     1       8.661   9.670  18.275  0.00  0.00    +0.000 C 
ATOM     17  O   UNL     1       9.256   9.120  19.200  0.00  0.00    +0.000 OA
ATOM     18  N   UNL     1       9.062  10.877  17.737  0.00  0.00    +0.000 N 
ATOM     19  H   UNL     1       8.435  11.367  17.112  0.00  0.00    +0.000 HD
BRANCH  18  20
ATOM     20  C   UNL     1      10.297  11.553  18.166  0.00  0.00    +0.000 C 
ATOM     21  C   UNL     1      10.429  12.944  17.519  0.00  0.00    +0.000 C 
ATOM     22  C   UNL     1       9.330  13.886  17.996  0.00  0.00    +0.000 C 
ATOM     23  C   UNL     1       9.331  14.027  19.515  0.00  0.00    +0.000 C 
ATOM     24  C   UNL     1       9.292  12.670  20.243  0.00  0.00    +0.000 C 
ATOM     25  C   UNL     1       9.371  12.891  21.756  0.00  0.00    +0.000 C 
ATOM     26  C   UNL     1      10.363  11.676  19.715  0.00  0.00    +0.000 C 
ATOM     27  C   UNL     1      11.788  12.043  20.166  0.00  0.00    +0.000 C 
ENDBRANCH  18  20
ENDBRANCH  15  16
ENDBRANCH   1  15
TORSDOF 8
ENDMDL
MODEL 8
REMARK VINA RESULT:      -6.8      2.991      9.103
REMARK  Name = 
REMARK  12 active torsions:
REMARK  status: ('A' for Active; 'I' for Inactive)
REMARK    1  A    between atoms: C_1  and  O_2
REMARK    2  A    between atoms: O_2  and  C_3
REMARK    3  A    between atoms: C_6  and  C_7
REMARK    4  A    between atoms: C_7  and  C_8
REMARK    5  A    between atoms: C_8  and  O_10
REMARK    6  A    between atoms: O_10  and  C_11
REMARK    7  A    between atoms: C_11  and  C_12
REMARK    8  A    between atoms: N_14  and  C_15
REMARK    9  A    between atoms: C_19  and  C_20
REMARK   10  A    between atoms: C_21  and  C_22
REMARK   11  A    between atoms: C_24  and  O_25
REMARK   12  A    between atoms: O_25  and  C_26
REMARK                            x       y       z     vdW  Elec       q    Type
REMARK                         _______ _______ _______ _____ _____    ______ ____
ROOT
ATOM      1  O   UNL     1       2.224   5.670  19.298  0.00  0.00    +0.000 OA
ENDROOT
BRANCH   1   2
ATOM      2  C   UNL     1       2.541   4.571  20.045  0.00  0.00    +0.000 C 
ATOM      3  O   UNL     1       2.370   4.482  21.256  0.00  0.00    +0.000 OA
BRANCH   2   4
ATOM      4  C   UNL     1       3.019   3.451  19.150  0.00  0.00    +0.000 C 
BRANCH   4   8
ATOM      5  C   UNL     1       6.231   4.682  16.512  0.00  0.00    +0.000 A 
ATOM      6  C   UNL     1       4.976   4.328  15.990  0.00  0.00    +0.000 A 
ATOM      7  C   UNL     1       3.935   3.905  16.826  0.00  0.00    +0.000 A 
ATOM      8  C   UNL     1       4.139   3.788  18.200  0.00  0.00    +0.000 A 
ATOM      9  C   UNL     1       5.409   4.085  18.708  0.00  0.00    +0.000 A 
ATOM     10  C   UNL     1       6.463   4.520  17.884  0.00  0.00    +0.000 A 
BRANCH   5  12
ATOM     11  C   UNL     1       7.195   4.763  14.343  0.00  0.00    +0.000 C 
ATOM     12  O   UNL     1       7.230   5.162  15.711  0.00  0.00    +0.000 OA
ENDBRANCH   5  12
BRANCH  10  13
ATOM     13  O   UNL     1       7.602   4.760  18.603  0.00  0.00    +0.000 OA
ATOM     14  C   UNL     1       7.878   6.079  19.045  0.00  0.00    +0.000 C 
ENDBRANCH  10  13
ENDBRANCH   4   8
ENDBRANCH   2   4
ENDBRANCH   1   2
BRANCH   1  15
ATOM     15  C   UNL     1       2.095   6.879  20.054  0.00  0.00    +0.000 C 
BRANCH  15  16
ATOM     16  C   UNL     1       2.060   8.069  19.090  0.00  0.00    +0.000 C 
ATOM     17  O   UNL     1       2.636   8.051  18.004  0.00  0.00    +0.000 OA
ATOM     18  N   UNL     1       1.315   9.147  19.526  0.00  0.00    +0.000 N 
ATOM     19  H   UNL     1       1.021   9.180  20.494  0.00  0.00    +0.000 HD
BRANCH  18  20
ATOM     20  C   UNL     1       1.069  10.323  18.675  0.00  0.00    +0.000 C 
ATOM     21  C   UNL     1      -0.314  10.247  18.002  0.00  0.00    +0.000 C 
ATOM     22  C   UNL     1      -1.438  10.317  19.030  0.00  0.00    +0.000 C 
ATOM     23  C   UNL     1      -1.349  11.583  19.876  0.00  0.00    +0.000 C 
ATOM     24  C   UNL     1       0.039  11.781  20.515  0.00  0.00    +0.000 C 
ATOM     25  C   UNL     1       0.071  13.105  21.282  0.00  0.00    +0.000 C 
ATOM     26  C   UNL     1       1.197  11.642  19.488  0.00  0.00    +0.000 C 
ATOM     27  C   UNL     1       1.298  12.851  18.540  0.00  0.00    +0.000 C 
ENDBRANCH  18  20
ENDBRANCH  15  16
ENDBRANCH   1  15
TORSDOF 8
ENDMDL
MODEL 9
REMARK VINA RESULT:      -6.8      3.397      9.077
REMARK  Name = 
REMARK  12 active torsions:
REMARK  status: ('A' for Active; 'I' for Inactive)
REMARK    1  A    between atoms: C_1  and  O_2
REMARK    2  A    between atoms: O_2  and  C_3
REMARK    3  A    between atoms: C_6  and  C_7
REMARK    4  A    between atoms: C_7  and  C_8
REMARK    5  A    between atoms: C_8  and  O_10
REMARK    6  A    between atoms: O_10  and  C_11
REMARK    7  A    between atoms: C_11  and  C_12
REMARK    8  A    between atoms: N_14  and  C_15
REMARK    9  A    between atoms: C_19  and  C_20
REMARK   10  A    between atoms: C_21  and  C_22
REMARK   11  A    between atoms: C_24  and  O_25
REMARK   12  A    between atoms: O_25  and  C_26
REMARK                            x       y       z     vdW  Elec       q    Type
REMARK                         _______ _______ _______ _____ _____    ______ ____
ROOT
ATOM      1  O   UNL     1       2.003   7.662  20.041  0.00  0.00    +0.000 OA
ENDROOT
BRANCH   1   2
ATOM      2  C   UNL     1       2.328   6.387  19.674  0.00  0.00    +0.000 C 
ATOM      3  O   UNL     1       2.436   5.447  20.453  0.00  0.00    +0.000 OA
BRANCH   2   4
ATOM      4  C   UNL     1       2.420   6.284  18.169  0.00  0.00    +0.000 C 
BRANCH   4   8
ATOM      5  C   UNL     1       6.158   5.083  16.331  0.00  0.00    +0.000 A 
ATOM      6  C   UNL     1       5.160   4.134  16.604  0.00  0.00    +0.000 A 
ATOM      7  C   UNL     1       3.957   4.500  17.219  0.00  0.00    +0.000 A 
ATOM      8  C   UNL     1       3.741   5.820  17.612  0.00  0.00    +0.000 A 
ATOM      9  C   UNL     1       4.763   6.752  17.391  0.00  0.00    +0.000 A 
ATOM     10  C   UNL     1       5.974   6.402  16.767  0.00  0.00    +0.000 A 
BRANCH   5  12
ATOM     11  C   UNL     1       7.229   4.703  14.246  0.00  0.00    +0.000 C 
ATOM     12  O   UNL     1       7.306   4.747  15.669  0.00  0.00    +0.000 OA
ENDBRANCH   5  12
BRANCH  10  13
ATOM     13  O   UNL     1       6.812   7.477  16.649  0.00  0.00    +0.000 OA
ATOM     14  C   UNL     1       7.680   7.800  17.723  0.00  0.00    +0.000 C 
ENDBRANCH  10  13
ENDBRANCH   4   8
ENDBRANCH   2   4
ENDBRANCH   1   2
BRANCH   1  15
ATOM     15  C   UNL     1       1.117   7.744  21.163  0.00  0.00    +0.000 C 
BRANCH  15  16
ATOM     16  C   UNL     1       1.132   9.176  21.707  0.00  0.00    +0.000 C 
ATOM     17  O   UNL     1       1.845   9.512  22.651  0.00  0.00    +0.000 OA
ATOM     18  N   UNL     1       0.304  10.059  21.042  0.00  0.00    +0.000 N 
ATOM     19  H   UNL     1      -0.389   9.692  20.402  0.00  0.00    +0.000 HD
BRANCH  18  20
ATOM     20  C   UNL     1       0.287  11.498  21.349  0.00  0.00    +0.000 C 
ATOM     21  C   UNL     1       1.073  12.304  20.297  0.00  0.00    +0.000 C 
ATOM     22  C   UNL     1       0.407  12.230  18.928  0.00  0.00    +0.000 C 
ATOM     23  C   UNL     1      -1.036  12.722  18.977  0.00  0.00    +0.000 C 
ATOM     24  C   UNL     1      -1.870  12.026  20.069  0.00  0.00    +0.000 C 
ATOM     25  C   UNL     1      -3.279  12.625  20.105  0.00  0.00    +0.000 C 
ATOM     26  C   UNL     1      -1.168  12.034  21.455  0.00  0.00    +0.000 C 
ATOM     27  C   UNL     1      -1.184  13.422  22.121  0.00  0.00    +0.000 C 
ENDBRANCH  18  20
ENDBRANCH  15  16
ENDBRANCH   1  15
TORSDOF 8
ENDMDL
