MODEL 1
REMARK VINA RESULT:      -8.0      0.000      0.000
REMARK  Name = 
REMARK  11 active torsions:
REMARK  status: ('A' for Active; 'I' for Inactive)
REMARK    1  A    between atoms: C_2  and  C_3
REMARK    2  A    between atoms: C_3  and  C_4
REMARK    3  A    between atoms: C_7  and  C_8
REMARK    4  A    between atoms: N_16  and  N_17
REMARK    5  A    between atoms: N_17  and  C_18
REMARK    6  A    between atoms: C_18  and  N_20
REMARK    7  A    between atoms: N_20  and  C_21
REMARK    8  A    between atoms: C_21  and  C_22
REMARK    9  A    between atoms: C_22  and  C_23
REMARK   10  A    between atoms: C_23  and  C_24
REMARK   11  A    between atoms: C_24  and  C_25
REMARK                            x       y       z     vdW  Elec       q    Type
REMARK                         _______ _______ _______ _____ _____    ______ ____
ROOT
ATOM      1  O   UNL     1       5.590   3.597  19.318  0.00  0.00    +0.000 OA
ATOM      2  C   UNL     1       4.694   3.667  18.483  0.00  0.00    +0.000 C 
ATOM      3  N   UNL     1       4.913   3.658  17.119  0.00  0.00    +0.000 N 
ATOM      4  H   UNL     1       4.216   4.016  16.471  0.00  0.00    +0.000 HD
ENDROOT
BRANCH   3   5
ATOM      5  N   UNL     1       6.222   3.557  16.628  0.00  0.00    +0.000 N 
ATOM      6  H   UNL     1       6.766   2.790  17.014  0.00  0.00    +0.000 HD
BRANCH   5   7
ATOM      7  C   UNL     1       6.908   4.696  16.216  0.00  0.00    +0.000 C 
ATOM      8  S   UNL     1       6.742   5.387  14.702  0.00  0.00    +0.000 S 
BRANCH   7   9
ATOM      9  N   UNL     1       7.761   5.124  17.212  0.00  0.00    +0.000 N 
ATOM     10  H   UNL     1       8.721   4.816  17.126  0.00  0.00    +0.000 HD
BRANCH   9  11
ATOM     11  C   UNL     1       7.513   6.162  18.199  0.00  0.00    +0.000 C 
BRANCH  11  12
ATOM     12  C   UNL     1       7.649   7.552  17.570  0.00  0.00    +0.000 C 
BRANCH  12  13
ATOM     13  C   UNL     1       8.370   8.477  18.545  0.00  0.00    +0.000 C 
BRANCH  13  14
ATOM     14  C   UNL     1       8.609   9.896  18.017  0.00  0.00    +0.000 C 
BRANCH  14  15
ATOM     15  C   UNL     1       9.908  10.494  18.612  0.00  0.00    +0.000 C 
ATOM     16  C   UNL     1      10.573  11.552  17.715  0.00  0.00    +0.000 C 
ATOM     17  C   UNL     1       9.813  12.875  17.682  0.00  0.00    +0.000 C 
ATOM     18  C   UNL     1       9.582  13.434  19.081  0.00  0.00    +0.000 C 
ATOM     19  C   UNL     1       8.971  12.413  20.036  0.00  0.00    +0.000 C 
ATOM     20  C   UNL     1       9.702  11.073  20.020  0.00  0.00    +0.000 C 
ENDBRANCH  14  15
ENDBRANCH  13  14
ENDBRANCH  12  13
ENDBRANCH  11  12
ENDBRANCH   9  11
ENDBRANCH   7   9
ENDBRANCH   5   7
ENDBRANCH   3   5
BRANCH   2  21
ATOM     21  C   UNL     1       3.220   3.671  18.835  0.00  0.00    +0.000 C 
BRANCH  21  22
ATOM     22  C   UNL     1       2.700   4.977  19.375  0.00  0.00    +0.000 A 
ATOM     23  C   UNL     1       2.847   6.160  18.644  0.00  0.00    +0.000 A 
ATOM     24  C   UNL     1       2.311   7.364  19.117  0.00  0.00    +0.000 A 
ATOM     25  C   UNL     1       1.598   7.431  20.327  0.00  0.00    +0.000 A 
ATOM     26  C   UNL     1       1.463   6.233  21.051  0.00  0.00    +0.000 A 
ATOM     27  C   UNL     1       2.010   5.028  20.588  0.00  0.00    +0.000 A 
BRANCH  25  28
ATOM     28  C   UNL     1       1.018   8.711  20.809  0.00  0.00    +0.000 A 
ATOM     29  C   UNL     1       0.405   8.811  22.072  0.00  0.00    +0.000 A 
ATOM     30  C   UNL     1      -0.172  10.007  22.516  0.00  0.00    +0.000 A 
ATOM     31  C   UNL     1      -0.136  11.139  21.711  0.00  0.00    +0.000 A 
ATOM     32  C   UNL     1       0.480  11.077  20.466  0.00  0.00    +0.000 A 
ATOM     33  C   UNL     1       1.047   9.875  20.020  0.00  0.00    +0.000 A 
ENDBRANCH  25  28
ENDBRANCH  21  22
ENDBRANCH   2  21
TORSDOF 11
ENDMDL
MODEL 2
REMARK VINA RESULT:      -7.5      7.625     11.637
REMARK  Name = 
REMARK  11 active torsions:
REMARK  status: ('A' for Active; 'I' for Inactive)
REMARK    1  A    between atoms: C_2  and  C_3
REMARK    2  A    between atoms: C_3  and  C_4
REMARK    3  A    between atoms: C_7  and  C_8
REMARK    4  A    between atoms: N_16  and  N_17
REMARK    5  A    between atoms: N_17  and  C_18
REMARK    6  A    between atoms: C_18  and  N_20
REMARK    7  A    between atoms: N_20  and  C_21
REMARK    8  A    between atoms: C_21  and  C_22
REMARK    9  A    between atoms: C_22  and  C_23
REMARK   10  A    between atoms: C_23  and  C_24
REMARK   11  A    between atoms: C_24  and  C_25
REMARK                            x       y       z     vdW  Elec       q    Type
REMARK                         _______ _______ _______ _____ _____    ______ ____
ROOT
ATOM      1  O   UNL     1      -3.538  12.223  21.638  0.00  0.00    +0.000 OA
ATOM      2  C   UNL     1      -3.118  12.243  22.790  0.00  0.00    +0.000 C 
ATOM      3  N   UNL     1      -3.933  12.329  23.903  0.00  0.00    +0.000 N 
ATOM      4  H   UNL     1      -3.570  12.646  24.799  0.00  0.00    +0.000 HD
ENDROOT
BRANCH   3   5
ATOM      5  N   UNL     1      -5.324  12.392  23.740  0.00  0.00    +0.000 N 
ATOM      6  H   UNL     1      -5.793  11.490  23.720  0.00  0.00    +0.000 HD
BRANCH   5   7
ATOM      7  C   UNL     1      -5.902  13.441  23.031  0.00  0.00    +0.000 C 
ATOM      8  S   UNL     1      -6.108  14.981  23.648  0.00  0.00    +0.000 S 
BRANCH   7   9
ATOM      9  N   UNL     1      -6.312  13.005  21.788  0.00  0.00    +0.000 N 
ATOM     10  H   UNL     1      -5.679  13.203  21.025  0.00  0.00    +0.000 HD
BRANCH   9  11
ATOM     11  C   UNL     1      -7.392  12.077  21.492  0.00  0.00    +0.000 C 
BRANCH  11  12
ATOM     12  C   UNL     1      -6.972  11.086  20.403  0.00  0.00    +0.000 C 
BRANCH  12  13
ATOM     13  C   UNL     1      -6.151  11.818  19.347  0.00  0.00    +0.000 C 
BRANCH  13  14
ATOM     14  C   UNL     1      -5.378  10.900  18.393  0.00  0.00    +0.000 C 
BRANCH  14  15
ATOM     15  C   UNL     1      -4.251  11.678  17.671  0.00  0.00    +0.000 C 
ATOM     16  C   UNL     1      -2.900  11.642  18.406  0.00  0.00    +0.000 C 
ATOM     17  C   UNL     1      -2.208  10.285  18.323  0.00  0.00    +0.000 C 
ATOM     18  C   UNL     1      -2.040   9.818  16.882  0.00  0.00    +0.000 C 
ATOM     19  C   UNL     1      -3.338   9.881  16.081  0.00  0.00    +0.000 C 
ATOM     20  C   UNL     1      -4.055  11.223  16.216  0.00  0.00    +0.000 C 
ENDBRANCH  14  15
ENDBRANCH  13  14
ENDBRANCH  12  13
ENDBRANCH  11  12
ENDBRANCH   9  11
ENDBRANCH   7   9
ENDBRANCH   5   7
ENDBRANCH   3   5
BRANCH   2  21
ATOM     21  C   UNL     1      -1.656  12.074  23.153  0.00  0.00    +0.000 C 
BRANCH  21  22
ATOM     22  C   UNL     1      -0.883  11.146  22.253  0.00  0.00    +0.000 A 
ATOM     23  C   UNL     1      -0.198  11.640  21.139  0.00  0.00    +0.000 A 
ATOM     24  C   UNL     1       0.570  10.788  20.337  0.00  0.00    +0.000 A 
ATOM     25  C   UNL     1       0.696   9.416  20.623  0.00  0.00    +0.000 A 
ATOM     26  C   UNL     1      -0.002   8.937  21.745  0.00  0.00    +0.000 A 
ATOM     27  C   UNL     1      -0.784   9.784  22.544  0.00  0.00    +0.000 A 
BRANCH  25  28
ATOM     28  C   UNL     1       1.529   8.526  19.775  0.00  0.00    +0.000 A 
ATOM     29  C   UNL     1       2.003   7.290  20.252  0.00  0.00    +0.000 A 
ATOM     30  C   UNL     1       2.816   6.462  19.468  0.00  0.00    +0.000 A 
ATOM     31  C   UNL     1       3.164   6.848  18.178  0.00  0.00    +0.000 A 
ATOM     32  C   UNL     1       2.695   8.054  17.672  0.00  0.00    +0.000 A 
ATOM     33  C   UNL     1       1.891   8.885  18.464  0.00  0.00    +0.000 A 
ENDBRANCH  25  28
ENDBRANCH  21  22
ENDBRANCH   2  21
TORSDOF 11
ENDMDL
MODEL 3
REMARK VINA RESULT:      -7.5      3.783      6.260
REMARK  Name = 
REMARK  11 active torsions:
REMARK  status: ('A' for Active; 'I' for Inactive)
REMARK    1  A    between atoms: C_2  and  C_3
REMARK    2  A    between atoms: C_3  and  C_4
REMARK    3  A    between atoms: C_7  and  C_8
REMARK    4  A    between atoms: N_16  and  N_17
REMARK    5  A    between atoms: N_17  and  C_18
REMARK    6  A    between atoms: C_18  and  N_20
REMARK    7  A    between atoms: N_20  and  C_21
REMARK    8  A    between atoms: C_21  and  C_22
REMARK    9  A    between atoms: C_22  and  C_23
REMARK   10  A    between atoms: C_23  and  C_24
REMARK   11  A    between atoms: C_24  and  C_25
REMARK                            x       y       z     vdW  Elec       q    Type
REMARK                         _______ _______ _______ _____ _____    ______ ____
ROOT
ATOM      1  O   UNL     1       4.505   6.425  18.962  0.00  0.00    +0.000 OA
ATOM      2  C   UNL     1       4.140   6.898  17.891  0.00  0.00    +0.000 C 
ATOM      3  N   UNL     1       4.995   7.166  16.839  0.00  0.00    +0.000 N 
ATOM      4  H   UNL     1       4.737   7.820  16.103  0.00  0.00    +0.000 HD
ENDROOT
BRANCH   3   5
ATOM      5  N   UNL     1       6.363   6.889  16.970  0.00  0.00    +0.000 N 
ATOM      6  H   UNL     1       6.981   7.596  16.582  0.00  0.00    +0.000 HD
BRANCH   5   7
ATOM      7  C   UNL     1       6.814   5.572  16.991  0.00  0.00    +0.000 C 
ATOM      8  S   UNL     1       7.722   4.918  18.234  0.00  0.00    +0.000 S 
BRANCH   7   9
ATOM      9  N   UNL     1       6.447   4.925  15.829  0.00  0.00    +0.000 N 
ATOM     10  H   UNL     1       6.952   5.201  14.997  0.00  0.00    +0.000 HD
BRANCH   9  11
ATOM     11  C   UNL     1       5.629   3.729  15.708  0.00  0.00    +0.000 C 
BRANCH  11  12
ATOM     12  C   UNL     1       4.379   3.836  16.585  0.00  0.00    +0.000 C 
BRANCH  12  13
ATOM     13  C   UNL     1       4.311   2.628  17.513  0.00  0.00    +0.000 C 
BRANCH  13  14
ATOM     14  C   UNL     1       4.262   2.973  19.006  0.00  0.00    +0.000 C 
BRANCH  14  15
ATOM     15  C   UNL     1       3.055   2.288  19.692  0.00  0.00    +0.000 C 
ATOM     16  C   UNL     1       2.776   2.799  21.116  0.00  0.00    +0.000 C 
ATOM     17  C   UNL     1       2.174   4.201  21.143  0.00  0.00    +0.000 C 
ATOM     18  C   UNL     1       0.917   4.298  20.288  0.00  0.00    +0.000 C 
ATOM     19  C   UNL     1       1.113   3.756  18.876  0.00  0.00    +0.000 C 
ATOM     20  C   UNL     1       1.769   2.377  18.855  0.00  0.00    +0.000 C 
ENDBRANCH  14  15
ENDBRANCH  13  14
ENDBRANCH  12  13
ENDBRANCH  11  12
ENDBRANCH   9  11
ENDBRANCH   7   9
ENDBRANCH   5   7
ENDBRANCH   3   5
BRANCH   2  21
ATOM     21  C   UNL     1       2.688   7.156  17.539  0.00  0.00    +0.000 C 
BRANCH  21  22
ATOM     22  C   UNL     1       1.971   8.105  18.462  0.00  0.00    +0.000 A 
ATOM     23  C   UNL     1       1.394   9.279  17.969  0.00  0.00    +0.000 A 
ATOM     24  C   UNL     1       0.676  10.133  18.815  0.00  0.00    +0.000 A 
ATOM     25  C   UNL     1       0.493   9.841  20.179  0.00  0.00    +0.000 A 
ATOM     26  C   UNL     1       1.083   8.658  20.658  0.00  0.00    +0.000 A 
ATOM     27  C   UNL     1       1.816   7.807  19.818  0.00  0.00    +0.000 A 
BRANCH  25  28
ATOM     28  C   UNL     1      -0.287  10.745  21.062  0.00  0.00    +0.000 A 
ATOM     29  C   UNL     1      -0.544  10.417  22.407  0.00  0.00    +0.000 A 
ATOM     30  C   UNL     1      -1.307  11.250  23.234  0.00  0.00    +0.000 A 
ATOM     31  C   UNL     1      -1.821  12.442  22.737  0.00  0.00    +0.000 A 
ATOM     32  C   UNL     1      -1.567  12.803  21.419  0.00  0.00    +0.000 A 
ATOM     33  C   UNL     1      -0.813  11.961  20.591  0.00  0.00    +0.000 A 
ENDBRANCH  25  28
ENDBRANCH  21  22
ENDBRANCH   2  21
TORSDOF 11
ENDMDL
MODEL 4
REMARK VINA RESULT:      -7.5      3.817      6.016
REMARK  Name = 
REMARK  11 active torsions:
REMARK  status: ('A' for Active; 'I' for Inactive)
REMARK    1  A    between atoms: C_2  and  C_3
REMARK    2  A    between atoms: C_3  and  C_4
REMARK    3  A    between atoms: C_7  and  C_8
REMARK    4  A    between atoms: N_16  and  N_17
REMARK    5  A    between atoms: N_17  and  C_18
REMARK    6  A    between atoms: C_18  and  N_20
REMARK    7  A    between atoms: N_20  and  C_21
REMARK    8  A    between atoms: C_21  and  C_22
REMARK    9  A    between atoms: C_22  and  C_23
REMARK   10  A    between atoms: C_23  and  C_24
REMARK   11  A    between atoms: C_24  and  C_25
REMARK                            x       y       z     vdW  Elec       q    Type
REMARK                         _______ _______ _______ _____ _____    ______ ____
ROOT
ATOM      1  O   UNL     1       4.994   7.749  18.003  0.00  0.00    +0.000 OA
ATOM      2  C   UNL     1       4.286   7.141  17.207  0.00  0.00    +0.000 C 
ATOM      3  N   UNL     1       4.781   6.377  16.168  0.00  0.00    +0.000 N 
ATOM      4  H   UNL     1       4.203   6.143  15.364  0.00  0.00    +0.000 HD
ENDROOT
BRANCH   3   5
ATOM      5  N   UNL     1       6.167   6.265  15.989  0.00  0.00    +0.000 N 
ATOM      6  H   UNL     1       6.625   7.111  15.660  0.00  0.00    +0.000 HD
BRANCH   5   7
ATOM      7  C   UNL     1       6.735   5.043  15.642  0.00  0.00    +0.000 C 
ATOM      8  S   UNL     1       7.018   4.560  14.065  0.00  0.00    +0.000 S 
BRANCH   7   9
ATOM      9  N   UNL     1       6.975   4.292  16.774  0.00  0.00    +0.000 N 
ATOM     10  H   UNL     1       6.965   3.289  16.642  0.00  0.00    +0.000 HD
BRANCH   9  11
ATOM     11  C   UNL     1       7.497   4.760  18.048  0.00  0.00    +0.000 C 
BRANCH  11  12
ATOM     12  C   UNL     1       6.382   4.841  19.094  0.00  0.00    +0.000 C 
BRANCH  12  13
ATOM     13  C   UNL     1       5.255   3.891  18.702  0.00  0.00    +0.000 C 
BRANCH  13  14
ATOM     14  C   UNL     1       4.503   3.273  19.887  0.00  0.00    +0.000 C 
BRANCH  14  15
ATOM     15  C   UNL     1       3.385   2.320  19.395  0.00  0.00    +0.000 C 
ATOM     16  C   UNL     1       1.995   2.645  19.967  0.00  0.00    +0.000 C 
ATOM     17  C   UNL     1       1.378   3.905  19.366  0.00  0.00    +0.000 C 
ATOM     18  C   UNL     1       1.325   3.843  17.844  0.00  0.00    +0.000 C 
ATOM     19  C   UNL     1       2.665   3.472  17.217  0.00  0.00    +0.000 C 
ATOM     20  C   UNL     1       3.304   2.244  17.862  0.00  0.00    +0.000 C 
ENDBRANCH  14  15
ENDBRANCH  13  14
ENDBRANCH  12  13
ENDBRANCH  11  12
ENDBRANCH   9  11
ENDBRANCH   7   9
ENDBRANCH   5   7
ENDBRANCH   3   5
BRANCH   2  21
ATOM     21  C   UNL     1       2.776   7.062  17.318  0.00  0.00    +0.000 C 
BRANCH  21  22
ATOM     22  C   UNL     1       2.165   8.003  18.322  0.00  0.00    +0.000 A 
ATOM     23  C   UNL     1       1.695   9.259  17.928  0.00  0.00    +0.000 A 
ATOM     24  C   UNL     1       1.072  10.111  18.848  0.00  0.00    +0.000 A 
ATOM     25  C   UNL     1       0.880   9.736  20.190  0.00  0.00    +0.000 A 
ATOM     26  C   UNL     1       1.361   8.470  20.569  0.00  0.00    +0.000 A 
ATOM     27  C   UNL     1       1.999   7.620  19.655  0.00  0.00    +0.000 A 
BRANCH  25  28
ATOM     28  C   UNL     1       0.200  10.640  21.153  0.00  0.00    +0.000 A 
ATOM     29  C   UNL     1      -0.514  10.136  22.256  0.00  0.00    +0.000 A 
ATOM     30  C   UNL     1      -1.184  10.983  23.147  0.00  0.00    +0.000 A 
ATOM     31  C   UNL     1      -1.144  12.360  22.962  0.00  0.00    +0.000 A 
ATOM     32  C   UNL     1      -0.430  12.890  21.893  0.00  0.00    +0.000 A 
ATOM     33  C   UNL     1       0.230  12.037  20.996  0.00  0.00    +0.000 A 
ENDBRANCH  25  28
ENDBRANCH  21  22
ENDBRANCH   2  21
TORSDOF 11
ENDMDL
MODEL 5
REMARK VINA RESULT:      -7.2      4.015      5.551
REMARK  Name = 
REMARK  11 active torsions:
REMARK  status: ('A' for Active; 'I' for Inactive)
REMARK    1  A    between atoms: C_2  and  C_3
REMARK    2  A    between atoms: C_3  and  C_4
REMARK    3  A    between atoms: C_7  and  C_8
REMARK    4  A    between atoms: N_16  and  N_17
REMARK    5  A    between atoms: N_17  and  C_18
REMARK    6  A    between atoms: C_18  and  N_20
REMARK    7  A    between atoms: N_20  and  C_21
REMARK    8  A    between atoms: C_21  and  C_22
REMARK    9  A    between atoms: C_22  and  C_23
REMARK   10  A    between atoms: C_23  and  C_24
REMARK   11  A    between atoms: C_24  and  C_25
REMARK                            x       y       z     vdW  Elec       q    Type
REMARK                         _______ _______ _______ _____ _____    ______ ____
ROOT
ATOM      1  O   UNL     1       2.472   5.218  17.552  0.00  0.00    +0.000 OA
ATOM      2  C   UNL     1       2.292   5.678  18.674  0.00  0.00    +0.000 C 
ATOM      3  N   UNL     1       1.598   5.021  19.671  0.00  0.00    +0.000 N 
ATOM      4  H   UNL     1       1.205   5.527  20.462  0.00  0.00    +0.000 HD
ENDROOT
BRANCH   3   5
ATOM      5  N   UNL     1       1.060   3.751  19.420  0.00  0.00    +0.000 N 
ATOM      6  H   UNL     1       0.077   3.747  19.161  0.00  0.00    +0.000 HD
BRANCH   5   7
ATOM      7  C   UNL     1       1.565   2.632  20.076  0.00  0.00    +0.000 C 
ATOM      8  S   UNL     1       1.582   2.456  21.739  0.00  0.00    +0.000 S 
BRANCH   7   9
ATOM      9  N   UNL     1       2.080   1.737  19.161  0.00  0.00    +0.000 N 
ATOM     10  H   UNL     1       1.406   1.315  18.536  0.00  0.00    +0.000 HD
BRANCH   9  11
ATOM     11  C   UNL     1       3.478   1.536  18.817  0.00  0.00    +0.000 C 
BRANCH  11  12
ATOM     12  C   UNL     1       4.356   2.609  19.466  0.00  0.00    +0.000 C 
BRANCH  12  13
ATOM     13  C   UNL     1       5.098   3.377  18.378  0.00  0.00    +0.000 C 
BRANCH  13  14
ATOM     14  C   UNL     1       5.809   4.645  18.866  0.00  0.00    +0.000 C 
BRANCH  14  15
ATOM     15  C   UNL     1       6.809   5.162  17.802  0.00  0.00    +0.000 C 
ATOM     16  C   UNL     1       6.779   4.371  16.483  0.00  0.00    +0.000 C 
ATOM     17  C   UNL     1       5.533   4.647  15.647  0.00  0.00    +0.000 C 
ATOM     18  C   UNL     1       5.345   6.135  15.379  0.00  0.00    +0.000 C 
ATOM     19  C   UNL     1       5.418   6.982  16.645  0.00  0.00    +0.000 C 
ATOM     20  C   UNL     1       6.638   6.659  17.506  0.00  0.00    +0.000 C 
ENDBRANCH  14  15
ENDBRANCH  13  14
ENDBRANCH  12  13
ENDBRANCH  11  12
ENDBRANCH   9  11
ENDBRANCH   7   9
ENDBRANCH   5   7
ENDBRANCH   3   5
BRANCH   2  21
ATOM     21  C   UNL     1       2.894   6.986  19.150  0.00  0.00    +0.000 C 
BRANCH  21  22
ATOM     22  C   UNL     1       1.898   7.995  19.657  0.00  0.00    +0.000 A 
ATOM     23  C   UNL     1       1.433   7.938  20.974  0.00  0.00    +0.000 A 
ATOM     24  C   UNL     1       0.553   8.911  21.464  0.00  0.00    +0.000 A 
ATOM     25  C   UNL     1       0.117   9.984  20.665  0.00  0.00    +0.000 A 
ATOM     26  C   UNL     1       0.593  10.023  19.343  0.00  0.00    +0.000 A 
ATOM     27  C   UNL     1       1.463   9.043  18.843  0.00  0.00    +0.000 A 
BRANCH  25  28
ATOM     28  C   UNL     1      -0.801  11.020  21.203  0.00  0.00    +0.000 A 
ATOM     29  C   UNL     1      -1.006  11.173  22.587  0.00  0.00    +0.000 A 
ATOM     30  C   UNL     1      -1.895  12.127  23.097  0.00  0.00    +0.000 A 
ATOM     31  C   UNL     1      -2.593  12.961  22.232  0.00  0.00    +0.000 A 
ATOM     32  C   UNL     1      -2.398  12.847  20.860  0.00  0.00    +0.000 A 
ATOM     33  C   UNL     1      -1.515  11.884  20.353  0.00  0.00    +0.000 A 
ENDBRANCH  25  28
ENDBRANCH  21  22
ENDBRANCH   2  21
TORSDOF 11
ENDMDL
MODEL 6
REMARK VINA RESULT:      -7.1      1.650      2.533
REMARK  Name = 
REMARK  11 active torsions:
REMARK  status: ('A' for Active; 'I' for Inactive)
REMARK    1  A    between atoms: C_2  and  C_3
REMARK    2  A    between atoms: C_3  and  C_4
REMARK    3  A    between atoms: C_7  and  C_8
REMARK    4  A    between atoms: N_16  and  N_17
REMARK    5  A    between atoms: N_17  and  C_18
REMARK    6  A    between atoms: C_18  and  N_20
REMARK    7  A    between atoms: N_20  and  C_21
REMARK    8  A    between atoms: C_21  and  C_22
REMARK    9  A    between atoms: C_22  and  C_23
REMARK   10  A    between atoms: C_23  and  C_24
REMARK   11  A    between atoms: C_24  and  C_25
REMARK                            x       y       z     vdW  Elec       q    Type
REMARK                         _______ _______ _______ _____ _____    ______ ____
ROOT
ATOM      1  O   UNL     1       4.613   7.579  17.812  0.00  0.00    +0.000 OA
ATOM      2  C   UNL     1       3.880   6.602  17.923  0.00  0.00    +0.000 C 
ATOM      3  N   UNL     1       4.339   5.322  18.167  0.00  0.00    +0.000 N 
ATOM      4  H   UNL     1       3.768   4.508  17.955  0.00  0.00    +0.000 HD
ENDROOT
BRANCH   3   5
ATOM      5  N   UNL     1       5.715   5.095  18.307  0.00  0.00    +0.000 N 
ATOM      6  H   UNL     1       6.124   5.459  19.163  0.00  0.00    +0.000 HD
BRANCH   5   7
ATOM      7  C   UNL     1       6.532   5.011  17.182  0.00  0.00    +0.000 C 
ATOM      8  S   UNL     1       6.191   4.054  15.853  0.00  0.00    +0.000 S 
BRANCH   7   9
ATOM      9  N   UNL     1       7.662   5.782  17.356  0.00  0.00    +0.000 N 
ATOM     10  H   UNL     1       8.335   5.746  16.603  0.00  0.00    +0.000 HD
BRANCH   9  11
ATOM     11  C   UNL     1       7.871   6.827  18.346  0.00  0.00    +0.000 C 
BRANCH  11  12
ATOM     12  C   UNL     1       7.919   8.204  17.678  0.00  0.00    +0.000 C 
BRANCH  12  13
ATOM     13  C   UNL     1       8.698   9.167  18.568  0.00  0.00    +0.000 C 
BRANCH  13  14
ATOM     14  C   UNL     1       8.686  10.625  18.092  0.00  0.00    +0.000 C 
BRANCH  14  15
ATOM     15  C   UNL     1       9.401  11.545  19.112  0.00  0.00    +0.000 C 
ATOM     16  C   UNL     1      10.921  11.323  19.192  0.00  0.00    +0.000 C 
ATOM     17  C   UNL     1      11.669  11.858  17.975  0.00  0.00    +0.000 C 
ATOM     18  C   UNL     1      11.360  13.327  17.715  0.00  0.00    +0.000 C 
ATOM     19  C   UNL     1       9.863  13.622  17.678  0.00  0.00    +0.000 C 
ATOM     20  C   UNL     1       9.112  13.034  18.870  0.00  0.00    +0.000 C 
ENDBRANCH  14  15
ENDBRANCH  13  14
ENDBRANCH  12  13
ENDBRANCH  11  12
ENDBRANCH   9  11
ENDBRANCH   7   9
ENDBRANCH   5   7
ENDBRANCH   3   5
BRANCH   2  21
ATOM     21  C   UNL     1       2.366   6.683  17.909  0.00  0.00    +0.000 C 
BRANCH  21  22
ATOM     22  C   UNL     1       1.785   7.816  18.713  0.00  0.00    +0.000 A 
ATOM     23  C   UNL     1       1.689   7.726  20.105  0.00  0.00    +0.000 A 
ATOM     24  C   UNL     1       1.205   8.802  20.859  0.00  0.00    +0.000 A 
ATOM     25  C   UNL     1       0.814  10.012  20.256  0.00  0.00    +0.000 A 
ATOM     26  C   UNL     1       0.914  10.082  18.856  0.00  0.00    +0.000 A 
ATOM     27  C   UNL     1       1.384   9.002  18.095  0.00  0.00    +0.000 A 
BRANCH  25  28
ATOM     28  C   UNL     1       0.320  11.152  21.069  0.00  0.00    +0.000 A 
ATOM     29  C   UNL     1      -0.613  10.966  22.106  0.00  0.00    +0.000 A 
ATOM     30  C   UNL     1      -1.107  12.042  22.853  0.00  0.00    +0.000 A 
ATOM     31  C   UNL     1      -0.666  13.333  22.589  0.00  0.00    +0.000 A 
ATOM     32  C   UNL     1       0.271  13.548  21.584  0.00  0.00    +0.000 A 
ATOM     33  C   UNL     1       0.754  12.468  20.831  0.00  0.00    +0.000 A 
ENDBRANCH  25  28
ENDBRANCH  21  22
ENDBRANCH   2  21
TORSDOF 11
ENDMDL
MODEL 7
REMARK VINA RESULT:      -7.1      4.269      7.310
REMARK  Name = 
REMARK  11 active torsions:
REMARK  status: ('A' for Active; 'I' for Inactive)
REMARK    1  A    between atoms: C_2  and  C_3
REMARK    2  A    between atoms: C_3  and  C_4
REMARK    3  A    between atoms: C_7  and  C_8
REMARK    4  A    between atoms: N_16  and  N_17
REMARK    5  A    between atoms: N_17  and  C_18
REMARK    6  A    between atoms: C_18  and  N_20
REMARK    7  A    between atoms: N_20  and  C_21
REMARK    8  A    between atoms: C_21  and  C_22
REMARK    9  A    between atoms: C_22  and  C_23
REMARK   10  A    between atoms: C_23  and  C_24
REMARK   11  A    between atoms: C_24  and  C_25
REMARK                            x       y       z     vdW  Elec       q    Type
REMARK                         _______ _______ _______ _____ _____    ______ ____
ROOT
ATOM      1  O   UNL     1       1.882   8.047  19.482  0.00  0.00    +0.000 OA
ATOM      2  C   UNL     1       2.286   8.549  18.439  0.00  0.00    +0.000 C 
ATOM      3  N   UNL     1       3.098   7.890  17.535  0.00  0.00    +0.000 N 
ATOM      4  H   UNL     1       3.656   8.404  16.857  0.00  0.00    +0.000 HD
ENDROOT
BRANCH   3   5
ATOM      5  N   UNL     1       3.495   6.571  17.793  0.00  0.00    +0.000 N 
ATOM      6  H   UNL     1       2.810   6.009  18.292  0.00  0.00    +0.000 HD
BRANCH   5   7
ATOM      7  C   UNL     1       4.841   6.263  17.969  0.00  0.00    +0.000 C 
ATOM      8  S   UNL     1       6.066   6.851  16.993  0.00  0.00    +0.000 S 
BRANCH   7   9
ATOM      9  N   UNL     1       4.993   5.379  19.016  0.00  0.00    +0.000 N 
ATOM     10  H   UNL     1       4.931   5.784  19.941  0.00  0.00    +0.000 HD
BRANCH   9  11
ATOM     11  C   UNL     1       4.962   3.926  18.955  0.00  0.00    +0.000 C 
BRANCH  11  12
ATOM     12  C   UNL     1       4.522   3.452  17.568  0.00  0.00    +0.000 C 
BRANCH  12  13
ATOM     13  C   UNL     1       3.404   2.426  17.718  0.00  0.00    +0.000 C 
BRANCH  13  14
ATOM     14  C   UNL     1       3.253   1.851  19.131  0.00  0.00    +0.000 C 
BRANCH  14  15
ATOM     15  C   UNL     1       1.802   2.022  19.645  0.00  0.00    +0.000 C 
ATOM     16  C   UNL     1       1.708   2.369  21.140  0.00  0.00    +0.000 C 
ATOM     17  C   UNL     1       2.134   3.800  21.452  0.00  0.00    +0.000 C 
ATOM     18  C   UNL     1       1.364   4.818  20.622  0.00  0.00    +0.000 C 
ATOM     19  C   UNL     1       1.374   4.500  19.130  0.00  0.00    +0.000 C 
ATOM     20  C   UNL     1       1.002   3.050  18.829  0.00  0.00    +0.000 C 
ENDBRANCH  14  15
ENDBRANCH  13  14
ENDBRANCH  12  13
ENDBRANCH  11  12
ENDBRANCH   9  11
ENDBRANCH   7   9
ENDBRANCH   5   7
ENDBRANCH   3   5
BRANCH   2  21
ATOM     21  C   UNL     1       1.868   9.922  17.952  0.00  0.00    +0.000 C 
BRANCH  21  22
ATOM     22  C   UNL     1       0.783  10.579  18.763  0.00  0.00    +0.000 A 
ATOM     23  C   UNL     1      -0.563  10.406  18.427  0.00  0.00    +0.000 A 
ATOM     24  C   UNL     1      -1.574  10.967  19.216  0.00  0.00    +0.000 A 
ATOM     25  C   UNL     1      -1.283  11.706  20.377  0.00  0.00    +0.000 A 
ATOM     26  C   UNL     1       0.075  11.872  20.698  0.00  0.00    +0.000 A 
ATOM     27  C   UNL     1       1.093  11.325  19.903  0.00  0.00    +0.000 A 
BRANCH  25  28
ATOM     28  C   UNL     1      -2.366  12.279  21.216  0.00  0.00    +0.000 A 
ATOM     29  C   UNL     1      -3.468  12.941  20.642  0.00  0.00    +0.000 A 
ATOM     30  C   UNL     1      -4.475  13.512  21.430  0.00  0.00    +0.000 A 
ATOM     31  C   UNL     1      -4.410  13.422  22.815  0.00  0.00    +0.000 A 
ATOM     32  C   UNL     1      -3.344  12.758  23.412  0.00  0.00    +0.000 A 
ATOM     33  C   UNL     1      -2.332  12.197  22.619  0.00  0.00    +0.000 A 
ENDBRANCH  25  28
ENDBRANCH  21  22
ENDBRANCH   2  21
TORSDOF 11
ENDMDL
MODEL 8
REMARK VINA RESULT:      -7.1      3.918      5.716
REMARK  Name = 
REMARK  11 active torsions:
REMARK  status: ('A' for Active; 'I' for Inactive)
REMARK    1  A    between atoms: C_2  and  C_3
REMARK    2  A    between atoms: C_3  and  C_4
REMARK    3  A    between atoms: C_7  and  C_8
REMARK    4  A    between atoms: N_16  and  N_17
REMARK    5  A    between atoms: N_17  and  C_18
REMARK    6  A    between atoms: C_18  and  N_20
REMARK    7  A    between atoms: N_20  and  C_21
REMARK    8  A    between atoms: C_21  and  C_22
REMARK    9  A    between atoms: C_22  and  C_23
REMARK   10  A    between atoms: C_23  and  C_24
REMARK   11  A    between atoms: C_24  and  C_25
REMARK                            x       y       z     vdW  Elec       q    Type
REMARK                         _______ _______ _______ _____ _____    ______ ____
ROOT
ATOM      1  O   UNL     1       4.310   6.026  19.516  0.00  0.00    +0.000 OA
ATOM      2  C   UNL     1       3.118   6.301  19.430  0.00  0.00    +0.000 C 
ATOM      3  N   UNL     1       2.147   5.772  20.259  0.00  0.00    +0.000 N 
ATOM      4  H   UNL     1       1.166   5.768  19.986  0.00  0.00    +0.000 HD
ENDROOT
BRANCH   3   5
ATOM      5  N   UNL     1       2.513   4.873  21.270  0.00  0.00    +0.000 N 
ATOM      6  H   UNL     1       3.195   5.230  21.933  0.00  0.00    +0.000 HD
BRANCH   5   7
ATOM      7  C   UNL     1       2.495   3.502  21.031  0.00  0.00    +0.000 C 
ATOM      8  S   UNL     1       1.300   2.474  21.589  0.00  0.00    +0.000 S 
BRANCH   7   9
ATOM      9  N   UNL     1       3.618   3.129  20.322  0.00  0.00    +0.000 N 
ATOM     10  H   UNL     1       4.486   3.551  20.625  0.00  0.00    +0.000 HD
BRANCH   9  11
ATOM     11  C   UNL     1       3.744   2.020  19.389  0.00  0.00    +0.000 C 
BRANCH  11  12
ATOM     12  C   UNL     1       3.183   2.401  18.016  0.00  0.00    +0.000 C 
BRANCH  12  13
ATOM     13  C   UNL     1       4.312   2.943  17.146  0.00  0.00    +0.000 C 
BRANCH  13  14
ATOM     14  C   UNL     1       4.079   4.360  16.611  0.00  0.00    +0.000 C 
BRANCH  14  15
ATOM     15  C   UNL     1       5.240   4.799  15.685  0.00  0.00    +0.000 C 
ATOM     16  C   UNL     1       5.380   6.324  15.543  0.00  0.00    +0.000 C 
ATOM     17  C   UNL     1       5.940   6.994  16.794  0.00  0.00    +0.000 C 
ATOM     18  C   UNL     1       7.264   6.377  17.227  0.00  0.00    +0.000 C 
ATOM     19  C   UNL     1       7.205   4.856  17.334  0.00  0.00    +0.000 C 
ATOM     20  C   UNL     1       6.590   4.196  16.102  0.00  0.00    +0.000 C 
ENDBRANCH  14  15
ENDBRANCH  13  14
ENDBRANCH  12  13
ENDBRANCH  11  12
ENDBRANCH   9  11
ENDBRANCH   7   9
ENDBRANCH   5   7
ENDBRANCH   3   5
BRANCH   2  21
ATOM     21  C   UNL     1       2.563   7.334  18.469  0.00  0.00    +0.000 C 
BRANCH  21  22
ATOM     22  C   UNL     1       1.683   8.379  19.102  0.00  0.00    +0.000 A 
ATOM     23  C   UNL     1       1.450   8.374  20.481  0.00  0.00    +0.000 A 
ATOM     24  C   UNL     1       0.681   9.381  21.079  0.00  0.00    +0.000 A 
ATOM     25  C   UNL     1       0.130  10.436  20.329  0.00  0.00    +0.000 A 
ATOM     26  C   UNL     1       0.372  10.422  18.944  0.00  0.00    +0.000 A 
ATOM     27  C   UNL     1       1.129   9.408  18.338  0.00  0.00    +0.000 A 
BRANCH  25  28
ATOM     28  C   UNL     1      -0.668  11.507  20.978  0.00  0.00    +0.000 A 
ATOM     29  C   UNL     1      -1.431  12.415  20.221  0.00  0.00    +0.000 A 
ATOM     30  C   UNL     1      -2.159  13.447  20.826  0.00  0.00    +0.000 A 
ATOM     31  C   UNL     1      -2.150  13.587  22.209  0.00  0.00    +0.000 A 
ATOM     32  C   UNL     1      -1.422  12.693  22.986  0.00  0.00    +0.000 A 
ATOM     33  C   UNL     1      -0.685  11.668  22.375  0.00  0.00    +0.000 A 
ENDBRANCH  25  28
ENDBRANCH  21  22
ENDBRANCH   2  21
TORSDOF 11
ENDMDL
MODEL 9
REMARK VINA RESULT:      -7.1      3.886      6.043
REMARK  Name = 
REMARK  11 active torsions:
REMARK  status: ('A' for Active; 'I' for Inactive)
REMARK    1  A    between atoms: C_2  and  C_3
REMARK    2  A    between atoms: C_3  and  C_4
REMARK    3  A    between atoms: C_7  and  C_8
REMARK    4  A    between atoms: N_16  and  N_17
REMARK    5  A    between atoms: N_17  and  C_18
REMARK    6  A    between atoms: C_18  and  N_20
REMARK    7  A    between atoms: N_20  and  C_21
REMARK    8  A    between atoms: C_21  and  C_22
REMARK    9  A    between atoms: C_22  and  C_23
REMARK   10  A    between atoms: C_23  and  C_24
REMARK   11  A    between atoms: C_24  and  C_25
REMARK                            x       y       z     vdW  Elec       q    Type
REMARK                         _______ _______ _______ _____ _____    ______ ____
ROOT
ATOM      1  O   UNL     1       8.636   7.447  18.929  0.00  0.00    +0.000 OA
ATOM      2  C   UNL     1       8.050   8.050  18.036  0.00  0.00    +0.000 C 
ATOM      3  N   UNL     1       8.188   9.406  17.807  0.00  0.00    +0.000 N 
ATOM      4  H   UNL     1       7.486   9.926  17.284  0.00  0.00    +0.000 HD
ENDROOT
BRANCH   3   5
ATOM      5  N   UNL     1       9.042  10.163  18.620  0.00  0.00    +0.000 N 
ATOM      6  H   UNL     1       8.965   9.972  19.616  0.00  0.00    +0.000 HD
BRANCH   5   7
ATOM      7  C   UNL     1       9.431  11.442  18.233  0.00  0.00    +0.000 C 
ATOM      8  S   UNL     1       8.392  12.570  17.566  0.00  0.00    +0.000 S 
BRANCH   7   9
ATOM      9  N   UNL     1      10.786  11.608  18.434  0.00  0.00    +0.000 N 
ATOM     10  H   UNL     1      11.321  10.755  18.528  0.00  0.00    +0.000 HD
BRANCH   9  11
ATOM     11  C   UNL     1      11.559  12.827  18.261  0.00  0.00    +0.000 C 
BRANCH  11  12
ATOM     12  C   UNL     1      11.973  13.404  19.617  0.00  0.00    +0.000 C 
BRANCH  12  13
ATOM     13  C   UNL     1      11.056  14.569  19.970  0.00  0.00    +0.000 C 
BRANCH  13  14
ATOM     14  C   UNL     1      10.357  14.442  21.328  0.00  0.00    +0.000 C 
BRANCH  14  15
ATOM     15  C   UNL     1       9.123  13.511  21.229  0.00  0.00    +0.000 C 
ATOM     16  C   UNL     1       8.962  12.562  22.430  0.00  0.00    +0.000 C 
ATOM     17  C   UNL     1       8.499  13.272  23.698  0.00  0.00    +0.000 C 
ATOM     18  C   UNL     1       7.217  14.064  23.471  0.00  0.00    +0.000 C 
ATOM     19  C   UNL     1       7.294  14.988  22.260  0.00  0.00    +0.000 C 
ATOM     20  C   UNL     1       7.814  14.284  21.008  0.00  0.00    +0.000 C 
ENDBRANCH  14  15
ENDBRANCH  13  14
ENDBRANCH  12  13
ENDBRANCH  11  12
ENDBRANCH   9  11
ENDBRANCH   7   9
ENDBRANCH   5   7
ENDBRANCH   3   5
BRANCH   2  21
ATOM     21  C   UNL     1       7.175   7.372  17.000  0.00  0.00    +0.000 C 
BRANCH  21  22
ATOM     22  C   UNL     1       6.030   6.574  17.563  0.00  0.00    +0.000 A 
ATOM     23  C   UNL     1       4.707   6.949  17.309  0.00  0.00    +0.000 A 
ATOM     24  C   UNL     1       3.641   6.174  17.781  0.00  0.00    +0.000 A 
ATOM     25  C   UNL     1       3.852   4.989  18.509  0.00  0.00    +0.000 A 
ATOM     26  C   UNL     1       5.189   4.629  18.757  0.00  0.00    +0.000 A 
ATOM     27  C   UNL     1       6.260   5.410  18.300  0.00  0.00    +0.000 A 
BRANCH  25  28
ATOM     28  C   UNL     1       2.713   4.166  18.988  0.00  0.00    +0.000 A 
ATOM     29  C   UNL     1       2.089   3.220  18.153  0.00  0.00    +0.000 A 
ATOM     30  C   UNL     1       0.993   2.464  18.589  0.00  0.00    +0.000 A 
ATOM     31  C   UNL     1       0.504   2.629  19.879  0.00  0.00    +0.000 A 
ATOM     32  C   UNL     1       1.111   3.542  20.734  0.00  0.00    +0.000 A 
ATOM     33  C   UNL     1       2.201   4.304  20.290  0.00  0.00    +0.000 A 
ENDBRANCH  25  28
ENDBRANCH  21  22
ENDBRANCH   2  21
TORSDOF 11
ENDMDL
