MODEL 1
REMARK VINA RESULT:      -7.4      0.000      0.000
REMARK  Name = 
REMARK  6 active torsions:
REMARK  status: ('A' for Active; 'I' for Inactive)
REMARK    1  A    between atoms: C_1  and  S_2
REMARK    2  A    between atoms: S_2  and  C_3
REMARK    3  A    between atoms: C_7  and  C_8
REMARK    4  A    between atoms: C_13  and  O_14
REMARK    5  A    between atoms: O_14  and  C_15
REMARK    6  A    between atoms: C_15  and  C_16
REMARK                            x       y       z     vdW  Elec       q    Type
REMARK                         _______ _______ _______ _____ _____    ______ ____
ROOT
ATOM      1  C   UNL     1       2.440   7.288  19.087  0.00  0.00    +0.000 A 
ATOM      2  N   UNL     1       2.406   5.970  19.219  0.00  0.00    +0.000 NA
ATOM      3  C   UNL     1       3.263   5.516  18.251  0.00  0.00    +0.000 A 
ATOM      4  C   UNL     1       3.625   4.218  17.874  0.00  0.00    +0.000 A 
ATOM      5  C   UNL     1       4.565   4.057  16.837  0.00  0.00    +0.000 A 
ATOM      6  C   UNL     1       5.136   5.166  16.198  0.00  0.00    +0.000 A 
ATOM      7  C   UNL     1       4.775   6.470  16.570  0.00  0.00    +0.000 A 
ATOM      8  C   UNL     1       3.825   6.586  17.579  0.00  0.00    +0.000 A 
ATOM      9  O   UNL     1       3.283   7.727  18.090  0.00  0.00    +0.000 OA
ENDROOT
BRANCH   1  14
ATOM     10  C   UNL     1      -0.521  11.070  22.061  0.00  0.00    +0.000 A 
ATOM     11  N   UNL     1      -0.129  11.118  20.819  0.00  0.00    +0.000 NA
ATOM     12  N   UNL     1       0.514   9.954  20.601  0.00  0.00    +0.000 N 
ATOM     13  C   UNL     1       1.143   9.448  19.512  0.00  0.00    +0.000 A 
ATOM     14  C   UNL     1       1.624   8.216  19.938  0.00  0.00    +0.000 A 
ATOM     15  N   UNL     1       1.272   7.957  21.255  0.00  0.00    +0.000 NA
ATOM     16  C   UNL     1       0.622   9.036  21.593  0.00  0.00    +0.000 A 
ATOM     17  S   UNL     1      -0.129   9.623  23.014  0.00  0.00    +0.000 S 
BRANCH  10  19
ATOM     18  C   UNL     1      -0.443  13.768  22.319  0.00  0.00    +0.000 C 
ATOM     19  S   UNL     1      -1.411  12.337  22.842  0.00  0.00    +0.000 S 
ENDBRANCH  10  19
ENDBRANCH   1  14
BRANCH   6  20
ATOM     20  O   UNL     1       6.107   5.103  15.232  0.00  0.00    +0.000 OA
BRANCH  20  21
ATOM     21  C   UNL     1       6.268   3.854  14.556  0.00  0.00    +0.000 C 
BRANCH  21  22
ATOM     22  C   UNL     1       5.870   4.044  13.118  0.00  0.00    +0.000 C 
ATOM     23  C   UNL     1       6.913   4.010  12.027  0.00  0.00    +0.000 C 
ATOM     24  C   UNL     1       5.910   2.897  12.136  0.00  0.00    +0.000 C 
ENDBRANCH  21  22
ENDBRANCH  20  21
ENDBRANCH   6  20
TORSDOF 5
ENDMDL
MODEL 2
REMARK VINA RESULT:      -7.3      1.204      1.296
REMARK  Name = 
REMARK  6 active torsions:
REMARK  status: ('A' for Active; 'I' for Inactive)
REMARK    1  A    between atoms: C_1  and  S_2
REMARK    2  A    between atoms: S_2  and  C_3
REMARK    3  A    between atoms: C_7  and  C_8
REMARK    4  A    between atoms: C_13  and  O_14
REMARK    5  A    between atoms: O_14  and  C_15
REMARK    6  A    between atoms: C_15  and  C_16
REMARK                            x       y       z     vdW  Elec       q    Type
REMARK                         _______ _______ _______ _____ _____    ______ ____
ROOT
ATOM      1  C   UNL     1       3.078   7.024  18.223  0.00  0.00    +0.000 A 
ATOM      2  N   UNL     1       2.984   5.706  18.327  0.00  0.00    +0.000 NA
ATOM      3  C   UNL     1       3.969   5.236  17.499  0.00  0.00    +0.000 A 
ATOM      4  C   UNL     1       4.348   3.930  17.164  0.00  0.00    +0.000 A 
ATOM      5  C   UNL     1       5.434   3.752  16.285  0.00  0.00    +0.000 A 
ATOM      6  C   UNL     1       6.132   4.849  15.762  0.00  0.00    +0.000 A 
ATOM      7  C   UNL     1       5.756   6.159  16.092  0.00  0.00    +0.000 A 
ATOM      8  C   UNL     1       4.662   6.294  16.941  0.00  0.00    +0.000 A 
ATOM      9  O   UNL     1       4.080   7.446  17.378  0.00  0.00    +0.000 OA
ENDROOT
BRANCH   1  14
ATOM     10  C   UNL     1      -0.245  10.854  20.713  0.00  0.00    +0.000 A 
ATOM     11  N   UNL     1       0.221  10.829  19.496  0.00  0.00    +0.000 NA
ATOM     12  N   UNL     1       0.932   9.689  19.408  0.00  0.00    +0.000 N 
ATOM     13  C   UNL     1       1.653   9.137  18.401  0.00  0.00    +0.000 A 
ATOM     14  C   UNL     1       2.166   7.968  18.949  0.00  0.00    +0.000 A 
ATOM     15  N   UNL     1       1.745   7.790  20.260  0.00  0.00    +0.000 NA
ATOM     16  C   UNL     1       1.023   8.855  20.473  0.00  0.00    +0.000 A 
ATOM     17  S   UNL     1       0.156   9.506  21.797  0.00  0.00    +0.000 S 
BRANCH  10  19
ATOM     18  C   UNL     1      -1.475  11.540  23.030  0.00  0.00    +0.000 C 
ATOM     19  S   UNL     1      -1.243  12.127  21.339  0.00  0.00    +0.000 S 
ENDBRANCH  10  19
ENDBRANCH   1  14
BRANCH   6  20
ATOM     20  O   UNL     1       7.241   4.766  14.959  0.00  0.00    +0.000 OA
BRANCH  20  21
ATOM     21  C   UNL     1       7.022   4.784  13.546  0.00  0.00    +0.000 C 
BRANCH  21  22
ATOM     22  C   UNL     1       6.228   3.560  13.180  0.00  0.00    +0.000 C 
ATOM     23  C   UNL     1       5.156   3.635  12.119  0.00  0.00    +0.000 C 
ATOM     24  C   UNL     1       6.422   2.871  11.850  0.00  0.00    +0.000 C 
ENDBRANCH  21  22
ENDBRANCH  20  21
ENDBRANCH   6  20
TORSDOF 5
ENDMDL
MODEL 3
REMARK VINA RESULT:      -7.3      0.937      1.189
REMARK  Name = 
REMARK  6 active torsions:
REMARK  status: ('A' for Active; 'I' for Inactive)
REMARK    1  A    between atoms: C_1  and  S_2
REMARK    2  A    between atoms: S_2  and  C_3
REMARK    3  A    between atoms: C_7  and  C_8
REMARK    4  A    between atoms: C_13  and  O_14
REMARK    5  A    between atoms: O_14  and  C_15
REMARK    6  A    between atoms: C_15  and  C_16
REMARK                            x       y       z     vdW  Elec       q    Type
REMARK                         _______ _______ _______ _____ _____    ______ ____
ROOT
ATOM      1  C   UNL     1       2.561   7.395  18.795  0.00  0.00    +0.000 A 
ATOM      2  N   UNL     1       2.566   6.092  19.033  0.00  0.00    +0.000 NA
ATOM      3  C   UNL     1       3.426   5.586  18.094  0.00  0.00    +0.000 A 
ATOM      4  C   UNL     1       3.822   4.272  17.818  0.00  0.00    +0.000 A 
ATOM      5  C   UNL     1       4.757   4.055  16.785  0.00  0.00    +0.000 A 
ATOM      6  C   UNL     1       5.290   5.126  16.054  0.00  0.00    +0.000 A 
ATOM      7  C   UNL     1       4.895   6.444  16.325  0.00  0.00    +0.000 A 
ATOM      8  C   UNL     1       3.951   6.614  17.333  0.00  0.00    +0.000 A 
ATOM      9  O   UNL     1       3.382   7.776  17.757  0.00  0.00    +0.000 OA
ENDROOT
BRANCH   1  14
ATOM     10  C   UNL     1      -0.669  10.759  21.984  0.00  0.00    +0.000 A 
ATOM     11  N   UNL     1      -0.067   9.648  22.301  0.00  0.00    +0.000 NA
ATOM     12  N   UNL     1       0.590   9.266  21.189  0.00  0.00    +0.000 N 
ATOM     13  C   UNL     1       1.368   8.191  20.910  0.00  0.00    +0.000 A 
ATOM     14  C   UNL     1       1.727   8.365  19.579  0.00  0.00    +0.000 A 
ATOM     15  N   UNL     1       1.202   9.539  19.057  0.00  0.00    +0.000 NA
ATOM     16  C   UNL     1       0.528  10.021  20.064  0.00  0.00    +0.000 A 
ATOM     17  S   UNL     1      -0.467  11.387  20.335  0.00  0.00    +0.000 S 
BRANCH  10  19
ATOM     18  C   UNL     1      -0.934  13.311  22.863  0.00  0.00    +0.000 C 
ATOM     19  S   UNL     1      -1.655  11.671  23.082  0.00  0.00    +0.000 S 
ENDBRANCH  10  19
ENDBRANCH   1  14
BRANCH   6  20
ATOM     20  O   UNL     1       6.253   5.013  15.085  0.00  0.00    +0.000 OA
BRANCH  20  21
ATOM     21  C   UNL     1       6.328   3.766  14.387  0.00  0.00    +0.000 C 
BRANCH  21  22
ATOM     22  C   UNL     1       6.193   4.044  12.916  0.00  0.00    +0.000 C 
ATOM     23  C   UNL     1       6.701   3.048  11.901  0.00  0.00    +0.000 C 
ATOM     24  C   UNL     1       5.223   3.266  12.058  0.00  0.00    +0.000 C 
ENDBRANCH  21  22
ENDBRANCH  20  21
ENDBRANCH   6  20
TORSDOF 5
ENDMDL
MODEL 4
REMARK VINA RESULT:      -7.2      6.734      7.817
REMARK  Name = 
REMARK  6 active torsions:
REMARK  status: ('A' for Active; 'I' for Inactive)
REMARK    1  A    between atoms: C_1  and  S_2
REMARK    2  A    between atoms: S_2  and  C_3
REMARK    3  A    between atoms: C_7  and  C_8
REMARK    4  A    between atoms: C_13  and  O_14
REMARK    5  A    between atoms: O_14  and  C_15
REMARK    6  A    between atoms: C_15  and  C_16
REMARK                            x       y       z     vdW  Elec       q    Type
REMARK                         _______ _______ _______ _____ _____    ______ ____
ROOT
ATOM      1  C   UNL     1       8.214   8.886  18.167  0.00  0.00    +0.000 A 
ATOM      2  N   UNL     1       8.605   7.786  18.793  0.00  0.00    +0.000 NA
ATOM      3  C   UNL     1       7.755   6.817  18.326  0.00  0.00    +0.000 A 
ATOM      4  C   UNL     1       7.648   5.456  18.635  0.00  0.00    +0.000 A 
ATOM      5  C   UNL     1       6.672   4.691  17.966  0.00  0.00    +0.000 A 
ATOM      6  C   UNL     1       5.832   5.269  17.004  0.00  0.00    +0.000 A 
ATOM      7  C   UNL     1       5.933   6.633  16.692  0.00  0.00    +0.000 A 
ATOM      8  C   UNL     1       6.890   7.359  17.394  0.00  0.00    +0.000 A 
ATOM      9  O   UNL     1       7.158   8.692  17.304  0.00  0.00    +0.000 OA
ENDROOT
BRANCH   1  14
ATOM     10  C   UNL     1      10.548  14.009  18.638  0.00  0.00    +0.000 A 
ATOM     11  N   UNL     1       9.642  13.587  17.802  0.00  0.00    +0.000 NA
ATOM     12  N   UNL     1       9.419  12.301  18.135  0.00  0.00    +0.000 N 
ATOM     13  C   UNL     1       8.603  11.351  17.616  0.00  0.00    +0.000 A 
ATOM     14  C   UNL     1       8.855  10.224  18.390  0.00  0.00    +0.000 A 
ATOM     15  N   UNL     1       9.788  10.485  19.383  0.00  0.00    +0.000 NA
ATOM     16  C   UNL     1      10.091  11.735  19.168  0.00  0.00    +0.000 A 
ATOM     17  S   UNL     1      11.167  12.874  19.856  0.00  0.00    +0.000 S 
BRANCH  10  19
ATOM     18  C   UNL     1      10.689  16.155  16.986  0.00  0.00    +0.000 C 
ATOM     19  S   UNL     1      11.186  15.622  18.637  0.00  0.00    +0.000 S 
ENDBRANCH  10  19
ENDBRANCH   1  14
BRANCH   6  20
ATOM     20  O   UNL     1       4.907   4.586  16.256  0.00  0.00    +0.000 OA
BRANCH  20  21
ATOM     21  C   UNL     1       3.975   3.767  16.968  0.00  0.00    +0.000 C 
BRANCH  21  22
ATOM     22  C   UNL     1       2.941   4.664  17.588  0.00  0.00    +0.000 C 
ATOM     23  C   UNL     1       1.573   4.126  17.933  0.00  0.00    +0.000 C 
ATOM     24  C   UNL     1       2.527   4.502  19.031  0.00  0.00    +0.000 C 
ENDBRANCH  21  22
ENDBRANCH  20  21
ENDBRANCH   6  20
TORSDOF 5
ENDMDL
MODEL 5
REMARK VINA RESULT:      -7.2      1.263      1.615
REMARK  Name = 
REMARK  6 active torsions:
REMARK  status: ('A' for Active; 'I' for Inactive)
REMARK    1  A    between atoms: C_1  and  S_2
REMARK    2  A    between atoms: S_2  and  C_3
REMARK    3  A    between atoms: C_7  and  C_8
REMARK    4  A    between atoms: C_13  and  O_14
REMARK    5  A    between atoms: O_14  and  C_15
REMARK    6  A    between atoms: C_15  and  C_16
REMARK                            x       y       z     vdW  Elec       q    Type
REMARK                         _______ _______ _______ _____ _____    ______ ____
ROOT
ATOM      1  C   UNL     1       2.571   7.302  18.416  0.00  0.00    +0.000 A 
ATOM      2  N   UNL     1       2.239   6.043  18.663  0.00  0.00    +0.000 NA
ATOM      3  C   UNL     1       3.130   5.312  17.921  0.00  0.00    +0.000 A 
ATOM      4  C   UNL     1       3.269   3.931  17.744  0.00  0.00    +0.000 A 
ATOM      5  C   UNL     1       4.313   3.461  16.923  0.00  0.00    +0.000 A 
ATOM      6  C   UNL     1       5.203   4.348  16.304  0.00  0.00    +0.000 A 
ATOM      7  C   UNL     1       5.068   5.734  16.476  0.00  0.00    +0.000 A 
ATOM      8  C   UNL     1       4.009   6.159  17.271  0.00  0.00    +0.000 A 
ATOM      9  O   UNL     1       3.642   7.439  17.560  0.00  0.00    +0.000 OA
ENDROOT
BRANCH   1  14
ATOM     10  C   UNL     1      -0.295  11.474  20.924  0.00  0.00    +0.000 A 
ATOM     11  N   UNL     1       0.214  10.393  21.443  0.00  0.00    +0.000 NA
ATOM     12  N   UNL     1       0.815   9.754  20.420  0.00  0.00    +0.000 N 
ATOM     13  C   UNL     1       1.492   8.581  20.346  0.00  0.00    +0.000 A 
ATOM     14  C   UNL     1       1.839   8.471  19.005  0.00  0.00    +0.000 A 
ATOM     15  N   UNL     1       1.408   9.569  18.274  0.00  0.00    +0.000 NA
ATOM     16  C   UNL     1       0.797  10.288  19.174  0.00  0.00    +0.000 A 
ATOM     17  S   UNL     1      -0.071  11.763  19.186  0.00  0.00    +0.000 S 
BRANCH  10  19
ATOM     18  C   UNL     1      -1.874  11.607  23.125  0.00  0.00    +0.000 C 
ATOM     19  S   UNL     1      -1.178  12.658  21.834  0.00  0.00    +0.000 S 
ENDBRANCH  10  19
ENDBRANCH   1  14
BRANCH   6  20
ATOM     20  O   UNL     1       6.287   3.976  15.549  0.00  0.00    +0.000 OA
BRANCH  20  21
ATOM     21  C   UNL     1       6.372   4.515  14.227  0.00  0.00    +0.000 C 
BRANCH  21  22
ATOM     22  C   UNL     1       6.265   3.377  13.250  0.00  0.00    +0.000 C 
ATOM     23  C   UNL     1       5.241   3.418  12.141  0.00  0.00    +0.000 C 
ATOM     24  C   UNL     1       6.702   3.536  11.813  0.00  0.00    +0.000 C 
ENDBRANCH  21  22
ENDBRANCH  20  21
ENDBRANCH   6  20
TORSDOF 5
ENDMDL
MODEL 6
REMARK VINA RESULT:      -7.1      1.602      2.157
REMARK  Name = 
REMARK  6 active torsions:
REMARK  status: ('A' for Active; 'I' for Inactive)
REMARK    1  A    between atoms: C_1  and  S_2
REMARK    2  A    between atoms: S_2  and  C_3
REMARK    3  A    between atoms: C_7  and  C_8
REMARK    4  A    between atoms: C_13  and  O_14
REMARK    5  A    between atoms: O_14  and  C_15
REMARK    6  A    between atoms: C_15  and  C_16
REMARK                            x       y       z     vdW  Elec       q    Type
REMARK                         _______ _______ _______ _____ _____    ______ ____
ROOT
ATOM      1  C   UNL     1       3.386   6.834  17.714  0.00  0.00    +0.000 A 
ATOM      2  N   UNL     1       3.420   5.562  18.086  0.00  0.00    +0.000 NA
ATOM      3  C   UNL     1       4.267   4.974  17.184  0.00  0.00    +0.000 A 
ATOM      4  C   UNL     1       4.680   3.645  17.037  0.00  0.00    +0.000 A 
ATOM      5  C   UNL     1       5.594   3.336  16.011  0.00  0.00    +0.000 A 
ATOM      6  C   UNL     1       6.092   4.331  15.159  0.00  0.00    +0.000 A 
ATOM      7  C   UNL     1       5.680   5.665  15.300  0.00  0.00    +0.000 A 
ATOM      8  C   UNL     1       4.757   5.924  16.308  0.00  0.00    +0.000 A 
ATOM      9  O   UNL     1       4.177   7.116  16.622  0.00  0.00    +0.000 OA
ENDROOT
BRANCH   1  14
ATOM     10  C   UNL     1       0.141  10.454  20.591  0.00  0.00    +0.000 A 
ATOM     11  N   UNL     1       0.692   9.342  20.988  0.00  0.00    +0.000 NA
ATOM     12  N   UNL     1       1.382   8.884  19.925  0.00  0.00    +0.000 N 
ATOM     13  C   UNL     1       2.134   7.773  19.734  0.00  0.00    +0.000 A 
ATOM     14  C   UNL     1       2.553   7.867  18.412  0.00  0.00    +0.000 A 
ATOM     15  N   UNL     1       2.089   9.030  17.811  0.00  0.00    +0.000 NA
ATOM     16  C   UNL     1       1.390   9.583  18.763  0.00  0.00    +0.000 A 
ATOM     17  S   UNL     1       0.431  10.991  18.923  0.00  0.00    +0.000 S 
BRANCH  10  19
ATOM     18  C   UNL     1      -0.938  10.419  23.079  0.00  0.00    +0.000 C 
ATOM     19  S   UNL     1      -0.858  11.450  21.600  0.00  0.00    +0.000 S 
ENDBRANCH  10  19
ENDBRANCH   1  14
BRANCH   6  20
ATOM     20  O   UNL     1       7.035   4.132  14.184  0.00  0.00    +0.000 OA
BRANCH  20  21
ATOM     21  C   UNL     1       6.588   4.193  12.827  0.00  0.00    +0.000 C 
BRANCH  21  22
ATOM     22  C   UNL     1       5.531   3.141  12.635  0.00  0.00    +0.000 C 
ATOM     23  C   UNL     1       4.521   3.268  11.519  0.00  0.00    +0.000 C 
ATOM     24  C   UNL     1       5.572   2.196  11.457  0.00  0.00    +0.000 C 
ENDBRANCH  21  22
ENDBRANCH  20  21
ENDBRANCH   6  20
TORSDOF 5
ENDMDL
MODEL 7
REMARK VINA RESULT:      -7.0      1.511      2.195
REMARK  Name = 
REMARK  6 active torsions:
REMARK  status: ('A' for Active; 'I' for Inactive)
REMARK    1  A    between atoms: C_1  and  S_2
REMARK    2  A    between atoms: S_2  and  C_3
REMARK    3  A    between atoms: C_7  and  C_8
REMARK    4  A    between atoms: C_13  and  O_14
REMARK    5  A    between atoms: O_14  and  C_15
REMARK    6  A    between atoms: C_15  and  C_16
REMARK                            x       y       z     vdW  Elec       q    Type
REMARK                         _______ _______ _______ _____ _____    ______ ____
ROOT
ATOM      1  C   UNL     1       1.676   7.632  20.250  0.00  0.00    +0.000 A 
ATOM      2  N   UNL     1       1.623   6.469  20.884  0.00  0.00    +0.000 NA
ATOM      3  C   UNL     1       2.326   5.616  20.073  0.00  0.00    +0.000 A 
ATOM      4  C   UNL     1       2.596   4.248  20.187  0.00  0.00    +0.000 A 
ATOM      5  C   UNL     1       3.380   3.633  19.191  0.00  0.00    +0.000 A 
ATOM      6  C   UNL     1       3.890   4.369  18.113  0.00  0.00    +0.000 A 
ATOM      7  C   UNL     1       3.620   5.741  17.992  0.00  0.00    +0.000 A 
ATOM      8  C   UNL     1       2.821   6.304  18.981  0.00  0.00    +0.000 A 
ATOM      9  O   UNL     1       2.387   7.593  19.071  0.00  0.00    +0.000 OA
ENDROOT
BRANCH   1  14
ATOM     10  C   UNL     1      -0.923  12.112  22.506  0.00  0.00    +0.000 A 
ATOM     11  N   UNL     1      -0.409  11.070  23.096  0.00  0.00    +0.000 NA
ATOM     12  N   UNL     1       0.110  10.317  22.107  0.00  0.00    +0.000 N 
ATOM     13  C   UNL     1       0.752   9.123  22.108  0.00  0.00    +0.000 A 
ATOM     14  C   UNL     1       1.012   8.874  20.766  0.00  0.00    +0.000 A 
ATOM     15  N   UNL     1       0.563   9.910  19.958  0.00  0.00    +0.000 NA
ATOM     16  C   UNL     1       0.028  10.730  20.818  0.00  0.00    +0.000 A 
ATOM     17  S   UNL     1      -0.800  12.226  20.738  0.00  0.00    +0.000 S 
BRANCH  10  19
ATOM     18  C   UNL     1      -2.835  13.980  22.053  0.00  0.00    +0.000 C 
ATOM     19  S   UNL     1      -1.717  13.404  23.347  0.00  0.00    +0.000 S 
ENDBRANCH  10  19
ENDBRANCH   1  14
BRANCH   6  20
ATOM     20  O   UNL     1       4.717   3.869  17.140  0.00  0.00    +0.000 OA
BRANCH  20  21
ATOM     21  C   UNL     1       5.138   4.776  16.118  0.00  0.00    +0.000 C 
BRANCH  21  22
ATOM     22  C   UNL     1       6.175   4.084  15.276  0.00  0.00    +0.000 C 
ATOM     23  C   UNL     1       5.977   3.942  13.786  0.00  0.00    +0.000 C 
ATOM     24  C   UNL     1       7.045   4.857  14.314  0.00  0.00    +0.000 C 
ENDBRANCH  21  22
ENDBRANCH  20  21
ENDBRANCH   6  20
TORSDOF 5
ENDMDL
MODEL 8
REMARK VINA RESULT:      -7.0      6.575      7.135
REMARK  Name = 
REMARK  6 active torsions:
REMARK  status: ('A' for Active; 'I' for Inactive)
REMARK    1  A    between atoms: C_1  and  S_2
REMARK    2  A    between atoms: S_2  and  C_3
REMARK    3  A    between atoms: C_7  and  C_8
REMARK    4  A    between atoms: C_13  and  O_14
REMARK    5  A    between atoms: O_14  and  C_15
REMARK    6  A    between atoms: C_15  and  C_16
REMARK                            x       y       z     vdW  Elec       q    Type
REMARK                         _______ _______ _______ _____ _____    ______ ____
ROOT
ATOM      1  C   UNL     1       8.307   8.764  18.214  0.00  0.00    +0.000 A 
ATOM      2  N   UNL     1       8.543   7.728  19.005  0.00  0.00    +0.000 NA
ATOM      3  C   UNL     1       7.883   6.690  18.400  0.00  0.00    +0.000 A 
ATOM      4  C   UNL     1       7.736   5.348  18.772  0.00  0.00    +0.000 A 
ATOM      5  C   UNL     1       7.005   4.493  17.924  0.00  0.00    +0.000 A 
ATOM      6  C   UNL     1       6.445   4.964  16.728  0.00  0.00    +0.000 A 
ATOM      7  C   UNL     1       6.588   6.308  16.352  0.00  0.00    +0.000 A 
ATOM      8  C   UNL     1       7.292   7.125  17.229  0.00  0.00    +0.000 A 
ATOM      9  O   UNL     1       7.535   8.461  17.114  0.00  0.00    +0.000 OA
ENDROOT
BRANCH   1  14
ATOM     10  C   UNL     1      10.214  14.035  18.910  0.00  0.00    +0.000 A 
ATOM     11  N   UNL     1       9.463  13.546  17.964  0.00  0.00    +0.000 NA
ATOM     12  N   UNL     1       9.280  12.251  18.287  0.00  0.00    +0.000 N 
ATOM     13  C   UNL     1       8.608  11.244  17.677  0.00  0.00    +0.000 A 
ATOM     14  C   UNL     1       8.822  10.143  18.499  0.00  0.00    +0.000 A 
ATOM     15  N   UNL     1       9.588  10.476  19.608  0.00  0.00    +0.000 NA
ATOM     16  C   UNL     1       9.835  11.741  19.414  0.00  0.00    +0.000 A 
ATOM     17  S   UNL     1      10.728  12.956  20.223  0.00  0.00    +0.000 S 
BRANCH  10  19
ATOM     18  C   UNL     1       9.895  16.232  20.468  0.00  0.00    +0.000 C 
ATOM     19  S   UNL     1      10.739  15.687  18.969  0.00  0.00    +0.000 S 
ENDBRANCH  10  19
ENDBRANCH   1  14
BRANCH   6  20
ATOM     20  O   UNL     1       5.782   4.188  15.812  0.00  0.00    +0.000 OA
BRANCH  20  21
ATOM     21  C   UNL     1       5.689   4.697  14.479  0.00  0.00    +0.000 C 
BRANCH  21  22
ATOM     22  C   UNL     1       6.131   3.614  13.532  0.00  0.00    +0.000 C 
ATOM     23  C   UNL     1       5.374   3.367  12.250  0.00  0.00    +0.000 C 
ATOM     24  C   UNL     1       6.758   3.948  12.200  0.00  0.00    +0.000 C 
ENDBRANCH  21  22
ENDBRANCH  20  21
ENDBRANCH   6  20
TORSDOF 5
ENDMDL
MODEL 9
REMARK VINA RESULT:      -7.0      6.500      7.083
REMARK  Name = 
REMARK  6 active torsions:
REMARK  status: ('A' for Active; 'I' for Inactive)
REMARK    1  A    between atoms: C_1  and  S_2
REMARK    2  A    between atoms: S_2  and  C_3
REMARK    3  A    between atoms: C_7  and  C_8
REMARK    4  A    between atoms: C_13  and  O_14
REMARK    5  A    between atoms: O_14  and  C_15
REMARK    6  A    between atoms: C_15  and  C_16
REMARK                            x       y       z     vdW  Elec       q    Type
REMARK                         _______ _______ _______ _____ _____    ______ ____
ROOT
ATOM      1  C   UNL     1       8.279   8.765  18.159  0.00  0.00    +0.000 A 
ATOM      2  N   UNL     1       8.532   7.747  18.969  0.00  0.00    +0.000 NA
ATOM      3  C   UNL     1       7.900   6.685  18.378  0.00  0.00    +0.000 A 
ATOM      4  C   UNL     1       7.778   5.348  18.772  0.00  0.00    +0.000 A 
ATOM      5  C   UNL     1       7.073   4.462  17.932  0.00  0.00    +0.000 A 
ATOM      6  C   UNL     1       6.512   4.900  16.725  0.00  0.00    +0.000 A 
ATOM      7  C   UNL     1       6.629   6.240  16.326  0.00  0.00    +0.000 A 
ATOM      8  C   UNL     1       7.309   7.088  17.194  0.00  0.00    +0.000 A 
ATOM      9  O   UNL     1       7.524   8.426  17.058  0.00  0.00    +0.000 OA
ENDROOT
BRANCH   1  14
ATOM     10  C   UNL     1      10.159  13.915  19.520  0.00  0.00    +0.000 A 
ATOM     11  N   UNL     1      10.399  12.769  20.093  0.00  0.00    +0.000 NA
ATOM     12  N   UNL     1       9.733  11.856  19.360  0.00  0.00    +0.000 N 
ATOM     13  C   UNL     1       9.596  10.512  19.478  0.00  0.00    +0.000 A 
ATOM     14  C   UNL     1       8.762  10.160  18.423  0.00  0.00    +0.000 A 
ATOM     15  N   UNL     1       8.417  11.263  17.654  0.00  0.00    +0.000 NA
ATOM     16  C   UNL     1       9.019  12.240  18.273  0.00  0.00    +0.000 A 
ATOM     17  S   UNL     1       9.123  13.937  18.078  0.00  0.00    +0.000 S 
BRANCH  10  19
ATOM     18  C   UNL     1       9.297  16.427  20.068  0.00  0.00    +0.000 C 
ATOM     19  S   UNL     1      10.799  15.426  20.080  0.00  0.00    +0.000 S 
ENDBRANCH  10  19
ENDBRANCH   1  14
BRANCH   6  20
ATOM     20  O   UNL     1       5.874   4.094  15.817  0.00  0.00    +0.000 OA
BRANCH  20  21
ATOM     21  C   UNL     1       5.691   4.620  14.500  0.00  0.00    +0.000 C 
BRANCH  21  22
ATOM     22  C   UNL     1       6.074   3.553  13.512  0.00  0.00    +0.000 C 
ATOM     23  C   UNL     1       5.334   3.426  12.202  0.00  0.00    +0.000 C 
ATOM     24  C   UNL     1       6.759   3.900  12.212  0.00  0.00    +0.000 C 
ENDBRANCH  21  22
ENDBRANCH  20  21
ENDBRANCH   6  20
TORSDOF 5
ENDMDL
