MODEL 1
REMARK VINA RESULT:      -8.3      0.000      0.000
REMARK  Name = 
REMARK  17 active torsions:
REMARK  status: ('A' for Active; 'I' for Inactive)
REMARK    1  A    between atoms: NE_4  and  CD_5
REMARK    2  A    between atoms: CD_5  and  CG_6
REMARK    3  A    between atoms: CG_6  and  CB_7
REMARK    4  A    between atoms: CB_7  and  CA_8
REMARK    5  A    between atoms: CA_8  and  N_9
REMARK    6  A    between atoms: CA_8  and  C_10
REMARK    7  A    between atoms: N_12  and  CA_13
REMARK    8  A    between atoms: CA_13  and  CB_14
REMARK    9  A    between atoms: CA_13  and  C_21
REMARK   10  A    between atoms: CB_14  and  CG_15
REMARK   11  A    between atoms: N_23  and  CA_24
REMARK   12  A    between atoms: CA_24  and  CB_25
REMARK   13  A    between atoms: CA_24  and  C_32
REMARK   14  A    between atoms: CB_25  and  CG_26
REMARK   15  A    between atoms: CG_26  and  CD_27
REMARK   16  A    between atoms: CD_27  and  NE_28
REMARK   17  A    between atoms: C_32  and  OXT_34
REMARK                            x       y       z     vdW  Elec       q    Type
REMARK                         _______ _______ _______ _____ _____    ______ ____
ROOT
ATOM      1  CA  PHE A   2       2.821   6.449  18.448  0.00  0.00    +0.000 C 
ENDROOT
BRANCH   1   2
ATOM      2  C   PHE A   2       4.292   6.389  17.961  0.00  0.00    +0.000 C 
ATOM      3  O   PHE A   2       4.825   7.320  17.352  0.00  0.00    +0.000 OA
ATOM      4  N   ARG A   3       4.988   5.255  18.301  0.00  0.00    +0.000 N 
ATOM      5  H   ARG A   3       4.510   4.477  18.746  0.00  0.00    +0.000 HD
BRANCH   4   6
ATOM      6  CA  ARG A   3       6.346   4.980  17.827  0.00  0.00    +0.000 C 
BRANCH   6   7
ATOM      7  C   ARG A   3       7.314   5.808  18.687  0.00  0.00    +0.000 C 
ATOM      8  O   ARG A   3       8.008   6.711  18.230  0.00  0.00    +0.000 OA
BRANCH   7   9
ATOM      9  OXT ARG A   3       7.361   5.459  19.990  0.00  0.00    +0.000 OA
ATOM     10  HXT ARG A   3       8.230   5.564  20.422  0.00  0.00    +0.000 HD
ENDBRANCH   7   9
ENDBRANCH   6   7
BRANCH   6  11
ATOM     11  CB  ARG A   3       6.480   5.309  16.336  0.00  0.00    +0.000 C 
BRANCH  11  12
ATOM     12  CG  ARG A   3       6.231   4.085  15.452  0.00  0.00    +0.000 C 
BRANCH  12  13
ATOM     13  CD  ARG A   3       6.209   4.437  13.967  0.00  0.00    +0.000 C 
BRANCH  13  14
ATOM     14  NE  ARG A   3       6.357   3.215  13.205  0.00  0.00    +0.000 N 
ATOM     15  CZ  ARG A   3       5.583   2.870  12.160  0.00  0.00    +0.000 C 
ATOM     16  NH1 ARG A   3       4.544   3.462  11.708  0.00  0.00    +0.000 NA
ATOM     17  NH2 ARG A   3       6.020   1.736  11.582  0.00  0.00    +0.000 N 
ATOM     18  HE  ARG A   3       7.320   2.922  13.067  0.00  0.00    +0.000 HD
ATOM     19  HH1 ARG A   3       4.355   4.298  12.260  0.00  0.00    +0.000 HD
ATOM     20 HH21 ARG A   3       6.214   1.009  12.259  0.00  0.00    +0.000 HD
ATOM     21 HH22 ARG A   3       5.327   1.416  10.912  0.00  0.00    +0.000 HD
ENDBRANCH  13  14
ENDBRANCH  12  13
ENDBRANCH  11  12
ENDBRANCH   6  11
ENDBRANCH   4   6
ENDBRANCH   1   2
BRANCH   1  24
ATOM     22  C   ARG A   1       1.724   8.600  19.098  0.00  0.00    +0.000 C 
ATOM     23  O   ARG A   1       1.479   8.226  20.243  0.00  0.00    +0.000 OA
ATOM     24  N   PHE A   2       2.320   7.796  18.159  0.00  0.00    +0.000 N 
ATOM     25  H   PHE A   2       2.548   8.168  17.240  0.00  0.00    +0.000 HD
BRANCH  22  26
ATOM     26  CA  ARG A   1       1.351  10.013  18.598  0.00  0.00    +0.000 C 
BRANCH  26  27
ATOM     27  N   ARG A   1       2.151  10.321  17.395  0.00  0.00    +0.000 NA
ATOM     28  H1  ARG A   1       2.832  11.042  17.651  0.00  0.00    +0.000 HD
ATOM     29  H2  ARG A   1       1.548  10.756  16.698  0.00  0.00    +0.000 HD
ENDBRANCH  26  27
BRANCH  26  30
ATOM     30  CB  ARG A   1      -0.138  10.059  18.240  0.00  0.00    +0.000 C 
BRANCH  30  31
ATOM     31  CG  ARG A   1      -0.933  10.969  19.182  0.00  0.00    +0.000 C 
BRANCH  31  32
ATOM     32  CD  ARG A   1      -1.520  12.156  18.425  0.00  0.00    +0.000 C 
BRANCH  32  36
ATOM     33  NH1 ARG A   1      -4.080  11.195  17.571  0.00  0.00    +0.000 NA
ATOM     34  CZ  ARG A   1      -3.126  11.394  16.739  0.00  0.00    +0.000 C 
ATOM     35  NH2 ARG A   1      -3.265  11.261  15.406  0.00  0.00    +0.000 N 
ATOM     36  NE  ARG A   1      -1.865  11.754  17.069  0.00  0.00    +0.000 N 
ATOM     37  HH1 ARG A   1      -4.936  10.966  17.067  0.00  0.00    +0.000 HD
ATOM     38 HH21 ARG A   1      -4.102  10.769  15.117  0.00  0.00    +0.000 HD
ATOM     39 HH22 ARG A   1      -2.445  10.865  14.964  0.00  0.00    +0.000 HD
ATOM     40  HE  ARG A   1      -1.416  12.325  16.364  0.00  0.00    +0.000 HD
ENDBRANCH  32  36
ENDBRANCH  31  32
ENDBRANCH  30  31
ENDBRANCH  26  30
ENDBRANCH  22  26
ENDBRANCH   1  24
BRANCH   1  41
ATOM     41  CB  PHE A   2       1.953   5.309  17.863  0.00  0.00    +0.000 C 
BRANCH  41  42
ATOM     42  CG  PHE A   2       1.677   4.208  18.861  0.00  0.00    +0.000 A 
ATOM     43  CD1 PHE A   2       1.454   4.508  20.210  0.00  0.00    +0.000 A 
ATOM     44  CE1 PHE A   2       1.373   3.490  21.155  0.00  0.00    +0.000 A 
ATOM     45  CZ  PHE A   2       1.488   2.162  20.754  0.00  0.00    +0.000 A 
ATOM     46  CE2 PHE A   2       1.648   1.848  19.406  0.00  0.00    +0.000 A 
ATOM     47  CD2 PHE A   2       1.734   2.868  18.461  0.00  0.00    +0.000 A 
ENDBRANCH  41  42
ENDBRANCH   1  41
TORSDOF 17
ENDMDL
MODEL 2
REMARK VINA RESULT:      -8.2      3.673      7.438
REMARK  Name = 
REMARK  17 active torsions:
REMARK  status: ('A' for Active; 'I' for Inactive)
REMARK    1  A    between atoms: NE_4  and  CD_5
REMARK    2  A    between atoms: CD_5  and  CG_6
REMARK    3  A    between atoms: CG_6  and  CB_7
REMARK    4  A    between atoms: CB_7  and  CA_8
REMARK    5  A    between atoms: CA_8  and  N_9
REMARK    6  A    between atoms: CA_8  and  C_10
REMARK    7  A    between atoms: N_12  and  CA_13
REMARK    8  A    between atoms: CA_13  and  CB_14
REMARK    9  A    between atoms: CA_13  and  C_21
REMARK   10  A    between atoms: CB_14  and  CG_15
REMARK   11  A    between atoms: N_23  and  CA_24
REMARK   12  A    between atoms: CA_24  and  CB_25
REMARK   13  A    between atoms: CA_24  and  C_32
REMARK   14  A    between atoms: CB_25  and  CG_26
REMARK   15  A    between atoms: CG_26  and  CD_27
REMARK   16  A    between atoms: CD_27  and  NE_28
REMARK   17  A    between atoms: C_32  and  OXT_34
REMARK                            x       y       z     vdW  Elec       q    Type
REMARK                         _______ _______ _______ _____ _____    ______ ____
ROOT
ATOM      1  CA  PHE A   2       3.070   6.537  17.820  0.00  0.00    +0.000 C 
ENDROOT
BRANCH   1   2
ATOM      2  C   PHE A   2       4.557   6.108  17.921  0.00  0.00    +0.000 C 
ATOM      3  O   PHE A   2       5.003   5.491  18.891  0.00  0.00    +0.000 OA
ATOM      4  N   ARG A   3       5.339   6.408  16.832  0.00  0.00    +0.000 N 
ATOM      5  H   ARG A   3       4.965   6.971  16.074  0.00  0.00    +0.000 HD
BRANCH   4   6
ATOM      6  CA  ARG A   3       6.785   6.181  16.803  0.00  0.00    +0.000 C 
BRANCH   6   7
ATOM      7  C   ARG A   3       7.019   4.663  16.848  0.00  0.00    +0.000 C 
ATOM      8  O   ARG A   3       6.643   3.901  15.962  0.00  0.00    +0.000 OA
BRANCH   7   9
ATOM      9  OXT ARG A   3       7.658   4.216  17.950  0.00  0.00    +0.000 OA
ATOM     10  HXT ARG A   3       8.411   3.617  17.785  0.00  0.00    +0.000 HD
ENDBRANCH   7   9
ENDBRANCH   6   7
BRANCH   6  11
ATOM     11  CB  ARG A   3       7.474   6.901  17.968  0.00  0.00    +0.000 C 
BRANCH  11  12
ATOM     12  CG  ARG A   3       7.767   8.368  17.645  0.00  0.00    +0.000 C 
BRANCH  12  13
ATOM     13  CD  ARG A   3       8.761   8.989  18.623  0.00  0.00    +0.000 C 
BRANCH  13  14
ATOM     14  NE  ARG A   3       8.938  10.382  18.272  0.00  0.00    +0.000 N 
ATOM     15  CZ  ARG A   3       9.330  11.341  19.131  0.00  0.00    +0.000 C 
ATOM     16  NH1 ARG A   3       9.517  11.252  20.392  0.00  0.00    +0.000 NA
ATOM     17  NH2 ARG A   3       9.511  12.516  18.501  0.00  0.00    +0.000 N 
ATOM     18  HE  ARG A   3       9.323  10.534  17.343  0.00  0.00    +0.000 HD
ATOM     19  HH1 ARG A   3       9.336  10.298  20.702  0.00  0.00    +0.000 HD
ATOM     20 HH21 ARG A   3       8.739  12.748  17.889  0.00  0.00    +0.000 HD
ATOM     21 HH22 ARG A   3       9.641  13.247  19.194  0.00  0.00    +0.000 HD
ENDBRANCH  13  14
ENDBRANCH  12  13
ENDBRANCH  11  12
ENDBRANCH   6  11
ENDBRANCH   4   6
ENDBRANCH   1   2
BRANCH   1  24
ATOM     22  C   ARG A   1       1.549   4.740  18.663  0.00  0.00    +0.000 C 
ATOM     23  O   ARG A   1       1.311   4.299  17.540  0.00  0.00    +0.000 OA
ATOM     24  N   PHE A   2       2.341   5.838  18.883  0.00  0.00    +0.000 N 
ATOM     25  H   PHE A   2       2.550   6.133  19.835  0.00  0.00    +0.000 HD
BRANCH  22  26
ATOM     26  CA  ARG A   1       0.947   4.108  19.937  0.00  0.00    +0.000 C 
BRANCH  26  27
ATOM     27  N   ARG A   1       0.504   2.734  19.626  0.00  0.00    +0.000 NA
ATOM     28  H1  ARG A   1      -0.055   2.401  20.416  0.00  0.00    +0.000 HD
ATOM     29  H2  ARG A   1       1.318   2.122  19.595  0.00  0.00    +0.000 HD
ENDBRANCH  26  27
BRANCH  26  30
ATOM     30  CB  ARG A   1       2.007   4.059  21.042  0.00  0.00    +0.000 C 
BRANCH  30  31
ATOM     31  CG  ARG A   1       2.333   2.625  21.469  0.00  0.00    +0.000 C 
BRANCH  31  32
ATOM     32  CD  ARG A   1       3.746   2.237  21.041  0.00  0.00    +0.000 C 
BRANCH  32  36
ATOM     33  NH1 ARG A   1       3.947   0.736  18.611  0.00  0.00    +0.000 NA
ATOM     34  CZ  ARG A   1       4.022   2.015  18.618  0.00  0.00    +0.000 C 
ATOM     35  NH2 ARG A   1       4.107   2.759  17.498  0.00  0.00    +0.000 N 
ATOM     36  NE  ARG A   1       4.031   2.790  19.725  0.00  0.00    +0.000 N 
ATOM     37  HH1 ARG A   1       3.925   0.396  17.649  0.00  0.00    +0.000 HD
ATOM     38 HH21 ARG A   1       4.343   2.237  16.663  0.00  0.00    +0.000 HD
ATOM     39 HH22 ARG A   1       4.716   3.560  17.604  0.00  0.00    +0.000 HD
ATOM     40  HE  ARG A   1       3.607   3.698  19.580  0.00  0.00    +0.000 HD
ENDBRANCH  32  36
ENDBRANCH  31  32
ENDBRANCH  30  31
ENDBRANCH  26  30
ENDBRANCH  22  26
ENDBRANCH   1  24
BRANCH   1  41
ATOM     41  CB  PHE A   2       2.891   8.074  17.833  0.00  0.00    +0.000 C 
BRANCH  41  42
ATOM     42  CG  PHE A   2       1.942   8.547  18.909  0.00  0.00    +0.000 A 
ATOM     43  CD1 PHE A   2       1.984   7.990  20.193  0.00  0.00    +0.000 A 
ATOM     44  CE1 PHE A   2       1.002   8.298  21.129  0.00  0.00    +0.000 A 
ATOM     45  CZ  PHE A   2      -0.016   9.189  20.798  0.00  0.00    +0.000 A 
ATOM     46  CE2 PHE A   2      -0.032   9.799  19.545  0.00  0.00    +0.000 A 
ATOM     47  CD2 PHE A   2       0.948   9.485  18.606  0.00  0.00    +0.000 A 
ENDBRANCH  41  42
ENDBRANCH   1  41
TORSDOF 17
ENDMDL
MODEL 3
REMARK VINA RESULT:      -8.1      4.076      7.534
REMARK  Name = 
REMARK  17 active torsions:
REMARK  status: ('A' for Active; 'I' for Inactive)
REMARK    1  A    between atoms: NE_4  and  CD_5
REMARK    2  A    between atoms: CD_5  and  CG_6
REMARK    3  A    between atoms: CG_6  and  CB_7
REMARK    4  A    between atoms: CB_7  and  CA_8
REMARK    5  A    between atoms: CA_8  and  N_9
REMARK    6  A    between atoms: CA_8  and  C_10
REMARK    7  A    between atoms: N_12  and  CA_13
REMARK    8  A    between atoms: CA_13  and  CB_14
REMARK    9  A    between atoms: CA_13  and  C_21
REMARK   10  A    between atoms: CB_14  and  CG_15
REMARK   11  A    between atoms: N_23  and  CA_24
REMARK   12  A    between atoms: CA_24  and  CB_25
REMARK   13  A    between atoms: CA_24  and  C_32
REMARK   14  A    between atoms: CB_25  and  CG_26
REMARK   15  A    between atoms: CG_26  and  CD_27
REMARK   16  A    between atoms: CD_27  and  NE_28
REMARK   17  A    between atoms: C_32  and  OXT_34
REMARK                            x       y       z     vdW  Elec       q    Type
REMARK                         _______ _______ _______ _____ _____    ______ ____
ROOT
ATOM      1  CA  PHE A   2       3.337   6.182  17.518  0.00  0.00    +0.000 C 
ENDROOT
BRANCH   1   2
ATOM      2  C   PHE A   2       4.637   6.575  16.770  0.00  0.00    +0.000 C 
ATOM      3  O   PHE A   2       4.669   6.760  15.551  0.00  0.00    +0.000 OA
ATOM      4  N   ARG A   3       5.746   6.763  17.559  0.00  0.00    +0.000 N 
ATOM      5  H   ARG A   3       5.710   6.544  18.551  0.00  0.00    +0.000 HD
BRANCH   4   6
ATOM      6  CA  ARG A   3       7.079   7.023  17.013  0.00  0.00    +0.000 C 
BRANCH   6   7
ATOM      7  C   ARG A   3       7.590   5.713  16.392  0.00  0.00    +0.000 C 
ATOM      8  O   ARG A   3       7.728   5.555  15.183  0.00  0.00    +0.000 OA
BRANCH   7   9
ATOM      9  OXT ARG A   3       7.865   4.732  17.277  0.00  0.00    +0.000 OA
ATOM     10  HXT ARG A   3       8.302   5.020  18.102  0.00  0.00    +0.000 HD
ENDBRANCH   7   9
ENDBRANCH   6   7
BRANCH   6  11
ATOM     11  CB  ARG A   3       8.022   7.547  18.102  0.00  0.00    +0.000 C 
BRANCH  11  12
ATOM     12  CG  ARG A   3       8.188   9.067  18.037  0.00  0.00    +0.000 C 
BRANCH  12  13
ATOM     13  CD  ARG A   3       9.119   9.595  19.125  0.00  0.00    +0.000 C 
BRANCH  13  14
ATOM     14  NE  ARG A   3       9.302  11.017  18.921  0.00  0.00    +0.000 N 
ATOM     15  CZ  ARG A   3       9.768  11.867  19.853  0.00  0.00    +0.000 C 
ATOM     16  NH1 ARG A   3      10.036  11.634  21.081  0.00  0.00    +0.000 NA
ATOM     17  NH2 ARG A   3       9.932  13.103  19.348  0.00  0.00    +0.000 N 
ATOM     18  HE  ARG A   3       9.628  11.267  17.991  0.00  0.00    +0.000 HD
ATOM     19  HH1 ARG A   3       9.856  10.654  21.294  0.00  0.00    +0.000 HD
ATOM     20 HH21 ARG A   3       9.127  13.412  18.818  0.00  0.00    +0.000 HD
ATOM     21 HH22 ARG A   3      10.123  13.750  20.108  0.00  0.00    +0.000 HD
ENDBRANCH  13  14
ENDBRANCH  12  13
ENDBRANCH  11  12
ENDBRANCH   6  11
ENDBRANCH   4   6
ENDBRANCH   1   2
BRANCH   1  24
ATOM     22  C   ARG A   1       4.121   3.868  18.047  0.00  0.00    +0.000 C 
ATOM     23  O   ARG A   1       5.148   4.253  18.603  0.00  0.00    +0.000 OA
ATOM     24  N   PHE A   2       3.224   4.722  17.458  0.00  0.00    +0.000 N 
ATOM     25  H   PHE A   2       2.362   4.357  17.055  0.00  0.00    +0.000 HD
BRANCH  22  26
ATOM     26  CA  ARG A   1       3.761   2.370  17.935  0.00  0.00    +0.000 C 
BRANCH  26  27
ATOM     27  N   ARG A   1       4.144   1.691  19.189  0.00  0.00    +0.000 NA
ATOM     28  H1  ARG A   1       4.459   0.747  18.948  0.00  0.00    +0.000 HD
ATOM     29  H2  ARG A   1       3.311   1.558  19.762  0.00  0.00    +0.000 HD
ENDBRANCH  26  27
BRANCH  26  30
ATOM     30  CB  ARG A   1       2.253   2.215  17.716  0.00  0.00    +0.000 C 
BRANCH  30  31
ATOM     31  CG  ARG A   1       1.531   1.733  18.978  0.00  0.00    +0.000 C 
BRANCH  31  32
ATOM     32  CD  ARG A   1       0.525   2.774  19.461  0.00  0.00    +0.000 C 
BRANCH  32  36
ATOM     33  NH1 ARG A   1       1.774   2.702  22.038  0.00  0.00    +0.000 NA
ATOM     34  CZ  ARG A   1       1.862   3.729  21.278  0.00  0.00    +0.000 C 
ATOM     35  NH2 ARG A   1       2.611   4.809  21.575  0.00  0.00    +0.000 N 
ATOM     36  NE  ARG A   1       1.228   3.881  20.093  0.00  0.00    +0.000 N 
ATOM     37  HH1 ARG A   1       2.374   2.823  22.854  0.00  0.00    +0.000 HD
ATOM     38 HH21 ARG A   1       2.914   4.859  22.540  0.00  0.00    +0.000 HD
ATOM     39 HH22 ARG A   1       2.177   5.678  21.290  0.00  0.00    +0.000 HD
ATOM     40  HE  ARG A   1       1.748   4.445  19.433  0.00  0.00    +0.000 HD
ENDBRANCH  32  36
ENDBRANCH  31  32
ENDBRANCH  30  31
ENDBRANCH  26  30
ENDBRANCH  22  26
ENDBRANCH   1  24
BRANCH   1  41
ATOM     41  CB  PHE A   2       3.273   6.766  18.949  0.00  0.00    +0.000 C 
BRANCH  41  42
ATOM     42  CG  PHE A   2       2.203   7.821  19.107  0.00  0.00    +0.000 A 
ATOM     43  CD1 PHE A   2       1.832   8.628  18.025  0.00  0.00    +0.000 A 
ATOM     44  CE1 PHE A   2       0.976   9.710  18.211  0.00  0.00    +0.000 A 
ATOM     45  CZ  PHE A   2       0.463   9.976  19.478  0.00  0.00    +0.000 A 
ATOM     46  CE2 PHE A   2       0.774   9.143  20.549  0.00  0.00    +0.000 A 
ATOM     47  CD2 PHE A   2       1.636   8.063  20.363  0.00  0.00    +0.000 A 
ENDBRANCH  41  42
ENDBRANCH   1  41
TORSDOF 17
ENDMDL
MODEL 4
REMARK VINA RESULT:      -8.0      3.252      5.174
REMARK  Name = 
REMARK  17 active torsions:
REMARK  status: ('A' for Active; 'I' for Inactive)
REMARK    1  A    between atoms: NE_4  and  CD_5
REMARK    2  A    between atoms: CD_5  and  CG_6
REMARK    3  A    between atoms: CG_6  and  CB_7
REMARK    4  A    between atoms: CB_7  and  CA_8
REMARK    5  A    between atoms: CA_8  and  N_9
REMARK    6  A    between atoms: CA_8  and  C_10
REMARK    7  A    between atoms: N_12  and  CA_13
REMARK    8  A    between atoms: CA_13  and  CB_14
REMARK    9  A    between atoms: CA_13  and  C_21
REMARK   10  A    between atoms: CB_14  and  CG_15
REMARK   11  A    between atoms: N_23  and  CA_24
REMARK   12  A    between atoms: CA_24  and  CB_25
REMARK   13  A    between atoms: CA_24  and  C_32
REMARK   14  A    between atoms: CB_25  and  CG_26
REMARK   15  A    between atoms: CG_26  and  CD_27
REMARK   16  A    between atoms: CD_27  and  NE_28
REMARK   17  A    between atoms: C_32  and  OXT_34
REMARK                            x       y       z     vdW  Elec       q    Type
REMARK                         _______ _______ _______ _____ _____    ______ ____
ROOT
ATOM      1  CA  PHE A   2       3.080   6.192  18.259  0.00  0.00    +0.000 C 
ENDROOT
BRANCH   1   2
ATOM      2  C   PHE A   2       4.337   5.962  17.380  0.00  0.00    +0.000 C 
ATOM      3  O   PHE A   2       4.280   5.421  16.273  0.00  0.00    +0.000 OA
ATOM      4  N   ARG A   3       5.516   6.453  17.885  0.00  0.00    +0.000 N 
ATOM      5  H   ARG A   3       5.549   6.838  18.825  0.00  0.00    +0.000 HD
BRANCH   4   6
ATOM      6  CA  ARG A   3       6.814   6.224  17.247  0.00  0.00    +0.000 C 
BRANCH   6   7
ATOM      7  C   ARG A   3       7.590   5.223  18.118  0.00  0.00    +0.000 C 
ATOM      8  O   ARG A   3       7.598   5.269  19.344  0.00  0.00    +0.000 OA
BRANCH   7   9
ATOM      9  OXT ARG A   3       8.283   4.288  17.433  0.00  0.00    +0.000 OA
ATOM     10  HXT ARG A   3       8.452   4.495  16.493  0.00  0.00    +0.000 HD
ENDBRANCH   7   9
ENDBRANCH   6   7
BRANCH   6  11
ATOM     11  CB  ARG A   3       7.577   7.543  17.074  0.00  0.00    +0.000 C 
BRANCH  11  12
ATOM     12  CG  ARG A   3       8.240   7.999  18.376  0.00  0.00    +0.000 C 
BRANCH  12  13
ATOM     13  CD  ARG A   3       8.709   9.449  18.310  0.00  0.00    +0.000 C 
BRANCH  13  14
ATOM     14  NE  ARG A   3       8.903   9.930  19.662  0.00  0.00    +0.000 N 
ATOM     15  CZ  ARG A   3       9.784  10.883  20.013  0.00  0.00    +0.000 C 
ATOM     16  NH1 ARG A   3      10.664  11.462  19.287  0.00  0.00    +0.000 NA
ATOM     17  NH2 ARG A   3       9.669  11.199  21.316  0.00  0.00    +0.000 N 
ATOM     18  HE  ARG A   3       8.049   9.991  20.210  0.00  0.00    +0.000 HD
ATOM     19  HH1 ARG A   3      10.614  11.105  18.334  0.00  0.00    +0.000 HD
ATOM     20 HH21 ARG A   3       9.631  10.380  21.909  0.00  0.00    +0.000 HD
ATOM     21 HH22 ARG A   3      10.448  11.792  21.584  0.00  0.00    +0.000 HD
ENDBRANCH  13  14
ENDBRANCH  12  13
ENDBRANCH  11  12
ENDBRANCH   6  11
ENDBRANCH   4   6
ENDBRANCH   1   2
BRANCH   1  24
ATOM     22  C   ARG A   1       1.965   8.331  18.919  0.00  0.00    +0.000 C 
ATOM     23  O   ARG A   1       1.664   7.925  20.040  0.00  0.00    +0.000 OA
ATOM     24  N   PHE A   2       2.601   7.551  17.987  0.00  0.00    +0.000 N 
ATOM     25  H   PHE A   2       2.875   7.949  17.091  0.00  0.00    +0.000 HD
BRANCH  22  26
ATOM     26  CA  ARG A   1       1.624   9.760  18.445  0.00  0.00    +0.000 C 
BRANCH  26  27
ATOM     27  N   ARG A   1       2.561  10.143  17.370  0.00  0.00    +0.000 NA
ATOM     28  H1  ARG A   1       3.501  10.178  17.774  0.00  0.00    +0.000 HD
ATOM     29  H2  ARG A   1       2.359  11.098  17.077  0.00  0.00    +0.000 HD
ENDBRANCH  26  27
BRANCH  26  30
ATOM     30  CB  ARG A   1       0.191   9.799  17.904  0.00  0.00    +0.000 C 
BRANCH  30  31
ATOM     31  CG  ARG A   1      -0.813  10.278  18.956  0.00  0.00    +0.000 C 
BRANCH  31  32
ATOM     32  CD  ARG A   1      -0.096  10.915  20.143  0.00  0.00    +0.000 C 
BRANCH  32  36
ATOM     33  NH1 ARG A   1       1.370   9.730  22.299  0.00  0.00    +0.000 NA
ATOM     34  CZ  ARG A   1       0.112   9.955  22.387  0.00  0.00    +0.000 C 
ATOM     35  NH2 ARG A   1      -0.602   9.746  23.510  0.00  0.00    +0.000 N 
ATOM     36  NE  ARG A   1      -0.669  10.422  21.386  0.00  0.00    +0.000 N 
ATOM     37  HH1 ARG A   1       1.728   9.415  23.201  0.00  0.00    +0.000 HD
ATOM     38 HH21 ARG A   1      -0.134   9.182  24.208  0.00  0.00    +0.000 HD
ATOM     39 HH22 ARG A   1      -1.531   9.389  23.323  0.00  0.00    +0.000 HD
ATOM     40  HE  ARG A   1      -1.442  10.988  21.715  0.00  0.00    +0.000 HD
ENDBRANCH  32  36
ENDBRANCH  31  32
ENDBRANCH  30  31
ENDBRANCH  26  30
ENDBRANCH  22  26
ENDBRANCH   1  24
BRANCH   1  41
ATOM     41  CB  PHE A   2       2.010   5.091  18.068  0.00  0.00    +0.000 C 
BRANCH  41  42
ATOM     42  CG  PHE A   2       1.791   4.263  19.313  0.00  0.00    +0.000 A 
ATOM     43  CD1 PHE A   2       2.326   4.666  20.542  0.00  0.00    +0.000 A 
ATOM     44  CE1 PHE A   2       2.273   3.822  21.647  0.00  0.00    +0.000 A 
ATOM     45  CZ  PHE A   2       1.659   2.577  21.538  0.00  0.00    +0.000 A 
ATOM     46  CE2 PHE A   2       1.067   2.190  20.338  0.00  0.00    +0.000 A 
ATOM     47  CD2 PHE A   2       1.126   3.034  19.230  0.00  0.00    +0.000 A 
ENDBRANCH  41  42
ENDBRANCH   1  41
TORSDOF 17
ENDMDL
MODEL 5
REMARK VINA RESULT:      -7.9      3.425      4.937
REMARK  Name = 
REMARK  17 active torsions:
REMARK  status: ('A' for Active; 'I' for Inactive)
REMARK    1  A    between atoms: NE_4  and  CD_5
REMARK    2  A    between atoms: CD_5  and  CG_6
REMARK    3  A    between atoms: CG_6  and  CB_7
REMARK    4  A    between atoms: CB_7  and  CA_8
REMARK    5  A    between atoms: CA_8  and  N_9
REMARK    6  A    between atoms: CA_8  and  C_10
REMARK    7  A    between atoms: N_12  and  CA_13
REMARK    8  A    between atoms: CA_13  and  CB_14
REMARK    9  A    between atoms: CA_13  and  C_21
REMARK   10  A    between atoms: CB_14  and  CG_15
REMARK   11  A    between atoms: N_23  and  CA_24
REMARK   12  A    between atoms: CA_24  and  CB_25
REMARK   13  A    between atoms: CA_24  and  C_32
REMARK   14  A    between atoms: CB_25  and  CG_26
REMARK   15  A    between atoms: CG_26  and  CD_27
REMARK   16  A    between atoms: CD_27  and  NE_28
REMARK   17  A    between atoms: C_32  and  OXT_34
REMARK                            x       y       z     vdW  Elec       q    Type
REMARK                         _______ _______ _______ _____ _____    ______ ____
ROOT
ATOM      1  CA  PHE A   2       3.114   6.604  18.356  0.00  0.00    +0.000 C 
ENDROOT
BRANCH   1   2
ATOM      2  C   PHE A   2       4.396   6.764  17.496  0.00  0.00    +0.000 C 
ATOM      3  O   PHE A   2       4.370   7.209  16.347  0.00  0.00    +0.000 OA
ATOM      4  N   ARG A   3       5.575   6.433  18.117  0.00  0.00    +0.000 N 
ATOM      5  H   ARG A   3       5.565   6.010  19.041  0.00  0.00    +0.000 HD
BRANCH   4   6
ATOM      6  CA  ARG A   3       6.864   6.413  17.422  0.00  0.00    +0.000 C 
BRANCH   6   7
ATOM      7  C   ARG A   3       7.289   4.943  17.274  0.00  0.00    +0.000 C 
ATOM      8  O   ARG A   3       7.871   4.512  16.283  0.00  0.00    +0.000 OA
BRANCH   7   9
ATOM      9  OXT ARG A   3       6.960   4.146  18.313  0.00  0.00    +0.000 OA
ATOM     10  HXT ARG A   3       7.334   4.406  19.177  0.00  0.00    +0.000 HD
ENDBRANCH   7   9
ENDBRANCH   6   7
BRANCH   6  11
ATOM     11  CB  ARG A   3       7.908   7.235  18.186  0.00  0.00    +0.000 C 
BRANCH  11  12
ATOM     12  CG  ARG A   3       7.904   8.706  17.761  0.00  0.00    +0.000 C 
BRANCH  12  13
ATOM     13  CD  ARG A   3       8.741   9.580  18.691  0.00  0.00    +0.000 C 
BRANCH  13  14
ATOM     14  NE  ARG A   3       9.500  10.511  17.884  0.00  0.00    +0.000 N 
ATOM     15  CZ  ARG A   3      10.458  11.328  18.360  0.00  0.00    +0.000 C 
ATOM     16  NH1 ARG A   3      10.810  11.521  19.573  0.00  0.00    +0.000 NA
ATOM     17  NH2 ARG A   3      11.063  12.002  17.365  0.00  0.00    +0.000 N 
ATOM     18  HE  ARG A   3       9.730  10.169  16.955  0.00  0.00    +0.000 HD
ATOM     19  HH1 ARG A   3      10.252  10.934  20.192  0.00  0.00    +0.000 HD
ATOM     20 HH21 ARG A   3      10.401  12.412  16.719  0.00  0.00    +0.000 HD
ATOM     21 HH22 ARG A   3      11.656  12.723  17.764  0.00  0.00    +0.000 HD
ENDBRANCH  13  14
ENDBRANCH  12  13
ENDBRANCH  11  12
ENDBRANCH   6  11
ENDBRANCH   4   6
ENDBRANCH   1   2
BRANCH   1  24
ATOM     22  C   ARG A   1       1.769   8.438  19.394  0.00  0.00    +0.000 C 
ATOM     23  O   ARG A   1       1.681   7.871  20.482  0.00  0.00    +0.000 OA
ATOM     24  N   PHE A   2       2.396   7.881  18.309  0.00  0.00    +0.000 N 
ATOM     25  H   PHE A   2       2.487   8.412  17.445  0.00  0.00    +0.000 HD
BRANCH  22  26
ATOM     26  CA  ARG A   1       1.149   9.830  19.142  0.00  0.00    +0.000 C 
BRANCH  26  27
ATOM     27  N   ARG A   1       0.592   9.864  17.775  0.00  0.00    +0.000 NA
ATOM     28  H1  ARG A   1       0.924   9.029  17.283  0.00  0.00    +0.000 HD
ATOM     29  H2  ARG A   1       0.996  10.652  17.271  0.00  0.00    +0.000 HD
ENDBRANCH  26  27
BRANCH  26  30
ATOM     30  CB  ARG A   1       0.025  10.087  20.152  0.00  0.00    +0.000 C 
BRANCH  30  31
ATOM     31  CG  ARG A   1      -0.819  11.309  19.780  0.00  0.00    +0.000 C 
BRANCH  31  32
ATOM     32  CD  ARG A   1      -1.131  12.151  21.014  0.00  0.00    +0.000 C 
BRANCH  32  36
ATOM     33  NH1 ARG A   1      -2.998  11.977  23.180  0.00  0.00    +0.000 NA
ATOM     34  CZ  ARG A   1      -3.304  12.547  22.074  0.00  0.00    +0.000 C 
ATOM     35  NH2 ARG A   1      -4.472  13.184  21.867  0.00  0.00    +0.000 N 
ATOM     36  NE  ARG A   1      -2.518  12.589  20.974  0.00  0.00    +0.000 N 
ATOM     37  HH1 ARG A   1      -3.745  12.118  23.859  0.00  0.00    +0.000 HD
ATOM     38 HH21 ARG A   1      -5.188  12.986  22.555  0.00  0.00    +0.000 HD
ATOM     39 HH22 ARG A   1      -4.830  13.053  20.929  0.00  0.00    +0.000 HD
ATOM     40  HE  ARG A   1      -2.650  13.428  20.422  0.00  0.00    +0.000 HD
ENDBRANCH  32  36
ENDBRANCH  31  32
ENDBRANCH  30  31
ENDBRANCH  26  30
ENDBRANCH  22  26
ENDBRANCH   1  24
BRANCH   1  41
ATOM     41  CB  PHE A   2       2.265   5.381  17.936  0.00  0.00    +0.000 C 
BRANCH  41  42
ATOM     42  CG  PHE A   2       2.041   4.404  19.067  0.00  0.00    +0.000 A 
ATOM     43  CD1 PHE A   2       1.226   3.280  18.889  0.00  0.00    +0.000 A 
ATOM     44  CE1 PHE A   2       0.881   2.479  19.973  0.00  0.00    +0.000 A 
ATOM     45  CZ  PHE A   2       1.372   2.780  21.240  0.00  0.00    +0.000 A 
ATOM     46  CE2 PHE A   2       2.235   3.859  21.419  0.00  0.00    +0.000 A 
ATOM     47  CD2 PHE A   2       2.576   4.664  20.334  0.00  0.00    +0.000 A 
ENDBRANCH  41  42
ENDBRANCH   1  41
TORSDOF 17
ENDMDL
MODEL 6
REMARK VINA RESULT:      -7.8      0.868      1.059
REMARK  Name = 
REMARK  17 active torsions:
REMARK  status: ('A' for Active; 'I' for Inactive)
REMARK    1  A    between atoms: NE_4  and  CD_5
REMARK    2  A    between atoms: CD_5  and  CG_6
REMARK    3  A    between atoms: CG_6  and  CB_7
REMARK    4  A    between atoms: CB_7  and  CA_8
REMARK    5  A    between atoms: CA_8  and  N_9
REMARK    6  A    between atoms: CA_8  and  C_10
REMARK    7  A    between atoms: N_12  and  CA_13
REMARK    8  A    between atoms: CA_13  and  CB_14
REMARK    9  A    between atoms: CA_13  and  C_21
REMARK   10  A    between atoms: CB_14  and  CG_15
REMARK   11  A    between atoms: N_23  and  CA_24
REMARK   12  A    between atoms: CA_24  and  CB_25
REMARK   13  A    between atoms: CA_24  and  C_32
REMARK   14  A    between atoms: CB_25  and  CG_26
REMARK   15  A    between atoms: CG_26  and  CD_27
REMARK   16  A    between atoms: CD_27  and  NE_28
REMARK   17  A    between atoms: C_32  and  OXT_34
REMARK                            x       y       z     vdW  Elec       q    Type
REMARK                         _______ _______ _______ _____ _____    ______ ____
ROOT
ATOM      1  CA  PHE A   2       2.911   6.691  18.450  0.00  0.00    +0.000 C 
ENDROOT
BRANCH   1   2
ATOM      2  C   PHE A   2       4.186   6.671  17.567  0.00  0.00    +0.000 C 
ATOM      3  O   PHE A   2       4.260   7.282  16.499  0.00  0.00    +0.000 OA
ATOM      4  N   ARG A   3       5.255   5.976  18.079  0.00  0.00    +0.000 N 
ATOM      5  H   ARG A   3       5.150   5.430  18.929  0.00  0.00    +0.000 HD
BRANCH   4   6
ATOM      6  CA  ARG A   3       6.494   5.756  17.331  0.00  0.00    +0.000 C 
BRANCH   6   7
ATOM      7  C   ARG A   3       7.520   6.793  17.818  0.00  0.00    +0.000 C 
ATOM      8  O   ARG A   3       7.806   7.801  17.180  0.00  0.00    +0.000 OA
BRANCH   7   9
ATOM      9  OXT ARG A   3       8.103   6.506  19.001  0.00  0.00    +0.000 OA
ATOM     10  HXT ARG A   3       8.770   5.793  18.980  0.00  0.00    +0.000 HD
ENDBRANCH   7   9
ENDBRANCH   6   7
BRANCH   6  11
ATOM     11  CB  ARG A   3       6.247   5.862  15.822  0.00  0.00    +0.000 C 
BRANCH  11  12
ATOM     12  CG  ARG A   3       7.096   4.865  15.029  0.00  0.00    +0.000 C 
BRANCH  12  13
ATOM     13  CD  ARG A   3       6.330   3.588  14.695  0.00  0.00    +0.000 C 
BRANCH  13  14
ATOM     14  NE  ARG A   3       5.473   3.853  13.559  0.00  0.00    +0.000 N 
ATOM     15  CZ  ARG A   3       5.548   3.207  12.381  0.00  0.00    +0.000 C 
ATOM     16  NH1 ARG A   3       6.410   2.343  11.999  0.00  0.00    +0.000 NA
ATOM     17  NH2 ARG A   3       4.560   3.588  11.551  0.00  0.00    +0.000 N 
ATOM     18  HE  ARG A   3       4.511   4.074  13.802  0.00  0.00    +0.000 HD
ATOM     19  HH1 ARG A   3       7.081   2.172  12.746  0.00  0.00    +0.000 HD
ATOM     20 HH21 ARG A   3       4.460   4.594  11.508  0.00  0.00    +0.000 HD
ATOM     21 HH22 ARG A   3       4.740   3.212  10.625  0.00  0.00    +0.000 HD
ENDBRANCH  13  14
ENDBRANCH  12  13
ENDBRANCH  11  12
ENDBRANCH   6  11
ENDBRANCH   4   6
ENDBRANCH   1   2
BRANCH   1  24
ATOM     22  C   ARG A   1       1.741   8.702  19.367  0.00  0.00    +0.000 C 
ATOM     23  O   ARG A   1       1.606   8.216  20.489  0.00  0.00    +0.000 OA
ATOM     24  N   PHE A   2       2.311   8.022  18.321  0.00  0.00    +0.000 N 
ATOM     25  H   PHE A   2       2.447   8.486  17.425  0.00  0.00    +0.000 HD
BRANCH  22  26
ATOM     26  CA  ARG A   1       1.249  10.125  19.025  0.00  0.00    +0.000 C 
BRANCH  26  27
ATOM     27  N   ARG A   1       1.624  10.438  17.631  0.00  0.00    +0.000 NA
ATOM     28  H1  ARG A   1       1.220   9.715  17.031  0.00  0.00    +0.000 HD
ATOM     29  H2  ARG A   1       2.633  10.340  17.529  0.00  0.00    +0.000 HD
ENDBRANCH  26  27
BRANCH  26  30
ATOM     30  CB  ARG A   1      -0.275  10.194  19.166  0.00  0.00    +0.000 C 
BRANCH  30  31
ATOM     31  CG  ARG A   1      -0.801  11.630  19.081  0.00  0.00    +0.000 C 
BRANCH  31  32
ATOM     32  CD  ARG A   1      -2.307  11.644  18.838  0.00  0.00    +0.000 C 
BRANCH  32  36
ATOM     33  NH1 ARG A   1      -3.014   9.650  16.908  0.00  0.00    +0.000 NA
ATOM     34  CZ  ARG A   1      -2.988  10.895  16.607  0.00  0.00    +0.000 C 
ATOM     35  NH2 ARG A   1      -3.372  11.376  15.409  0.00  0.00    +0.000 N 
ATOM     36  NE  ARG A   1      -2.576  11.887  17.428  0.00  0.00    +0.000 N 
ATOM     37  HH1 ARG A   1      -3.397   9.114  16.129  0.00  0.00    +0.000 HD
ATOM     38 HH21 ARG A   1      -3.461  10.676  14.683  0.00  0.00    +0.000 HD
ATOM     39 HH22 ARG A   1      -2.798  12.149  15.095  0.00  0.00    +0.000 HD
ATOM     40  HE  ARG A   1      -3.055  12.764  17.265  0.00  0.00    +0.000 HD
ENDBRANCH  32  36
ENDBRANCH  31  32
ENDBRANCH  30  31
ENDBRANCH  26  30
ENDBRANCH  22  26
ENDBRANCH   1  24
BRANCH   1  41
ATOM     41  CB  PHE A   2       1.946   5.525  18.129  0.00  0.00    +0.000 C 
BRANCH  41  42
ATOM     42  CG  PHE A   2       1.769   4.571  19.288  0.00  0.00    +0.000 A 
ATOM     43  CD1 PHE A   2       2.276   4.885  20.554  0.00  0.00    +0.000 A 
ATOM     44  CE1 PHE A   2       2.267   3.938  21.574  0.00  0.00    +0.000 A 
ATOM     45  CZ  PHE A   2       1.725   2.677  21.342  0.00  0.00    +0.000 A 
ATOM     46  CE2 PHE A   2       1.161   2.373  20.105  0.00  0.00    +0.000 A 
ATOM     47  CD2 PHE A   2       1.175   3.320  19.083  0.00  0.00    +0.000 A 
ENDBRANCH  41  42
ENDBRANCH   1  41
TORSDOF 17
ENDMDL
MODEL 7
REMARK VINA RESULT:      -7.8      2.971      8.409
REMARK  Name = 
REMARK  17 active torsions:
REMARK  status: ('A' for Active; 'I' for Inactive)
REMARK    1  A    between atoms: NE_4  and  CD_5
REMARK    2  A    between atoms: CD_5  and  CG_6
REMARK    3  A    between atoms: CG_6  and  CB_7
REMARK    4  A    between atoms: CB_7  and  CA_8
REMARK    5  A    between atoms: CA_8  and  N_9
REMARK    6  A    between atoms: CA_8  and  C_10
REMARK    7  A    between atoms: N_12  and  CA_13
REMARK    8  A    between atoms: CA_13  and  CB_14
REMARK    9  A    between atoms: CA_13  and  C_21
REMARK   10  A    between atoms: CB_14  and  CG_15
REMARK   11  A    between atoms: N_23  and  CA_24
REMARK   12  A    between atoms: CA_24  and  CB_25
REMARK   13  A    between atoms: CA_24  and  C_32
REMARK   14  A    between atoms: CB_25  and  CG_26
REMARK   15  A    between atoms: CG_26  and  CD_27
REMARK   16  A    between atoms: CD_27  and  NE_28
REMARK   17  A    between atoms: C_32  and  OXT_34
REMARK                            x       y       z     vdW  Elec       q    Type
REMARK                         _______ _______ _______ _____ _____    ______ ____
ROOT
ATOM      1  CA  PHE A   2       2.663   6.722  18.666  0.00  0.00    +0.000 C 
ENDROOT
BRANCH   1   2
ATOM      2  C   PHE A   2       2.088   8.156  18.520  0.00  0.00    +0.000 C 
ATOM      3  O   PHE A   2       2.210   8.815  17.485  0.00  0.00    +0.000 OA
ATOM      4  N   ARG A   3       1.380   8.627  19.599  0.00  0.00    +0.000 N 
ATOM      5  H   ARG A   3       1.347   8.092  20.462  0.00  0.00    +0.000 HD
BRANCH   4   6
ATOM      6  CA  ARG A   3       0.868   9.996  19.679  0.00  0.00    +0.000 C 
BRANCH   6   7
ATOM      7  C   ARG A   3       1.195  10.533  21.082  0.00  0.00    +0.000 C 
ATOM      8  O   ARG A   3       1.282  11.730  21.337  0.00  0.00    +0.000 OA
BRANCH   7   9
ATOM      9  OXT ARG A   3       1.399   9.586  22.022  0.00  0.00    +0.000 OA
ATOM     10  HXT ARG A   3       1.806   9.898  22.853  0.00  0.00    +0.000 HD
ENDBRANCH   7   9
ENDBRANCH   6   7
BRANCH   6  11
ATOM     11  CB  ARG A   3      -0.637  10.033  19.390  0.00  0.00    +0.000 C 
BRANCH  11  12
ATOM     12  CG  ARG A   3      -0.947  10.683  18.039  0.00  0.00    +0.000 C 
BRANCH  12  13
ATOM     13  CD  ARG A   3      -1.918   9.852  17.206  0.00  0.00    +0.000 C 
BRANCH  13  14
ATOM     14  NE  ARG A   3      -3.244  10.416  17.350  0.00  0.00    +0.000 N 
ATOM     15  CZ  ARG A   3      -3.896  11.087  16.383  0.00  0.00    +0.000 C 
ATOM     16  NH1 ARG A   3      -3.468  11.442  15.232  0.00  0.00    +0.000 NA
ATOM     17  NH2 ARG A   3      -5.147  11.400  16.765  0.00  0.00    +0.000 N 
ATOM     18  HE  ARG A   3      -3.880   9.852  17.906  0.00  0.00    +0.000 HD
ATOM     19  HH1 ARG A   3      -2.507  11.125  15.108  0.00  0.00    +0.000 HD
ATOM     20 HH21 ARG A   3      -5.177  11.803  17.693  0.00  0.00    +0.000 HD
ATOM     21 HH22 ARG A   3      -5.551  12.042  16.089  0.00  0.00    +0.000 HD
ENDBRANCH  13  14
ENDBRANCH  12  13
ENDBRANCH  11  12
ENDBRANCH   6  11
ENDBRANCH   4   6
ENDBRANCH   1   2
BRANCH   1  24
ATOM     22  C   ARG A   1       4.675   5.883  17.443  0.00  0.00    +0.000 C 
ATOM     23  O   ARG A   1       4.093   4.899  16.990  0.00  0.00    +0.000 OA
ATOM     24  N   PHE A   2       4.079   6.780  18.292  0.00  0.00    +0.000 N 
ATOM     25  H   PHE A   2       4.587   7.607  18.599  0.00  0.00    +0.000 HD
BRANCH  22  26
ATOM     26  CA  ARG A   1       6.155   6.184  17.116  0.00  0.00    +0.000 C 
BRANCH  26  27
ATOM     27  N   ARG A   1       6.424   5.796  15.717  0.00  0.00    +0.000 NA
ATOM     28  H1  ARG A   1       6.749   6.630  15.220  0.00  0.00    +0.000 HD
ATOM     29  H2  ARG A   1       5.545   5.541  15.268  0.00  0.00    +0.000 HD
ENDBRANCH  26  27
BRANCH  26  30
ATOM     30  CB  ARG A   1       6.428   7.682  17.287  0.00  0.00    +0.000 C 
BRANCH  30  31
ATOM     31  CG  ARG A   1       7.859   7.959  17.758  0.00  0.00    +0.000 C 
BRANCH  31  32
ATOM     32  CD  ARG A   1       8.140   9.459  17.790  0.00  0.00    +0.000 C 
BRANCH  32  36
ATOM     33  NH1 ARG A   1      10.129  11.511  17.980  0.00  0.00    +0.000 NA
ATOM     34  CZ  ARG A   1       9.762  10.836  19.005  0.00  0.00    +0.000 C 
ATOM     35  NH2 ARG A   1      10.200  11.086  20.254  0.00  0.00    +0.000 N 
ATOM     36  NE  ARG A   1       8.903   9.792  18.984  0.00  0.00    +0.000 N 
ATOM     37  HH1 ARG A   1      10.754  12.264  18.268  0.00  0.00    +0.000 HD
ATOM     38 HH21 ARG A   1      11.013  11.688  20.301  0.00  0.00    +0.000 HD
ATOM     39 HH22 ARG A   1      10.344  10.243  20.795  0.00  0.00    +0.000 HD
ATOM     40  HE  ARG A   1       8.359   9.706  19.834  0.00  0.00    +0.000 HD
ENDBRANCH  32  36
ENDBRANCH  31  32
ENDBRANCH  30  31
ENDBRANCH  26  30
ENDBRANCH  22  26
ENDBRANCH   1  24
BRANCH   1  41
ATOM     41  CB  PHE A   2       2.400   6.115  20.065  0.00  0.00    +0.000 C 
BRANCH  41  42
ATOM     42  CG  PHE A   2       1.880   4.697  20.002  0.00  0.00    +0.000 A 
ATOM     43  CD1 PHE A   2       1.916   3.873  21.133  0.00  0.00    +0.000 A 
ATOM     44  CE1 PHE A   2       1.602   2.522  21.032  0.00  0.00    +0.000 A 
ATOM     45  CZ  PHE A   2       1.221   1.989  19.804  0.00  0.00    +0.000 A 
ATOM     46  CE2 PHE A   2       1.120   2.812  18.684  0.00  0.00    +0.000 A 
ATOM     47  CD2 PHE A   2       1.441   4.165  18.784  0.00  0.00    +0.000 A 
ENDBRANCH  41  42
ENDBRANCH   1  41
TORSDOF 17
ENDMDL
MODEL 8
REMARK VINA RESULT:      -7.7      3.740      7.552
REMARK  Name = 
REMARK  17 active torsions:
REMARK  status: ('A' for Active; 'I' for Inactive)
REMARK    1  A    between atoms: NE_4  and  CD_5
REMARK    2  A    between atoms: CD_5  and  CG_6
REMARK    3  A    between atoms: CG_6  and  CB_7
REMARK    4  A    between atoms: CB_7  and  CA_8
REMARK    5  A    between atoms: CA_8  and  N_9
REMARK    6  A    between atoms: CA_8  and  C_10
REMARK    7  A    between atoms: N_12  and  CA_13
REMARK    8  A    between atoms: CA_13  and  CB_14
REMARK    9  A    between atoms: CA_13  and  C_21
REMARK   10  A    between atoms: CB_14  and  CG_15
REMARK   11  A    between atoms: N_23  and  CA_24
REMARK   12  A    between atoms: CA_24  and  CB_25
REMARK   13  A    between atoms: CA_24  and  C_32
REMARK   14  A    between atoms: CB_25  and  CG_26
REMARK   15  A    between atoms: CG_26  and  CD_27
REMARK   16  A    between atoms: CD_27  and  NE_28
REMARK   17  A    between atoms: C_32  and  OXT_34
REMARK                            x       y       z     vdW  Elec       q    Type
REMARK                         _______ _______ _______ _____ _____    ______ ____
ROOT
ATOM      1  CA  PHE A   2       3.285   6.624  17.851  0.00  0.00    +0.000 C 
ENDROOT
BRANCH   1   2
ATOM      2  C   PHE A   2       4.760   6.185  18.041  0.00  0.00    +0.000 C 
ATOM      3  O   PHE A   2       5.142   5.563  19.035  0.00  0.00    +0.000 OA
ATOM      4  N   ARG A   3       5.609   6.480  17.002  0.00  0.00    +0.000 N 
ATOM      5  H   ARG A   3       5.286   7.047  16.223  0.00  0.00    +0.000 HD
BRANCH   4   6
ATOM      6  CA  ARG A   3       7.053   6.243  17.060  0.00  0.00    +0.000 C 
BRANCH   6   7
ATOM      7  C   ARG A   3       7.267   4.754  17.377  0.00  0.00    +0.000 C 
ATOM      8  O   ARG A   3       8.039   4.360  18.246  0.00  0.00    +0.000 OA
BRANCH   7   9
ATOM      9  OXT ARG A   3       6.551   3.900  16.615  0.00  0.00    +0.000 OA
ATOM     10  HXT ARG A   3       5.649   3.706  16.935  0.00  0.00    +0.000 HD
ENDBRANCH   7   9
ENDBRANCH   6   7
BRANCH   6  11
ATOM     11  CB  ARG A   3       7.713   7.151  18.104  0.00  0.00    +0.000 C 
BRANCH  11  12
ATOM     12  CG  ARG A   3       7.554   8.634  17.760  0.00  0.00    +0.000 C 
BRANCH  12  13
ATOM     13  CD  ARG A   3       8.834   9.427  18.011  0.00  0.00    +0.000 C 
BRANCH  13  14
ATOM     14  NE  ARG A   3       8.899   9.757  19.419  0.00  0.00    +0.000 N 
ATOM     15  CZ  ARG A   3       9.613  10.776  19.930  0.00  0.00    +0.000 C 
ATOM     16  NH1 ARG A   3      10.423  11.562  19.331  0.00  0.00    +0.000 NA
ATOM     17  NH2 ARG A   3       9.399  10.906  21.253  0.00  0.00    +0.000 N 
ATOM     18  HE  ARG A   3       8.025   9.625  19.920  0.00  0.00    +0.000 HD
ATOM     19  HH1 ARG A   3      10.465  11.323  18.340  0.00  0.00    +0.000 HD
ATOM     20 HH21 ARG A   3       9.460  10.022  21.742  0.00  0.00    +0.000 HD
ATOM     21 HH22 ARG A   3      10.069  11.567  21.634  0.00  0.00    +0.000 HD
ENDBRANCH  13  14
ENDBRANCH  12  13
ENDBRANCH  11  12
ENDBRANCH   6  11
ENDBRANCH   4   6
ENDBRANCH   1   2
BRANCH   1  24
ATOM     22  C   ARG A   1       1.693   4.900  18.715  0.00  0.00    +0.000 C 
ATOM     23  O   ARG A   1       1.490   4.411  17.606  0.00  0.00    +0.000 OA
ATOM     24  N   PHE A   2       2.501   5.991  18.916  0.00  0.00    +0.000 N 
ATOM     25  H   PHE A   2       2.679   6.327  19.860  0.00  0.00    +0.000 HD
BRANCH  22  26
ATOM     26  CA  ARG A   1       1.028   4.342  19.993  0.00  0.00    +0.000 C 
BRANCH  26  27
ATOM     27  N   ARG A   1       0.648   2.935  19.758  0.00  0.00    +0.000 NA
ATOM     28  H1  ARG A   1      -0.265   2.782  20.195  0.00  0.00    +0.000 HD
ATOM     29  H2  ARG A   1       1.293   2.328  20.263  0.00  0.00    +0.000 HD
ENDBRANCH  26  27
BRANCH  26  30
ATOM     30  CB  ARG A   1       2.016   4.410  21.163  0.00  0.00    +0.000 C 
BRANCH  30  31
ATOM     31  CG  ARG A   1       2.549   3.028  21.552  0.00  0.00    +0.000 C 
BRANCH  31  32
ATOM     32  CD  ARG A   1       3.881   2.744  20.863  0.00  0.00    +0.000 C 
BRANCH  32  36
ATOM     33  NH1 ARG A   1       4.271   2.931  18.032  0.00  0.00    +0.000 NA
ATOM     34  CZ  ARG A   1       4.011   1.814  18.601  0.00  0.00    +0.000 C 
ATOM     35  NH2 ARG A   1       3.989   0.636  17.947  0.00  0.00    +0.000 N 
ATOM     36  NE  ARG A   1       3.721   1.654  19.912  0.00  0.00    +0.000 N 
ATOM     37  HH1 ARG A   1       4.488   2.776  17.048  0.00  0.00    +0.000 HD
ATOM     38 HH21 ARG A   1       3.961   0.716  16.938  0.00  0.00    +0.000 HD
ATOM     39 HH22 ARG A   1       3.261   0.017  18.279  0.00  0.00    +0.000 HD
ATOM     40  HE  ARG A   1       4.025   0.762  20.282  0.00  0.00    +0.000 HD
ENDBRANCH  32  36
ENDBRANCH  31  32
ENDBRANCH  30  31
ENDBRANCH  26  30
ENDBRANCH  22  26
ENDBRANCH   1  24
BRANCH   1  41
ATOM     41  CB  PHE A   2       3.127   8.162  17.774  0.00  0.00    +0.000 C 
BRANCH  41  42
ATOM     42  CG  PHE A   2       1.911   8.666  18.517  0.00  0.00    +0.000 A 
ATOM     43  CD1 PHE A   2       0.926   9.406  17.853  0.00  0.00    +0.000 A 
ATOM     44  CE1 PHE A   2      -0.101  10.016  18.567  0.00  0.00    +0.000 A 
ATOM     45  CZ  PHE A   2      -0.166   9.866  19.950  0.00  0.00    +0.000 A 
ATOM     46  CE2 PHE A   2       0.772   9.079  20.614  0.00  0.00    +0.000 A 
ATOM     47  CD2 PHE A   2       1.804   8.474  19.899  0.00  0.00    +0.000 A 
ENDBRANCH  41  42
ENDBRANCH   1  41
TORSDOF 17
ENDMDL
MODEL 9
REMARK VINA RESULT:      -7.7      3.226      4.889
REMARK  Name = 
REMARK  17 active torsions:
REMARK  status: ('A' for Active; 'I' for Inactive)
REMARK    1  A    between atoms: NE_4  and  CD_5
REMARK    2  A    between atoms: CD_5  and  CG_6
REMARK    3  A    between atoms: CG_6  and  CB_7
REMARK    4  A    between atoms: CB_7  and  CA_8
REMARK    5  A    between atoms: CA_8  and  N_9
REMARK    6  A    between atoms: CA_8  and  C_10
REMARK    7  A    between atoms: N_12  and  CA_13
REMARK    8  A    between atoms: CA_13  and  CB_14
REMARK    9  A    between atoms: CA_13  and  C_21
REMARK   10  A    between atoms: CB_14  and  CG_15
REMARK   11  A    between atoms: N_23  and  CA_24
REMARK   12  A    between atoms: CA_24  and  CB_25
REMARK   13  A    between atoms: CA_24  and  C_32
REMARK   14  A    between atoms: CB_25  and  CG_26
REMARK   15  A    between atoms: CG_26  and  CD_27
REMARK   16  A    between atoms: CD_27  and  NE_28
REMARK   17  A    between atoms: C_32  and  OXT_34
REMARK                            x       y       z     vdW  Elec       q    Type
REMARK                         _______ _______ _______ _____ _____    ______ ____
ROOT
ATOM      1  CA  PHE A   2       3.241   6.646  18.353  0.00  0.00    +0.000 C 
ENDROOT
BRANCH   1   2
ATOM      2  C   PHE A   2       4.477   6.518  17.424  0.00  0.00    +0.000 C 
ATOM      3  O   PHE A   2       4.420   6.743  16.214  0.00  0.00    +0.000 OA
ATOM      4  N   ARG A   3       5.658   6.193  18.046  0.00  0.00    +0.000 N 
ATOM      5  H   ARG A   3       5.667   5.951  19.033  0.00  0.00    +0.000 HD
BRANCH   4   6
ATOM      6  CA  ARG A   3       6.895   5.919  17.313  0.00  0.00    +0.000 C 
BRANCH   6   7
ATOM      7  C   ARG A   3       7.804   5.085  18.230  0.00  0.00    +0.000 C 
ATOM      8  O   ARG A   3       8.043   5.393  19.394  0.00  0.00    +0.000 OA
BRANCH   7   9
ATOM      9  OXT ARG A   3       8.339   3.986  17.656  0.00  0.00    +0.000 OA
ATOM     10  HXT ARG A   3       8.522   4.058  16.700  0.00  0.00    +0.000 HD
ENDBRANCH   7   9
ENDBRANCH   6   7
BRANCH   6  11
ATOM     11  CB  ARG A   3       7.570   7.224  16.873  0.00  0.00    +0.000 C 
BRANCH  11  12
ATOM     12  CG  ARG A   3       7.399   8.337  17.910  0.00  0.00    +0.000 C 
BRANCH  12  13
ATOM     13  CD  ARG A   3       8.738   8.874  18.409  0.00  0.00    +0.000 C 
BRANCH  13  14
ATOM     14  NE  ARG A   3       8.602  10.296  18.643  0.00  0.00    +0.000 N 
ATOM     15  CZ  ARG A   3       9.453  11.229  18.180  0.00  0.00    +0.000 C 
ATOM     16  NH1 ARG A   3      10.558  11.063  17.559  0.00  0.00    +0.000 NA
ATOM     17  NH2 ARG A   3       9.017  12.471  18.463  0.00  0.00    +0.000 N 
ATOM     18  HE  ARG A   3       7.642  10.631  18.638  0.00  0.00    +0.000 HD
ATOM     19  HH1 ARG A   3      10.734  10.067  17.429  0.00  0.00    +0.000 HD
ATOM     20 HH21 ARG A   3       8.724  12.566  19.427  0.00  0.00    +0.000 HD
ATOM     21 HH22 ARG A   3       9.753  13.138  18.251  0.00  0.00    +0.000 HD
ENDBRANCH  13  14
ENDBRANCH  12  13
ENDBRANCH  11  12
ENDBRANCH   6  11
ENDBRANCH   4   6
ENDBRANCH   1   2
BRANCH   1  24
ATOM     22  C   ARG A   1       1.914   8.654  19.031  0.00  0.00    +0.000 C 
ATOM     23  O   ARG A   1       1.637   8.201  20.140  0.00  0.00    +0.000 OA
ATOM     24  N   PHE A   2       2.636   7.956  18.096  0.00  0.00    +0.000 N 
ATOM     25  H   PHE A   2       2.883   8.395  17.211  0.00  0.00    +0.000 HD
BRANCH  22  26
ATOM     26  CA  ARG A   1       1.444  10.053  18.575  0.00  0.00    +0.000 C 
BRANCH  26  27
ATOM     27  N   ARG A   1       2.134  10.403  17.317  0.00  0.00    +0.000 NA
ATOM     28  H1  ARG A   1       2.176   9.558  16.741  0.00  0.00    +0.000 HD
ATOM     29  H2  ARG A   1       3.104  10.636  17.524  0.00  0.00    +0.000 HD
ENDBRANCH  26  27
BRANCH  26  30
ATOM     30  CB  ARG A   1      -0.070  10.037  18.334  0.00  0.00    +0.000 C 
BRANCH  30  31
ATOM     31  CG  ARG A   1      -0.805  11.065  19.198  0.00  0.00    +0.000 C 
BRANCH  31  32
ATOM     32  CD  ARG A   1       0.022  11.436  20.425  0.00  0.00    +0.000 C 
BRANCH  32  36
ATOM     33  NH1 ARG A   1      -0.797  11.812  23.144  0.00  0.00    +0.000 NA
ATOM     34  CZ  ARG A   1      -0.567  10.645  22.667  0.00  0.00    +0.000 C 
ATOM     35  NH2 ARG A   1      -0.775   9.508  23.359  0.00  0.00    +0.000 N 
ATOM     36  NE  ARG A   1      -0.088  10.388  21.429  0.00  0.00    +0.000 N 
ATOM     37  HH1 ARG A   1      -1.185  11.732  24.083  0.00  0.00    +0.000 HD
ATOM     38 HH21 ARG A   1      -0.901   9.638  24.355  0.00  0.00    +0.000 HD
ATOM     39 HH22 ARG A   1      -0.071   8.804  23.175  0.00  0.00    +0.000 HD
ATOM     40  HE  ARG A   1      -0.421   9.512  21.047  0.00  0.00    +0.000 HD
ENDBRANCH  32  36
ENDBRANCH  31  32
ENDBRANCH  30  31
ENDBRANCH  26  30
ENDBRANCH  22  26
ENDBRANCH   1  24
BRANCH   1  41
ATOM     41  CB  PHE A   2       2.262   5.456  18.210  0.00  0.00    +0.000 C 
BRANCH  41  42
ATOM     42  CG  PHE A   2       2.350   4.480  19.361  0.00  0.00    +0.000 A 
ATOM     43  CD1 PHE A   2       3.431   3.597  19.467  0.00  0.00    +0.000 A 
ATOM     44  CE1 PHE A   2       3.426   2.587  20.424  0.00  0.00    +0.000 A 
ATOM     45  CZ  PHE A   2       2.351   2.469  21.300  0.00  0.00    +0.000 A 
ATOM     46  CE2 PHE A   2       1.299   3.380  21.246  0.00  0.00    +0.000 A 
ATOM     47  CD2 PHE A   2       1.302   4.389  20.283  0.00  0.00    +0.000 A 
ENDBRANCH  41  42
ENDBRANCH   1  41
TORSDOF 17
ENDMDL
