MODEL 1
REMARK VINA RESULT:      -8.0      0.000      0.000
REMARK  Name = 
REMARK  6 active torsions:
REMARK  status: ('A' for Active; 'I' for Inactive)
REMARK    1  A    between atoms: C_2  and  C_3
REMARK    2  A    between atoms: C_6  and  C_7
REMARK    3  A    between atoms: N_9  and  C_10
REMARK    4  A    between atoms: C_10  and  C_11
REMARK    5  A    between atoms: N_13  and  C_14
REMARK    6  A    between atoms: C_14  and  C_15
REMARK                            x       y       z     vdW  Elec       q    Type
REMARK                         _______ _______ _______ _____ _____    ______ ____
ROOT
ATOM      1  C   UNL     1       3.840   4.064  19.045  0.00  0.00    +0.000 C 
ATOM      2  C   UNL     1       3.725   3.054  20.215  0.00  0.00    +0.000 C 
ATOM      3  C   UNL     1       2.281   2.602  20.436  0.00  0.00    +0.000 C 
ATOM      4  C   UNL     1       1.723   1.942  19.181  0.00  0.00    +0.000 C 
ATOM      5  C   UNL     1       1.865   2.837  17.953  0.00  0.00    +0.000 C 
ATOM      6  C   UNL     1       3.292   3.358  17.776  0.00  0.00    +0.000 C 
ENDROOT
BRANCH   1   9
ATOM      7  C   UNL     1       3.130   6.436  18.457  0.00  0.00    +0.000 C 
ATOM      8  O   UNL     1       3.787   6.472  17.421  0.00  0.00    +0.000 OA
ATOM      9  N   UNL     1       3.061   5.317  19.257  0.00  0.00    +0.000 N 
ATOM     10  H   UNL     1       2.251   5.232  19.857  0.00  0.00    +0.000 HD
BRANCH   7  14
ATOM     11  C   UNL     1       0.700   9.858  19.410  0.00  0.00    +0.000 A 
ATOM     12  C   UNL     1       1.206   9.665  18.124  0.00  0.00    +0.000 A 
ATOM     13  C   UNL     1       2.014   8.557  17.848  0.00  0.00    +0.000 A 
ATOM     14  C   UNL     1       2.311   7.621  18.851  0.00  0.00    +0.000 A 
ATOM     15  C   UNL     1       1.847   7.846  20.153  0.00  0.00    +0.000 A 
ATOM     16  C   UNL     1       1.039   8.962  20.426  0.00  0.00    +0.000 A 
BRANCH  11  18
ATOM     17  C   UNL     1      -0.957  11.848  19.884  0.00  0.00    +0.000 C 
ATOM     18  C   UNL     1      -0.185  10.957  19.668  0.00  0.00    +0.000 C 
ENDBRANCH  11  18
ENDBRANCH   7  14
ENDBRANCH   1   9
BRANCH   1  19
ATOM     19  C   UNL     1       5.342   4.411  18.797  0.00  0.00    +0.000 C 
ATOM     20  O   UNL     1       6.067   4.897  19.663  0.00  0.00    +0.000 OA
ATOM     21  N   UNL     1       5.806   4.191  17.521  0.00  0.00    +0.000 N 
ATOM     22  H   UNL     1       5.214   3.673  16.870  0.00  0.00    +0.000 HD
BRANCH  21  23
ATOM     23  C   UNL     1       7.177   4.508  17.160  0.00  0.00    +0.000 C 
BRANCH  23  24
ATOM     24  C   UNL     1       7.314   4.949  15.761  0.00  0.00    +0.000 C 
ATOM     25  N   UNL     1       7.450   5.297  14.661  0.00  0.00    +0.000 NA
ENDBRANCH  23  24
ENDBRANCH  21  23
ENDBRANCH   1  19
TORSDOF 6
ENDMDL
MODEL 2
REMARK VINA RESULT:      -7.9      0.228      1.030
REMARK  Name = 
REMARK  6 active torsions:
REMARK  status: ('A' for Active; 'I' for Inactive)
REMARK    1  A    between atoms: C_2  and  C_3
REMARK    2  A    between atoms: C_6  and  C_7
REMARK    3  A    between atoms: N_9  and  C_10
REMARK    4  A    between atoms: C_10  and  C_11
REMARK    5  A    between atoms: N_13  and  C_14
REMARK    6  A    between atoms: C_14  and  C_15
REMARK                            x       y       z     vdW  Elec       q    Type
REMARK                         _______ _______ _______ _____ _____    ______ ____
ROOT
ATOM      1  C   UNL     1       3.861   4.091  19.074  0.00  0.00    +0.000 C 
ATOM      2  C   UNL     1       3.745   3.119  20.275  0.00  0.00    +0.000 C 
ATOM      3  C   UNL     1       2.301   2.674  20.510  0.00  0.00    +0.000 C 
ATOM      4  C   UNL     1       1.744   1.974  19.276  0.00  0.00    +0.000 C 
ATOM      5  C   UNL     1       1.886   2.829  18.020  0.00  0.00    +0.000 C 
ATOM      6  C   UNL     1       3.314   3.345  17.828  0.00  0.00    +0.000 C 
ENDROOT
BRANCH   1   9
ATOM      7  C   UNL     1       3.158   6.446  18.414  0.00  0.00    +0.000 C 
ATOM      8  O   UNL     1       3.822   6.453  17.383  0.00  0.00    +0.000 OA
ATOM      9  N   UNL     1       3.082   5.350  19.245  0.00  0.00    +0.000 N 
ATOM     10  H   UNL     1       2.267   5.283  19.842  0.00  0.00    +0.000 HD
BRANCH   7  14
ATOM     11  C   UNL     1       0.858   9.877  19.624  0.00  0.00    +0.000 A 
ATOM     12  C   UNL     1       1.136   8.840  20.517  0.00  0.00    +0.000 A 
ATOM     13  C   UNL     1       1.864   7.726  20.089  0.00  0.00    +0.000 A 
ATOM     14  C   UNL     1       2.337   7.643  18.770  0.00  0.00    +0.000 A 
ATOM     15  C   UNL     1       2.010   8.659  17.864  0.00  0.00    +0.000 A 
ATOM     16  C   UNL     1       1.275   9.774  18.297  0.00  0.00    +0.000 A 
BRANCH  11  18
ATOM     17  C   UNL     1      -0.416  12.034  20.437  0.00  0.00    +0.000 C 
ATOM     18  C   UNL     1       0.172  11.048  20.088  0.00  0.00    +0.000 C 
ENDBRANCH  11  18
ENDBRANCH   7  14
ENDBRANCH   1   9
BRANCH   1  19
ATOM     19  C   UNL     1       5.363   4.430  18.815  0.00  0.00    +0.000 C 
ATOM     20  O   UNL     1       6.084   4.956  19.661  0.00  0.00    +0.000 OA
ATOM     21  N   UNL     1       5.832   4.154  17.552  0.00  0.00    +0.000 N 
ATOM     22  H   UNL     1       5.244   3.607  16.923  0.00  0.00    +0.000 HD
BRANCH  21  23
ATOM     23  C   UNL     1       7.203   4.459  17.182  0.00  0.00    +0.000 C 
BRANCH  23  24
ATOM     24  C   UNL     1       7.332   4.920  15.789  0.00  0.00    +0.000 C 
ATOM     25  N   UNL     1       7.451   5.304  14.699  0.00  0.00    +0.000 NA
ENDBRANCH  23  24
ENDBRANCH  21  23
ENDBRANCH   1  19
TORSDOF 6
ENDMDL
MODEL 3
REMARK VINA RESULT:      -7.6      1.727      4.130
REMARK  Name = 
REMARK  6 active torsions:
REMARK  status: ('A' for Active; 'I' for Inactive)
REMARK    1  A    between atoms: C_2  and  C_3
REMARK    2  A    between atoms: C_6  and  C_7
REMARK    3  A    between atoms: N_9  and  C_10
REMARK    4  A    between atoms: C_10  and  C_11
REMARK    5  A    between atoms: N_13  and  C_14
REMARK    6  A    between atoms: C_14  and  C_15
REMARK                            x       y       z     vdW  Elec       q    Type
REMARK                         _______ _______ _______ _____ _____    ______ ____
ROOT
ATOM      1  C   UNL     1       4.812   4.519  17.458  0.00  0.00    +0.000 C 
ATOM      2  C   UNL     1       4.989   4.107  15.974  0.00  0.00    +0.000 C 
ATOM      3  C   UNL     1       5.673   5.204  15.157  0.00  0.00    +0.000 C 
ATOM      4  C   UNL     1       7.049   5.526  15.729  0.00  0.00    +0.000 C 
ATOM      5  C   UNL     1       6.984   5.870  17.214  0.00  0.00    +0.000 C 
ATOM      6  C   UNL     1       6.228   4.813  18.022  0.00  0.00    +0.000 C 
ENDROOT
BRANCH   1   9
ATOM      7  C   UNL     1       3.446   6.155  18.848  0.00  0.00    +0.000 C 
ATOM      8  O   UNL     1       3.703   5.604  19.913  0.00  0.00    +0.000 OA
ATOM      9  N   UNL     1       3.972   5.734  17.646  0.00  0.00    +0.000 N 
ATOM     10  H   UNL     1       4.020   6.420  16.902  0.00  0.00    +0.000 HD
BRANCH   7  14
ATOM     11  C   UNL     1       0.996   9.690  19.010  0.00  0.00    +0.000 A 
ATOM     12  C   UNL     1       1.142   8.858  20.122  0.00  0.00    +0.000 A 
ATOM     13  C   UNL     1       1.924   7.703  20.033  0.00  0.00    +0.000 A 
ATOM     14  C   UNL     1       2.583   7.374  18.838  0.00  0.00    +0.000 A 
ATOM     15  C   UNL     1       2.391   8.181  17.709  0.00  0.00    +0.000 A 
ATOM     16  C   UNL     1       1.601   9.338  17.802  0.00  0.00    +0.000 A 
BRANCH  11  18
ATOM     17  C   UNL     1      -0.382  11.926  19.187  0.00  0.00    +0.000 C 
ATOM     18  C   UNL     1       0.251  10.909  19.128  0.00  0.00    +0.000 C 
ENDBRANCH  11  18
ENDBRANCH   7  14
ENDBRANCH   1   9
BRANCH   1  19
ATOM     19  C   UNL     1       4.207   3.327  18.265  0.00  0.00    +0.000 C 
ATOM     20  O   UNL     1       3.178   2.745  17.925  0.00  0.00    +0.000 OA
ATOM     21  N   UNL     1       4.866   2.991  19.425  0.00  0.00    +0.000 N 
ATOM     22  H   UNL     1       5.778   3.411  19.605  0.00  0.00    +0.000 HD
BRANCH  21  23
ATOM     23  C   UNL     1       4.377   1.922  20.278  0.00  0.00    +0.000 C 
BRANCH  23  24
ATOM     24  C   UNL     1       3.324   2.367  21.207  0.00  0.00    +0.000 C 
ATOM     25  N   UNL     1       2.513   2.722  21.961  0.00  0.00    +0.000 NA
ENDBRANCH  23  24
ENDBRANCH  21  23
ENDBRANCH   1  19
TORSDOF 6
ENDMDL
MODEL 4
REMARK VINA RESULT:      -7.6      1.763      4.018
REMARK  Name = 
REMARK  6 active torsions:
REMARK  status: ('A' for Active; 'I' for Inactive)
REMARK    1  A    between atoms: C_2  and  C_3
REMARK    2  A    between atoms: C_6  and  C_7
REMARK    3  A    between atoms: N_9  and  C_10
REMARK    4  A    between atoms: C_10  and  C_11
REMARK    5  A    between atoms: N_13  and  C_14
REMARK    6  A    between atoms: C_14  and  C_15
REMARK                            x       y       z     vdW  Elec       q    Type
REMARK                         _______ _______ _______ _____ _____    ______ ____
ROOT
ATOM      1  C   UNL     1       4.808   4.603  17.491  0.00  0.00    +0.000 C 
ATOM      2  C   UNL     1       4.974   4.254  15.990  0.00  0.00    +0.000 C 
ATOM      3  C   UNL     1       5.655   5.382  15.215  0.00  0.00    +0.000 C 
ATOM      4  C   UNL     1       7.035   5.677  15.790  0.00  0.00    +0.000 C 
ATOM      5  C   UNL     1       6.982   5.958  17.289  0.00  0.00    +0.000 C 
ATOM      6  C   UNL     1       6.228   4.870  18.057  0.00  0.00    +0.000 C 
ENDROOT
BRANCH   1   9
ATOM      7  C   UNL     1       3.420   6.159  18.949  0.00  0.00    +0.000 C 
ATOM      8  O   UNL     1       3.647   5.539  19.983  0.00  0.00    +0.000 OA
ATOM      9  N   UNL     1       3.972   5.811  17.736  0.00  0.00    +0.000 N 
ATOM     10  H   UNL     1       4.043   6.542  17.039  0.00  0.00    +0.000 HD
BRANCH   7  14
ATOM     11  C   UNL     1       0.924   9.664  18.893  0.00  0.00    +0.000 A 
ATOM     12  C   UNL     1       1.651   9.275  17.767  0.00  0.00    +0.000 A 
ATOM     13  C   UNL     1       2.474   8.146  17.822  0.00  0.00    +0.000 A 
ATOM     14  C   UNL     1       2.566   7.384  18.997  0.00  0.00    +0.000 A 
ATOM     15  C   UNL     1       1.877   7.807  20.140  0.00  0.00    +0.000 A 
ATOM     16  C   UNL     1       1.055   8.944  20.081  0.00  0.00    +0.000 A 
BRANCH  11  18
ATOM     17  C   UNL     1      -0.704  11.725  18.701  0.00  0.00    +0.000 C 
ATOM     18  C   UNL     1       0.028  10.781  18.808  0.00  0.00    +0.000 C 
ENDBRANCH  11  18
ENDBRANCH   7  14
ENDBRANCH   1   9
BRANCH   1  19
ATOM     19  C   UNL     1       4.205   3.379  18.251  0.00  0.00    +0.000 C 
ATOM     20  O   UNL     1       3.180   2.806  17.887  0.00  0.00    +0.000 OA
ATOM     21  N   UNL     1       4.862   3.003  19.399  0.00  0.00    +0.000 N 
ATOM     22  H   UNL     1       5.773   3.419  19.598  0.00  0.00    +0.000 HD
BRANCH  21  23
ATOM     23  C   UNL     1       4.375   1.900  20.211  0.00  0.00    +0.000 C 
BRANCH  23  24
ATOM     24  C   UNL     1       3.356   2.317  21.189  0.00  0.00    +0.000 C 
ATOM     25  N   UNL     1       2.551   2.670  21.948  0.00  0.00    +0.000 NA
ENDBRANCH  23  24
ENDBRANCH  21  23
ENDBRANCH   1  19
TORSDOF 6
ENDMDL
MODEL 5
REMARK VINA RESULT:      -7.5      1.462      1.795
REMARK  Name = 
REMARK  6 active torsions:
REMARK  status: ('A' for Active; 'I' for Inactive)
REMARK    1  A    between atoms: C_2  and  C_3
REMARK    2  A    between atoms: C_6  and  C_7
REMARK    3  A    between atoms: N_9  and  C_10
REMARK    4  A    between atoms: C_10  and  C_11
REMARK    5  A    between atoms: N_13  and  C_14
REMARK    6  A    between atoms: C_14  and  C_15
REMARK                            x       y       z     vdW  Elec       q    Type
REMARK                         _______ _______ _______ _____ _____    ______ ____
ROOT
ATOM      1  C   UNL     1       4.370   4.169  18.488  0.00  0.00    +0.000 C 
ATOM      2  C   UNL     1       4.454   3.119  19.625  0.00  0.00    +0.000 C 
ATOM      3  C   UNL     1       3.089   2.502  19.932  0.00  0.00    +0.000 C 
ATOM      4  C   UNL     1       2.514   1.821  18.697  0.00  0.00    +0.000 C 
ATOM      5  C   UNL     1       2.464   2.761  17.496  0.00  0.00    +0.000 C 
ATOM      6  C   UNL     1       3.809   3.443  17.237  0.00  0.00    +0.000 C 
ENDROOT
BRANCH   1   9
ATOM      7  C   UNL     1       3.452   6.511  18.110  0.00  0.00    +0.000 C 
ATOM      8  O   UNL     1       4.112   6.704  17.095  0.00  0.00    +0.000 OA
ATOM      9  N   UNL     1       3.478   5.320  18.802  0.00  0.00    +0.000 N 
ATOM     10  H   UNL     1       2.673   5.107  19.377  0.00  0.00    +0.000 HD
BRANCH   7  14
ATOM     11  C   UNL     1       0.851   9.551  19.699  0.00  0.00    +0.000 A 
ATOM     12  C   UNL     1       1.270   8.474  20.483  0.00  0.00    +0.000 A 
ATOM     13  C   UNL     1       2.095   7.488  19.933  0.00  0.00    +0.000 A 
ATOM     14  C   UNL     1       2.523   7.575  18.599  0.00  0.00    +0.000 A 
ATOM     15  C   UNL     1       2.057   8.627  17.800  0.00  0.00    +0.000 A 
ATOM     16  C   UNL     1       1.226   9.613  18.356  0.00  0.00    +0.000 A 
BRANCH  11  18
ATOM     17  C   UNL     1      -0.585  11.492  20.749  0.00  0.00    +0.000 C 
ATOM     18  C   UNL     1       0.064  10.595  20.288  0.00  0.00    +0.000 C 
ENDBRANCH  11  18
ENDBRANCH   7  14
ENDBRANCH   1   9
BRANCH   1  19
ATOM     19  C   UNL     1       5.803   4.688  18.146  0.00  0.00    +0.000 C 
ATOM     20  O   UNL     1       6.409   4.354  17.130  0.00  0.00    +0.000 OA
ATOM     21  N   UNL     1       6.384   5.509  19.085  0.00  0.00    +0.000 N 
ATOM     22  H   UNL     1       5.805   5.861  19.848  0.00  0.00    +0.000 HD
BRANCH  21  23
ATOM     23  C   UNL     1       7.728   6.026  18.894  0.00  0.00    +0.000 C 
BRANCH  23  24
ATOM     24  C   UNL     1       7.768   7.210  18.018  0.00  0.00    +0.000 C 
ATOM     25  N   UNL     1       7.777   8.154  17.341  0.00  0.00    +0.000 NA
ENDBRANCH  23  24
ENDBRANCH  21  23
ENDBRANCH   1  19
TORSDOF 6
ENDMDL
MODEL 6
REMARK VINA RESULT:      -7.5      1.110      1.296
REMARK  Name = 
REMARK  6 active torsions:
REMARK  status: ('A' for Active; 'I' for Inactive)
REMARK    1  A    between atoms: C_2  and  C_3
REMARK    2  A    between atoms: C_6  and  C_7
REMARK    3  A    between atoms: N_9  and  C_10
REMARK    4  A    between atoms: C_10  and  C_11
REMARK    5  A    between atoms: N_13  and  C_14
REMARK    6  A    between atoms: C_14  and  C_15
REMARK                            x       y       z     vdW  Elec       q    Type
REMARK                         _______ _______ _______ _____ _____    ______ ____
ROOT
ATOM      1  C   UNL     1       3.244   3.890  18.339  0.00  0.00    +0.000 C 
ATOM      2  C   UNL     1       3.701   3.278  19.688  0.00  0.00    +0.000 C 
ATOM      3  C   UNL     1       2.521   3.027  20.627  0.00  0.00    +0.000 C 
ATOM      4  C   UNL     1       1.514   2.077  19.990  0.00  0.00    +0.000 C 
ATOM      5  C   UNL     1       1.063   2.561  18.615  0.00  0.00    +0.000 C 
ATOM      6  C   UNL     1       2.244   2.891  17.700  0.00  0.00    +0.000 C 
ENDROOT
BRANCH   1   9
ATOM      7  C   UNL     1       3.134   6.337  19.026  0.00  0.00    +0.000 C 
ATOM      8  O   UNL     1       4.310   6.386  19.372  0.00  0.00    +0.000 OA
ATOM      9  N   UNL     1       2.565   5.208  18.480  0.00  0.00    +0.000 N 
ATOM     10  H   UNL     1       1.745   5.342  17.900  0.00  0.00    +0.000 HD
BRANCH   7  14
ATOM     11  C   UNL     1       0.633   9.838  19.138  0.00  0.00    +0.000 A 
ATOM     12  C   UNL     1       1.279   9.447  17.964  0.00  0.00    +0.000 A 
ATOM     13  C   UNL     1       2.105   8.319  17.963  0.00  0.00    +0.000 A 
ATOM     14  C   UNL     1       2.283   7.561  19.131  0.00  0.00    +0.000 A 
ATOM     15  C   UNL     1       1.677   7.987  20.319  0.00  0.00    +0.000 A 
ATOM     16  C   UNL     1       0.851   9.122  20.316  0.00  0.00    +0.000 A 
BRANCH  11  18
ATOM     17  C   UNL     1      -0.997  11.906  19.122  0.00  0.00    +0.000 C 
ATOM     18  C   UNL     1      -0.269  10.953  19.115  0.00  0.00    +0.000 C 
ENDBRANCH  11  18
ENDBRANCH   7  14
ENDBRANCH   1   9
BRANCH   1  19
ATOM     19  C   UNL     1       4.471   4.026  17.383  0.00  0.00    +0.000 C 
ATOM     20  O   UNL     1       4.380   3.926  16.161  0.00  0.00    +0.000 OA
ATOM     21  N   UNL     1       5.690   4.214  17.993  0.00  0.00    +0.000 N 
ATOM     22  H   UNL     1       5.708   4.416  18.993  0.00  0.00    +0.000 HD
BRANCH  21  23
ATOM     23  C   UNL     1       6.908   4.320  17.209  0.00  0.00    +0.000 C 
BRANCH  23  24
ATOM     24  C   UNL     1       7.263   5.713  16.887  0.00  0.00    +0.000 C 
ATOM     25  N   UNL     1       7.517   6.815  16.620  0.00  0.00    +0.000 NA
ENDBRANCH  23  24
ENDBRANCH  21  23
ENDBRANCH   1  19
TORSDOF 6
ENDMDL
MODEL 7
REMARK VINA RESULT:      -7.4      1.498      1.713
REMARK  Name = 
REMARK  6 active torsions:
REMARK  status: ('A' for Active; 'I' for Inactive)
REMARK    1  A    between atoms: C_2  and  C_3
REMARK    2  A    between atoms: C_6  and  C_7
REMARK    3  A    between atoms: N_9  and  C_10
REMARK    4  A    between atoms: C_10  and  C_11
REMARK    5  A    between atoms: N_13  and  C_14
REMARK    6  A    between atoms: C_14  and  C_15
REMARK                            x       y       z     vdW  Elec       q    Type
REMARK                         _______ _______ _______ _____ _____    ______ ____
ROOT
ATOM      1  C   UNL     1       3.333   4.977  19.202  0.00  0.00    +0.000 C 
ATOM      2  C   UNL     1       3.389   3.661  20.019  0.00  0.00    +0.000 C 
ATOM      3  C   UNL     1       1.993   3.095  20.282  0.00  0.00    +0.000 C 
ATOM      4  C   UNL     1       1.269   2.811  18.972  0.00  0.00    +0.000 C 
ATOM      5  C   UNL     1       1.232   4.036  18.062  0.00  0.00    +0.000 C 
ATOM      6  C   UNL     1       2.618   4.654  17.864  0.00  0.00    +0.000 C 
ENDROOT
BRANCH   1   9
ATOM      7  C   UNL     1       2.298   7.298  19.323  0.00  0.00    +0.000 C 
ATOM      8  O   UNL     1       2.562   7.575  18.158  0.00  0.00    +0.000 OA
ATOM      9  N   UNL     1       2.584   6.072  19.881  0.00  0.00    +0.000 N 
ATOM     10  H   UNL     1       2.033   5.793  20.683  0.00  0.00    +0.000 HD
BRANCH   7  14
ATOM     11  C   UNL     1       0.113  10.214  21.615  0.00  0.00    +0.000 A 
ATOM     12  C   UNL     1       0.311  10.372  20.242  0.00  0.00    +0.000 A 
ATOM     13  C   UNL     1       1.047   9.422  19.527  0.00  0.00    +0.000 A 
ATOM     14  C   UNL     1       1.578   8.294  20.173  0.00  0.00    +0.000 A 
ATOM     15  C   UNL     1       1.424   8.166  21.559  0.00  0.00    +0.000 A 
ATOM     16  C   UNL     1       0.688   9.126  22.273  0.00  0.00    +0.000 A 
BRANCH  11  18
ATOM     17  C   UNL     1      -1.394  11.910  22.949  0.00  0.00    +0.000 C 
ATOM     18  C   UNL     1      -0.701  11.155  22.328  0.00  0.00    +0.000 C 
ENDBRANCH  11  18
ENDBRANCH   7  14
ENDBRANCH   1   9
BRANCH   1  19
ATOM     19  C   UNL     1       4.784   5.453  18.874  0.00  0.00    +0.000 C 
ATOM     20  O   UNL     1       5.708   5.386  19.683  0.00  0.00    +0.000 OA
ATOM     21  N   UNL     1       4.965   6.010  17.630  0.00  0.00    +0.000 N 
ATOM     22  H   UNL     1       4.211   5.934  16.947  0.00  0.00    +0.000 HD
BRANCH  21  23
ATOM     23  C   UNL     1       6.263   6.522  17.223  0.00  0.00    +0.000 C 
BRANCH  23  24
ATOM     24  C   UNL     1       7.001   5.587  16.357  0.00  0.00    +0.000 C 
ATOM     25  N   UNL     1       7.570   4.860  15.651  0.00  0.00    +0.000 NA
ENDBRANCH  23  24
ENDBRANCH  21  23
ENDBRANCH   1  19
TORSDOF 6
ENDMDL
MODEL 8
REMARK VINA RESULT:      -7.4      1.406      1.444
REMARK  Name = 
REMARK  6 active torsions:
REMARK  status: ('A' for Active; 'I' for Inactive)
REMARK    1  A    between atoms: C_2  and  C_3
REMARK    2  A    between atoms: C_6  and  C_7
REMARK    3  A    between atoms: N_9  and  C_10
REMARK    4  A    between atoms: C_10  and  C_11
REMARK    5  A    between atoms: N_13  and  C_14
REMARK    6  A    between atoms: C_14  and  C_15
REMARK                            x       y       z     vdW  Elec       q    Type
REMARK                         _______ _______ _______ _____ _____    ______ ____
ROOT
ATOM      1  C   UNL     1       4.337   4.156  18.574  0.00  0.00    +0.000 C 
ATOM      2  C   UNL     1       4.409   3.082  19.688  0.00  0.00    +0.000 C 
ATOM      3  C   UNL     1       3.034   2.490  19.998  0.00  0.00    +0.000 C 
ATOM      4  C   UNL     1       2.430   1.847  18.756  0.00  0.00    +0.000 C 
ATOM      5  C   UNL     1       2.388   2.812  17.574  0.00  0.00    +0.000 C 
ATOM      6  C   UNL     1       3.746   3.468  17.314  0.00  0.00    +0.000 C 
ENDROOT
BRANCH   1   9
ATOM      7  C   UNL     1       3.356   6.469  18.168  0.00  0.00    +0.000 C 
ATOM      8  O   UNL     1       3.894   6.603  17.073  0.00  0.00    +0.000 OA
ATOM      9  N   UNL     1       3.474   5.320  18.920  0.00  0.00    +0.000 N 
ATOM     10  H   UNL     1       2.743   5.138  19.596  0.00  0.00    +0.000 HD
BRANCH   7  14
ATOM     11  C   UNL     1       0.756   9.625  19.511  0.00  0.00    +0.000 A 
ATOM     12  C   UNL     1       1.252   9.601  18.206  0.00  0.00    +0.000 A 
ATOM     13  C   UNL     1       2.115   8.577  17.805  0.00  0.00    +0.000 A 
ATOM     14  C   UNL     1       2.479   7.556  18.697  0.00  0.00    +0.000 A 
ATOM     15  C   UNL     1       2.023   7.612  20.020  0.00  0.00    +0.000 A 
ATOM     16  C   UNL     1       1.160   8.645  20.420  0.00  0.00    +0.000 A 
BRANCH  11  18
ATOM     17  C   UNL     1      -0.972  11.495  20.176  0.00  0.00    +0.000 C 
ATOM     18  C   UNL     1      -0.184  10.637  19.895  0.00  0.00    +0.000 C 
ENDBRANCH  11  18
ENDBRANCH   7  14
ENDBRANCH   1   9
BRANCH   1  19
ATOM     19  C   UNL     1       5.777   4.649  18.226  0.00  0.00    +0.000 C 
ATOM     20  O   UNL     1       6.339   4.376  17.167  0.00  0.00    +0.000 OA
ATOM     21  N   UNL     1       6.416   5.373  19.206  0.00  0.00    +0.000 N 
ATOM     22  H   UNL     1       5.875   5.684  20.013  0.00  0.00    +0.000 HD
BRANCH  21  23
ATOM     23  C   UNL     1       7.773   5.855  19.012  0.00  0.00    +0.000 C 
BRANCH  23  24
ATOM     24  C   UNL     1       7.840   7.044  18.144  0.00  0.00    +0.000 C 
ATOM     25  N   UNL     1       7.879   7.997  17.480  0.00  0.00    +0.000 NA
ENDBRANCH  23  24
ENDBRANCH  21  23
ENDBRANCH   1  19
TORSDOF 6
ENDMDL
MODEL 9
REMARK VINA RESULT:      -7.4      1.300      1.762
REMARK  Name = 
REMARK  6 active torsions:
REMARK  status: ('A' for Active; 'I' for Inactive)
REMARK    1  A    between atoms: C_2  and  C_3
REMARK    2  A    between atoms: C_6  and  C_7
REMARK    3  A    between atoms: N_9  and  C_10
REMARK    4  A    between atoms: C_10  and  C_11
REMARK    5  A    between atoms: N_13  and  C_14
REMARK    6  A    between atoms: C_14  and  C_15
REMARK                            x       y       z     vdW  Elec       q    Type
REMARK                         _______ _______ _______ _____ _____    ______ ____
ROOT
ATOM      1  C   UNL     1       3.348   4.839  19.063  0.00  0.00    +0.000 C 
ATOM      2  C   UNL     1       3.328   3.561  19.940  0.00  0.00    +0.000 C 
ATOM      3  C   UNL     1       1.914   3.005  20.103  0.00  0.00    +0.000 C 
ATOM      4  C   UNL     1       1.308   2.661  18.747  0.00  0.00    +0.000 C 
ATOM      5  C   UNL     1       1.354   3.844  17.784  0.00  0.00    +0.000 C 
ATOM      6  C   UNL     1       2.753   4.455  17.682  0.00  0.00    +0.000 C 
ENDROOT
BRANCH   1   9
ATOM      7  C   UNL     1       2.433   7.213  19.059  0.00  0.00    +0.000 C 
ATOM      8  O   UNL     1       2.925   7.497  17.972  0.00  0.00    +0.000 OA
ATOM      9  N   UNL     1       2.544   5.961  19.623  0.00  0.00    +0.000 N 
ATOM     10  H   UNL     1       1.838   5.700  20.300  0.00  0.00    +0.000 HD
BRANCH   7  14
ATOM     11  C   UNL     1       0.173  10.088  21.330  0.00  0.00    +0.000 A 
ATOM     12  C   UNL     1       0.558   8.866  21.886  0.00  0.00    +0.000 A 
ATOM     13  C   UNL     1       1.270   7.941  21.117  0.00  0.00    +0.000 A 
ATOM     14  C   UNL     1       1.620   8.232  19.789  0.00  0.00    +0.000 A 
ATOM     15  C   UNL     1       1.186   9.435  19.218  0.00  0.00    +0.000 A 
ATOM     16  C   UNL     1       0.468  10.360  19.993  0.00  0.00    +0.000 A 
BRANCH  11  18
ATOM     17  C   UNL     1      -1.033  11.904  22.806  0.00  0.00    +0.000 C 
ATOM     18  C   UNL     1      -0.494  11.060  22.146  0.00  0.00    +0.000 C 
ENDBRANCH  11  18
ENDBRANCH   7  14
ENDBRANCH   1   9
BRANCH   1  19
ATOM     19  C   UNL     1       4.823   5.303  18.844  0.00  0.00    +0.000 C 
ATOM     20  O   UNL     1       5.636   5.397  19.762  0.00  0.00    +0.000 OA
ATOM     21  N   UNL     1       5.156   5.658  17.558  0.00  0.00    +0.000 N 
ATOM     22  H   UNL     1       4.496   5.448  16.809  0.00  0.00    +0.000 HD
BRANCH  21  23
ATOM     23  C   UNL     1       6.489   6.139  17.237  0.00  0.00    +0.000 C 
BRANCH  23  24
ATOM     24  C   UNL     1       7.006   5.592  15.971  0.00  0.00    +0.000 C 
ATOM     25  N   UNL     1       7.428   5.141  14.987  0.00  0.00    +0.000 NA
ENDBRANCH  23  24
ENDBRANCH  21  23
ENDBRANCH   1  19
TORSDOF 6
ENDMDL
