MODEL 1
REMARK VINA RESULT:      -7.2      0.000      0.000
REMARK  Name = 
REMARK  5 active torsions:
REMARK  status: ('A' for Active; 'I' for Inactive)
REMARK    1  A    between atoms: C_2  and  C_3
REMARK    2  A    between atoms: C_3  and  N_4
REMARK    3  A    between atoms: C_5  and  C_6
REMARK    4  A    between atoms: C_16  and  C_17
REMARK    5  A    between atoms: C_18  and  C_19
REMARK                            x       y       z     vdW  Elec       q    Type
REMARK                         _______ _______ _______ _____ _____    ______ ____
ROOT
ATOM      1  N   UNL     1      -0.549  11.011  20.204  0.00  0.00    +0.000 NA
ATOM      2  C   UNL     1      -1.573  11.866  19.602  0.00  0.00    +0.000 C 
ATOM      3  C   UNL     1      -1.056  13.301  19.451  0.00  0.00    +0.000 C 
ATOM      4  C   UNL     1       0.363  13.389  18.971  0.00  0.00    +0.000 C 
ATOM      5  O   UNL     1       0.889  14.495  18.818  0.00  0.00    +0.000 OA
ATOM      6  C   UNL     1       1.067  12.107  18.599  0.00  0.00    +0.000 C 
ATOM      7  C   UNL     1       2.562  12.375  18.365  0.00  0.00    +0.000 C 
ATOM      8  C   UNL     1       0.828  11.017  19.686  0.00  0.00    +0.000 C 
ENDROOT
BRANCH   2   9
ATOM      9  C   UNL     1      -2.314  11.270  18.403  0.00  0.00    +0.000 A 
ATOM     10  C   UNL     1      -3.537  11.783  17.934  0.00  0.00    +0.000 A 
ATOM     11  C   UNL     1      -4.094  11.357  16.726  0.00  0.00    +0.000 A 
ATOM     12  C   UNL     1      -3.435  10.403  15.958  0.00  0.00    +0.000 A 
ATOM     13 CL   UNL     1      -4.082   9.947  14.434  0.00  0.00    +0.000 Cl
ATOM     14  C   UNL     1      -2.239   9.856  16.406  0.00  0.00    +0.000 A 
ATOM     15  C   UNL     1      -1.681  10.288  17.614  0.00  0.00    +0.000 A 
ENDBRANCH   2   9
BRANCH   8  16
ATOM     16  C   UNL     1       1.373   9.645  19.221  0.00  0.00    +0.000 A 
ATOM     17  C   UNL     1       1.572   8.614  20.158  0.00  0.00    +0.000 A 
ATOM     18  C   UNL     1       2.184   7.408  19.795  0.00  0.00    +0.000 A 
ATOM     19  C   UNL     1       2.641   7.224  18.494  0.00  0.00    +0.000 A 
ATOM     20 CL   UNL     1       3.477   5.784  18.068  0.00  0.00    +0.000 Cl
ATOM     21  C   UNL     1       2.441   8.214  17.542  0.00  0.00    +0.000 A 
ATOM     22  C   UNL     1       1.791   9.401  17.897  0.00  0.00    +0.000 A 
ENDBRANCH   8  16
BRANCH   1  23
ATOM     23  C   UNL     1      -1.000   9.986  21.135  0.00  0.00    +0.000 C 
BRANCH  23  25
ATOM     24  C   UNL     1      -0.001   9.501  23.402  0.00  0.00    +0.000 C 
ATOM     25  C   UNL     1      -0.677  10.310  22.572  0.00  0.00    +0.000 C 
ENDBRANCH  23  25
ENDBRANCH   1  23
TORSDOF 4
ENDMDL
MODEL 2
REMARK VINA RESULT:      -7.1      3.389      5.830
REMARK  Name = 
REMARK  5 active torsions:
REMARK  status: ('A' for Active; 'I' for Inactive)
REMARK    1  A    between atoms: C_2  and  C_3
REMARK    2  A    between atoms: C_3  and  N_4
REMARK    3  A    between atoms: C_5  and  C_6
REMARK    4  A    between atoms: C_16  and  C_17
REMARK    5  A    between atoms: C_18  and  C_19
REMARK                            x       y       z     vdW  Elec       q    Type
REMARK                         _______ _______ _______ _____ _____    ______ ____
ROOT
ATOM      1  N   UNL     1       0.159  12.053  20.215  0.00  0.00    +0.000 NA
ATOM      2  C   UNL     1      -0.143  11.144  19.109  0.00  0.00    +0.000 C 
ATOM      3  C   UNL     1       0.528   9.785  19.330  0.00  0.00    +0.000 C 
ATOM      4  C   UNL     1       0.445   9.288  20.744  0.00  0.00    +0.000 C 
ATOM      5  O   UNL     1       0.957   8.205  21.043  0.00  0.00    +0.000 OA
ATOM      6  C   UNL     1      -0.354  10.099  21.736  0.00  0.00    +0.000 C 
ATOM      7  C   UNL     1      -0.125   9.567  23.159  0.00  0.00    +0.000 C 
ATOM      8  C   UNL     1      -0.005  11.612  21.610  0.00  0.00    +0.000 C 
ENDROOT
BRANCH   2   9
ATOM      9  C   UNL     1      -1.601  11.127  18.644  0.00  0.00    +0.000 A 
ATOM     10  C   UNL     1      -2.143  10.074  17.883  0.00  0.00    +0.000 A 
ATOM     11  C   UNL     1      -3.515   9.979  17.640  0.00  0.00    +0.000 A 
ATOM     12  C   UNL     1      -4.378  10.940  18.156  0.00  0.00    +0.000 A 
ATOM     13 CL   UNL     1      -6.071  10.770  17.925  0.00  0.00    +0.000 Cl
ATOM     14  C   UNL     1      -3.872  12.007  18.888  0.00  0.00    +0.000 A 
ATOM     15  C   UNL     1      -2.498  12.097  19.133  0.00  0.00    +0.000 A 
ENDBRANCH   2   9
BRANCH   8  16
ATOM     16  C   UNL     1      -0.958  12.471  22.475  0.00  0.00    +0.000 A 
ATOM     17  C   UNL     1      -2.295  12.072  22.656  0.00  0.00    +0.000 A 
ATOM     18  C   UNL     1      -3.217  12.890  23.322  0.00  0.00    +0.000 A 
ATOM     19  C   UNL     1      -2.825  14.140  23.789  0.00  0.00    +0.000 A 
ATOM     20 CL   UNL     1      -3.976  15.187  24.521  0.00  0.00    +0.000 Cl
ATOM     21  C   UNL     1      -1.509  14.555  23.643  0.00  0.00    +0.000 A 
ATOM     22  C   UNL     1      -0.581  13.718  23.016  0.00  0.00    +0.000 A 
ENDBRANCH   8  16
BRANCH   1  23
ATOM     23  C   UNL     1       0.364  13.457  19.888  0.00  0.00    +0.000 C 
BRANCH  23  25
ATOM     24  C   UNL     1       2.473  13.617  18.511  0.00  0.00    +0.000 C 
ATOM     25  C   UNL     1       1.136  13.659  18.609  0.00  0.00    +0.000 C 
ENDBRANCH  23  25
ENDBRANCH   1  23
TORSDOF 4
ENDMDL
MODEL 3
REMARK VINA RESULT:      -7.0      2.502      4.632
REMARK  Name = 
REMARK  5 active torsions:
REMARK  status: ('A' for Active; 'I' for Inactive)
REMARK    1  A    between atoms: C_2  and  C_3
REMARK    2  A    between atoms: C_3  and  N_4
REMARK    3  A    between atoms: C_5  and  C_6
REMARK    4  A    between atoms: C_16  and  C_17
REMARK    5  A    between atoms: C_18  and  C_19
REMARK                            x       y       z     vdW  Elec       q    Type
REMARK                         _______ _______ _______ _____ _____    ______ ____
ROOT
ATOM      1  N   UNL     1      -0.627  10.697  19.386  0.00  0.00    +0.000 NA
ATOM      2  C   UNL     1      -0.654  12.117  19.740  0.00  0.00    +0.000 C 
ATOM      3  C   UNL     1      -1.143  12.303  21.180  0.00  0.00    +0.000 C 
ATOM      4  C   UNL     1      -0.579  11.306  22.148  0.00  0.00    +0.000 C 
ATOM      5  O   UNL     1      -0.907  11.354  23.337  0.00  0.00    +0.000 OA
ATOM      6  C   UNL     1       0.455  10.330  21.641  0.00  0.00    +0.000 C 
ATOM      7  C   UNL     1       0.730   9.253  22.701  0.00  0.00    +0.000 C 
ATOM      8  C   UNL     1       0.004   9.716  20.282  0.00  0.00    +0.000 C 
ENDROOT
BRANCH   2   9
ATOM      9  C   UNL     1       0.572  12.929  19.317  0.00  0.00    +0.000 A 
ATOM     10  C   UNL     1       1.708  12.341  18.730  0.00  0.00    +0.000 A 
ATOM     11  C   UNL     1       2.726  13.117  18.171  0.00  0.00    +0.000 A 
ATOM     12  C   UNL     1       2.628  14.505  18.188  0.00  0.00    +0.000 A 
ATOM     13 CL   UNL     1       3.842  15.449  17.424  0.00  0.00    +0.000 Cl
ATOM     14  C   UNL     1       1.533  15.117  18.784  0.00  0.00    +0.000 A 
ATOM     15  C   UNL     1       0.513  14.338  19.340  0.00  0.00    +0.000 A 
ENDBRANCH   2   9
BRANCH   8  16
ATOM     16  C   UNL     1       1.140   8.872  19.654  0.00  0.00    +0.000 A 
ATOM     17  C   UNL     1       1.633   9.197  18.377  0.00  0.00    +0.000 A 
ATOM     18  C   UNL     1       2.566   8.380  17.726  0.00  0.00    +0.000 A 
ATOM     19  C   UNL     1       2.997   7.202  18.327  0.00  0.00    +0.000 A 
ATOM     20 CL   UNL     1       4.068   6.148  17.492  0.00  0.00    +0.000 Cl
ATOM     21  C   UNL     1       2.544   6.863  19.595  0.00  0.00    +0.000 A 
ATOM     22  C   UNL     1       1.645   7.703  20.260  0.00  0.00    +0.000 A 
ENDBRANCH   8  16
BRANCH   1  23
ATOM     23  C   UNL     1      -1.002  10.343  18.024  0.00  0.00    +0.000 C 
BRANCH  23  25
ATOM     24  C   UNL     1      -3.456  10.112  17.479  0.00  0.00    +0.000 C 
ATOM     25  C   UNL     1      -2.358  10.869  17.628  0.00  0.00    +0.000 C 
ENDBRANCH  23  25
ENDBRANCH   1  23
TORSDOF 4
ENDMDL
MODEL 4
REMARK VINA RESULT:      -7.0      3.505      5.815
REMARK  Name = 
REMARK  5 active torsions:
REMARK  status: ('A' for Active; 'I' for Inactive)
REMARK    1  A    between atoms: C_2  and  C_3
REMARK    2  A    between atoms: C_3  and  N_4
REMARK    3  A    between atoms: C_5  and  C_6
REMARK    4  A    between atoms: C_16  and  C_17
REMARK    5  A    between atoms: C_18  and  C_19
REMARK                            x       y       z     vdW  Elec       q    Type
REMARK                         _______ _______ _______ _____ _____    ______ ____
ROOT
ATOM      1  N   UNL     1       0.052  12.047  19.986  0.00  0.00    +0.000 NA
ATOM      2  C   UNL     1      -0.318  11.086  18.947  0.00  0.00    +0.000 C 
ATOM      3  C   UNL     1       0.338   9.727  19.213  0.00  0.00    +0.000 C 
ATOM      4  C   UNL     1       0.311   9.311  20.655  0.00  0.00    +0.000 C 
ATOM      5  O   UNL     1       0.816   8.235  20.990  0.00  0.00    +0.000 OA
ATOM      6  C   UNL     1      -0.426  10.192  21.635  0.00  0.00    +0.000 C 
ATOM      7  C   UNL     1      -0.141   9.734  23.073  0.00  0.00    +0.000 C 
ATOM      8  C   UNL     1      -0.055  11.688  21.408  0.00  0.00    +0.000 C 
ENDROOT
BRANCH   2   9
ATOM      9  C   UNL     1      -1.796  11.073  18.549  0.00  0.00    +0.000 A 
ATOM     10  C   UNL     1      -2.381  10.013  17.833  0.00  0.00    +0.000 A 
ATOM     11  C   UNL     1      -3.763   9.926  17.655  0.00  0.00    +0.000 A 
ATOM     12  C   UNL     1      -4.594  10.904  18.193  0.00  0.00    +0.000 A 
ATOM     13 CL   UNL     1      -6.297  10.745  18.044  0.00  0.00    +0.000 Cl
ATOM     14  C   UNL     1      -4.046  11.978  18.883  0.00  0.00    +0.000 A 
ATOM     15  C   UNL     1      -2.661  12.060  19.063  0.00  0.00    +0.000 A 
ENDBRANCH   2   9
BRANCH   8  16
ATOM     16  C   UNL     1      -0.951  12.613  22.266  0.00  0.00    +0.000 A 
ATOM     17  C   UNL     1      -0.427  13.810  22.791  0.00  0.00    +0.000 A 
ATOM     18  C   UNL     1      -1.168  14.604  23.676  0.00  0.00    +0.000 A 
ATOM     19  C   UNL     1      -2.435  14.196  24.081  0.00  0.00    +0.000 A 
ATOM     20 CL   UNL     1      -3.307  15.118  25.240  0.00  0.00    +0.000 Cl
ATOM     21  C   UNL     1      -2.987  13.032  23.566  0.00  0.00    +0.000 A 
ATOM     22  C   UNL     1      -2.262  12.263  22.649  0.00  0.00    +0.000 A 
ENDBRANCH   8  16
BRANCH   1  23
ATOM     23  C   UNL     1       0.268  13.427  19.571  0.00  0.00    +0.000 C 
BRANCH  23  25
ATOM     24  C   UNL     1       2.581  13.383  18.562  0.00  0.00    +0.000 C 
ATOM     25  C   UNL     1       1.726  13.803  19.507  0.00  0.00    +0.000 C 
ENDBRANCH  23  25
ENDBRANCH   1  23
TORSDOF 4
ENDMDL
MODEL 5
REMARK VINA RESULT:      -6.9      3.249      5.709
REMARK  Name = 
REMARK  5 active torsions:
REMARK  status: ('A' for Active; 'I' for Inactive)
REMARK    1  A    between atoms: C_2  and  C_3
REMARK    2  A    between atoms: C_3  and  N_4
REMARK    3  A    between atoms: C_5  and  C_6
REMARK    4  A    between atoms: C_16  and  C_17
REMARK    5  A    between atoms: C_18  and  C_19
REMARK                            x       y       z     vdW  Elec       q    Type
REMARK                         _______ _______ _______ _____ _____    ______ ____
ROOT
ATOM      1  N   UNL     1       0.481  11.864  20.416  0.00  0.00    +0.000 NA
ATOM      2  C   UNL     1       0.291  10.918  19.316  0.00  0.00    +0.000 C 
ATOM      3  C   UNL     1       0.954   9.575  19.640  0.00  0.00    +0.000 C 
ATOM      4  C   UNL     1       0.747   9.121  21.055  0.00  0.00    +0.000 C 
ATOM      5  O   UNL     1       1.241   8.055  21.433  0.00  0.00    +0.000 OA
ATOM      6  C   UNL     1      -0.148   9.951  21.944  0.00  0.00    +0.000 C 
ATOM      7  C   UNL     1      -0.044   9.465  23.398  0.00  0.00    +0.000 C 
ATOM      8  C   UNL     1       0.195  11.464  21.802  0.00  0.00    +0.000 C 
ENDROOT
BRANCH   2   9
ATOM      9  C   UNL     1      -1.117  10.867  18.720  0.00  0.00    +0.000 A 
ATOM     10  C   UNL     1      -2.162  11.695  19.169  0.00  0.00    +0.000 A 
ATOM     11  C   UNL     1      -3.377  11.775  18.484  0.00  0.00    +0.000 A 
ATOM     12  C   UNL     1      -3.572  11.025  17.329  0.00  0.00    +0.000 A 
ATOM     13 CL   UNL     1      -5.035  11.193  16.446  0.00  0.00    +0.000 Cl
ATOM     14  C   UNL     1      -2.570  10.176  16.875  0.00  0.00    +0.000 A 
ATOM     15  C   UNL     1      -1.353  10.101  17.560  0.00  0.00    +0.000 A 
ENDBRANCH   2   9
BRANCH   8  16
ATOM     16  C   UNL     1      -0.842  12.336  22.549  0.00  0.00    +0.000 A 
ATOM     17  C   UNL     1      -2.138  11.840  22.786  0.00  0.00    +0.000 A 
ATOM     18  C   UNL     1      -3.138  12.648  23.341  0.00  0.00    +0.000 A 
ATOM     19  C   UNL     1      -2.870  13.981  23.637  0.00  0.00    +0.000 A 
ATOM     20 CL   UNL     1      -4.120  15.001  24.228  0.00  0.00    +0.000 Cl
ATOM     21  C   UNL     1      -1.597  14.495  23.433  0.00  0.00    +0.000 A 
ATOM     22  C   UNL     1      -0.588  13.673  22.919  0.00  0.00    +0.000 A 
ENDBRANCH   8  16
BRANCH   1  23
ATOM     23  C   UNL     1       0.701  13.260  20.064  0.00  0.00    +0.000 C 
BRANCH  23  25
ATOM     24  C   UNL     1       2.381  13.881  18.286  0.00  0.00    +0.000 C 
ATOM     25  C   UNL     1       2.091  13.528  19.547  0.00  0.00    +0.000 C 
ENDBRANCH  23  25
ENDBRANCH   1  23
TORSDOF 4
ENDMDL
MODEL 6
REMARK VINA RESULT:      -6.9      0.467      1.142
REMARK  Name = 
REMARK  5 active torsions:
REMARK  status: ('A' for Active; 'I' for Inactive)
REMARK    1  A    between atoms: C_2  and  C_3
REMARK    2  A    between atoms: C_3  and  N_4
REMARK    3  A    between atoms: C_5  and  C_6
REMARK    4  A    between atoms: C_16  and  C_17
REMARK    5  A    between atoms: C_18  and  C_19
REMARK                            x       y       z     vdW  Elec       q    Type
REMARK                         _______ _______ _______ _____ _____    ______ ____
ROOT
ATOM      1  N   UNL     1      -0.554  11.235  20.322  0.00  0.00    +0.000 NA
ATOM      2  C   UNL     1      -1.606  12.025  19.682  0.00  0.00    +0.000 C 
ATOM      3  C   UNL     1      -1.152  13.477  19.497  0.00  0.00    +0.000 C 
ATOM      4  C   UNL     1       0.268  13.616  19.033  0.00  0.00    +0.000 C 
ATOM      5  O   UNL     1       0.746  14.740  18.855  0.00  0.00    +0.000 OA
ATOM      6  C   UNL     1       1.035  12.357  18.707  0.00  0.00    +0.000 C 
ATOM      7  C   UNL     1       2.519  12.685  18.486  0.00  0.00    +0.000 C 
ATOM      8  C   UNL     1       0.829  11.289  19.823  0.00  0.00    +0.000 C 
ENDROOT
BRANCH   2   9
ATOM      9  C   UNL     1      -2.302  11.362  18.491  0.00  0.00    +0.000 A 
ATOM     10  C   UNL     1      -3.547  11.797  18.001  0.00  0.00    +0.000 A 
ATOM     11  C   UNL     1      -4.069  11.313  16.799  0.00  0.00    +0.000 A 
ATOM     12  C   UNL     1      -3.351  10.380  16.058  0.00  0.00    +0.000 A 
ATOM     13 CL   UNL     1      -3.958   9.854  14.541  0.00  0.00    +0.000 Cl
ATOM     14  C   UNL     1      -2.131   9.910  16.528  0.00  0.00    +0.000 A 
ATOM     15  C   UNL     1      -1.610  10.399  17.730  0.00  0.00    +0.000 A 
ENDBRANCH   2   9
BRANCH   8  16
ATOM     16  C   UNL     1       1.441   9.930  19.405  0.00  0.00    +0.000 A 
ATOM     17  C   UNL     1       1.744   9.681  18.053  0.00  0.00    +0.000 A 
ATOM     18  C   UNL     1       2.175   8.420  17.622  0.00  0.00    +0.000 A 
ATOM     19  C   UNL     1       2.279   7.374  18.533  0.00  0.00    +0.000 A 
ATOM     20 CL   UNL     1       2.716   5.801  17.993  0.00  0.00    +0.000 Cl
ATOM     21  C   UNL     1       2.007   7.592  19.876  0.00  0.00    +0.000 A 
ATOM     22  C   UNL     1       1.618   8.863  20.310  0.00  0.00    +0.000 A 
ENDBRANCH   8  16
BRANCH   1  23
ATOM     23  C   UNL     1      -0.971  10.218  21.277  0.00  0.00    +0.000 C 
BRANCH  23  25
ATOM     24  C   UNL     1      -1.812  11.494  23.286  0.00  0.00    +0.000 C 
ATOM     25  C   UNL     1      -0.908  10.688  22.708  0.00  0.00    +0.000 C 
ENDBRANCH  23  25
ENDBRANCH   1  23
TORSDOF 4
ENDMDL
MODEL 7
REMARK VINA RESULT:      -6.9      3.310      5.707
REMARK  Name = 
REMARK  5 active torsions:
REMARK  status: ('A' for Active; 'I' for Inactive)
REMARK    1  A    between atoms: C_2  and  C_3
REMARK    2  A    between atoms: C_3  and  N_4
REMARK    3  A    between atoms: C_5  and  C_6
REMARK    4  A    between atoms: C_16  and  C_17
REMARK    5  A    between atoms: C_18  and  C_19
REMARK                            x       y       z     vdW  Elec       q    Type
REMARK                         _______ _______ _______ _____ _____    ______ ____
ROOT
ATOM      1  N   UNL     1       0.580  11.760  20.256  0.00  0.00    +0.000 NA
ATOM      2  C   UNL     1       0.387  10.769  19.197  0.00  0.00    +0.000 C 
ATOM      3  C   UNL     1       1.006   9.426  19.597  0.00  0.00    +0.000 C 
ATOM      4  C   UNL     1       0.757   9.043  21.026  0.00  0.00    +0.000 C 
ATOM      5  O   UNL     1       1.213   7.983  21.464  0.00  0.00    +0.000 OA
ATOM      6  C   UNL     1      -0.134   9.937  21.856  0.00  0.00    +0.000 C 
ATOM      7  C   UNL     1      -0.074   9.517  23.332  0.00  0.00    +0.000 C 
ATOM      8  C   UNL     1       0.254  11.432  21.653  0.00  0.00    +0.000 C 
ENDROOT
BRANCH   2   9
ATOM      9  C   UNL     1      -1.009  10.728  18.572  0.00  0.00    +0.000 A 
ATOM     10  C   UNL     1      -2.058  11.562  19.002  0.00  0.00    +0.000 A 
ATOM     11  C   UNL     1      -3.258  11.651  18.292  0.00  0.00    +0.000 A 
ATOM     12  C   UNL     1      -3.434  10.904  17.133  0.00  0.00    +0.000 A 
ATOM     13 CL   UNL     1      -4.878  11.082  16.221  0.00  0.00    +0.000 Cl
ATOM     14  C   UNL     1      -2.429  10.050  16.697  0.00  0.00    +0.000 A 
ATOM     15  C   UNL     1      -1.227   9.965  17.407  0.00  0.00    +0.000 A 
ENDBRANCH   2   9
BRANCH   8  16
ATOM     16  C   UNL     1      -0.774  12.365  22.336  0.00  0.00    +0.000 A 
ATOM     17  C   UNL     1      -0.381  13.644  22.773  0.00  0.00    +0.000 A 
ATOM     18  C   UNL     1      -1.248  14.461  23.510  0.00  0.00    +0.000 A 
ATOM     19  C   UNL     1      -2.515  13.999  23.852  0.00  0.00    +0.000 A 
ATOM     20 CL   UNL     1      -3.546  14.959  24.836  0.00  0.00    +0.000 Cl
ATOM     21  C   UNL     1      -2.939  12.751  23.419  0.00  0.00    +0.000 A 
ATOM     22  C   UNL     1      -2.087  11.954  22.647  0.00  0.00    +0.000 A 
ENDBRANCH   8  16
BRANCH   1  23
ATOM     23  C   UNL     1       0.845  13.132  19.846  0.00  0.00    +0.000 C 
BRANCH  23  25
ATOM     24  C   UNL     1       2.560  13.900  18.160  0.00  0.00    +0.000 C 
ATOM     25  C   UNL     1       2.250  13.335  19.337  0.00  0.00    +0.000 C 
ENDBRANCH  23  25
ENDBRANCH   1  23
TORSDOF 4
ENDMDL
MODEL 8
REMARK VINA RESULT:      -6.9      4.124      6.273
REMARK  Name = 
REMARK  5 active torsions:
REMARK  status: ('A' for Active; 'I' for Inactive)
REMARK    1  A    between atoms: C_2  and  C_3
REMARK    2  A    between atoms: C_3  and  N_4
REMARK    3  A    between atoms: C_5  and  C_6
REMARK    4  A    between atoms: C_16  and  C_17
REMARK    5  A    between atoms: C_18  and  C_19
REMARK                            x       y       z     vdW  Elec       q    Type
REMARK                         _______ _______ _______ _____ _____    ______ ____
ROOT
ATOM      1  N   UNL     1      -5.852  11.531  19.657  0.00  0.00    +0.000 NA
ATOM      2  C   UNL     1      -6.512  12.738  20.154  0.00  0.00    +0.000 C 
ATOM      3  C   UNL     1      -5.816  13.250  21.420  0.00  0.00    +0.000 C 
ATOM      4  C   UNL     1      -4.318  13.196  21.354  0.00  0.00    +0.000 C 
ATOM      5  O   UNL     1      -3.649  13.577  22.319  0.00  0.00    +0.000 OA
ATOM      6  C   UNL     1      -3.680  12.761  20.057  0.00  0.00    +0.000 C 
ATOM      7  C   UNL     1      -2.172  12.542  20.258  0.00  0.00    +0.000 C 
ATOM      8  C   UNL     1      -4.390  11.491  19.499  0.00  0.00    +0.000 C 
ENDROOT
BRANCH   2   9
ATOM      9  C   UNL     1      -6.874  13.781  19.095  0.00  0.00    +0.000 A 
ATOM     10  C   UNL     1      -6.490  15.131  19.196  0.00  0.00    +0.000 A 
ATOM     11  C   UNL     1      -6.655  16.019  18.131  0.00  0.00    +0.000 A 
ATOM     12  C   UNL     1      -7.210  15.574  16.936  0.00  0.00    +0.000 A 
ATOM     13 CL   UNL     1      -7.331  16.650  15.604  0.00  0.00    +0.000 Cl
ATOM     14  C   UNL     1      -7.625  14.253  16.814  0.00  0.00    +0.000 A 
ATOM     15  C   UNL     1      -7.456  13.365  17.880  0.00  0.00    +0.000 A 
ENDBRANCH   2   9
BRANCH   8  16
ATOM     16  C   UNL     1      -3.880  11.155  18.076  0.00  0.00    +0.000 A 
ATOM     17  C   UNL     1      -4.473  11.765  16.955  0.00  0.00    +0.000 A 
ATOM     18  C   UNL     1      -4.127  11.387  15.651  0.00  0.00    +0.000 A 
ATOM     19  C   UNL     1      -3.205  10.366  15.446  0.00  0.00    +0.000 A 
ATOM     20 CL   UNL     1      -2.848   9.835  13.851  0.00  0.00    +0.000 Cl
ATOM     21  C   UNL     1      -2.588   9.758  16.531  0.00  0.00    +0.000 A 
ATOM     22  C   UNL     1      -2.904  10.168  17.830  0.00  0.00    +0.000 A 
ENDBRANCH   8  16
BRANCH   1  23
ATOM     23  C   UNL     1      -6.700  10.493  19.086  0.00  0.00    +0.000 C 
BRANCH  23  25
ATOM     24  C   UNL     1      -7.351   8.384  20.310  0.00  0.00    +0.000 C 
ATOM     25  C   UNL     1      -7.456   9.709  20.129  0.00  0.00    +0.000 C 
ENDBRANCH  23  25
ENDBRANCH   1  23
TORSDOF 4
ENDMDL
MODEL 9
REMARK VINA RESULT:      -6.9      4.115      6.178
REMARK  Name = 
REMARK  5 active torsions:
REMARK  status: ('A' for Active; 'I' for Inactive)
REMARK    1  A    between atoms: C_2  and  C_3
REMARK    2  A    between atoms: C_3  and  N_4
REMARK    3  A    between atoms: C_5  and  C_6
REMARK    4  A    between atoms: C_16  and  C_17
REMARK    5  A    between atoms: C_18  and  C_19
REMARK                            x       y       z     vdW  Elec       q    Type
REMARK                         _______ _______ _______ _____ _____    ______ ____
ROOT
ATOM      1  N   UNL     1      -5.849  11.513  19.625  0.00  0.00    +0.000 NA
ATOM      2  C   UNL     1      -6.366  12.791  20.116  0.00  0.00    +0.000 C 
ATOM      3  C   UNL     1      -5.500  13.317  21.264  0.00  0.00    +0.000 C 
ATOM      4  C   UNL     1      -4.026  13.149  21.041  0.00  0.00    +0.000 C 
ATOM      5  O   UNL     1      -3.229  13.531  21.902  0.00  0.00    +0.000 OA
ATOM      6  C   UNL     1      -3.567  12.598  19.712  0.00  0.00    +0.000 C 
ATOM      7  C   UNL     1      -2.066  12.279  19.762  0.00  0.00    +0.000 C 
ATOM      8  C   UNL     1      -4.420  11.357  19.313  0.00  0.00    +0.000 C 
ENDROOT
BRANCH   2   9
ATOM      9  C   UNL     1      -6.773  13.800  19.039  0.00  0.00    +0.000 A 
ATOM     10  C   UNL     1      -6.506  15.177  19.149  0.00  0.00    +0.000 A 
ATOM     11  C   UNL     1      -6.704  16.047  18.075  0.00  0.00    +0.000 A 
ATOM     12  C   UNL     1      -7.175  15.556  16.862  0.00  0.00    +0.000 A 
ATOM     13 CL   UNL     1      -7.334  16.617  15.522  0.00  0.00    +0.000 Cl
ATOM     14  C   UNL     1      -7.474  14.206  16.729  0.00  0.00    +0.000 A 
ATOM     15  C   UNL     1      -7.271  13.335  17.805  0.00  0.00    +0.000 A 
ENDBRANCH   2   9
BRANCH   8  16
ATOM     16  C   UNL     1      -4.097  10.908  17.867  0.00  0.00    +0.000 A 
ATOM     17  C   UNL     1      -3.306   9.765  17.647  0.00  0.00    +0.000 A 
ATOM     18  C   UNL     1      -2.886   9.406  16.359  0.00  0.00    +0.000 A 
ATOM     19  C   UNL     1      -3.223  10.205  15.271  0.00  0.00    +0.000 A 
ATOM     20 CL   UNL     1      -2.631   9.821  13.704  0.00  0.00    +0.000 Cl
ATOM     21  C   UNL     1      -4.019  11.327  15.454  0.00  0.00    +0.000 A 
ATOM     22  C   UNL     1      -4.472  11.659  16.735  0.00  0.00    +0.000 A 
ENDBRANCH   8  16
BRANCH   1  23
ATOM     23  C   UNL     1      -6.824  10.512  19.215  0.00  0.00    +0.000 C 
BRANCH  23  25
ATOM     24  C   UNL     1      -7.544   8.486  20.537  0.00  0.00    +0.000 C 
ATOM     25  C   UNL     1      -7.483   9.817  20.379  0.00  0.00    +0.000 C 
ENDBRANCH  23  25
ENDBRANCH   1  23
TORSDOF 4
ENDMDL
