MODEL 1
REMARK VINA RESULT:      -8.8      0.000      0.000
REMARK  Name = 
REMARK  7 active torsions:
REMARK  status: ('A' for Active; 'I' for Inactive)
REMARK    1  A    between atoms: C_1  and  O_2
REMARK    2  A    between atoms: O_2  and  C_3
REMARK    3  A    between atoms: C_8  and  C_9
REMARK    4  A    between atoms: C_12  and  N_13
REMARK    5  A    between atoms: N_13  and  C_14
REMARK    6  A    between atoms: C_24  and  O_25
REMARK    7  A    between atoms: O_25  and  C_26
REMARK                            x       y       z     vdW  Elec       q    Type
REMARK                         _______ _______ _______ _____ _____    ______ ____
ROOT
ATOM      1  C   UNL     1       6.403   5.129  15.896  0.00  0.00    +0.000 A 
ATOM      2  C   UNL     1       5.627   4.006  16.228  0.00  0.00    +0.000 A 
ATOM      3  C   UNL     1       4.690   4.019  17.254  0.00  0.00    +0.000 A 
ATOM      4  N   UNL     1       3.947   2.921  17.433  0.00  0.00    +0.000 NA
ATOM      5  C   UNL     1       2.997   2.944  18.398  0.00  0.00    +0.000 A 
ATOM      6  C   UNL     1       2.699   4.049  19.187  0.00  0.00    +0.000 A 
ATOM      7  C   UNL     1       3.451   5.224  18.976  0.00  0.00    +0.000 A 
ATOM      8  C   UNL     1       4.543   5.174  18.040  0.00  0.00    +0.000 A 
ATOM      9  C   UNL     1       5.496   6.198  17.835  0.00  0.00    +0.000 A 
ATOM     10  C   UNL     1       6.369   6.230  16.744  0.00  0.00    +0.000 A 
ENDROOT
BRANCH   6  11
ATOM     11  C   UNL     1       1.598   3.858  20.172  0.00  0.00    +0.000 C 
ATOM     12  N   UNL     1       0.538   3.072  19.827  0.00  0.00    +0.000 N 
ATOM     13  O   UNL     1       1.632   4.383  21.278  0.00  0.00    +0.000 OA
ATOM     14  H   UNL     1       0.587   2.446  19.032  0.00  0.00    +0.000 HD
ATOM     15  H   UNL     1      -0.147   2.883  20.548  0.00  0.00    +0.000 HD
ENDBRANCH   6  11
BRANCH   1  17
ATOM     16  C   UNL     1       6.763   4.369  13.680  0.00  0.00    +0.000 C 
ATOM     17  O   UNL     1       7.210   5.149  14.790  0.00  0.00    +0.000 OA
ENDBRANCH   1  17
BRANCH   7  18
ATOM     18  N   UNL     1       3.147   6.407  19.732  0.00  0.00    +0.000 N 
ATOM     19  H   UNL     1       4.006   6.742  20.186  0.00  0.00    +0.000 HD
BRANCH  18  20
ATOM     20  C   UNL     1       2.338   7.517  19.358  0.00  0.00    +0.000 A 
ATOM     21  C   UNL     1       2.347   8.056  18.058  0.00  0.00    +0.000 A 
ATOM     22  C   UNL     1       1.696   9.265  17.786  0.00  0.00    +0.000 A 
ATOM     23  C   UNL     1       0.958   9.907  18.782  0.00  0.00    +0.000 A 
ATOM     24  C   UNL     1       0.848   9.312  20.035  0.00  0.00    +0.000 A 
ATOM     25  F   UNL     1       0.110   9.917  20.977  0.00  0.00    +0.000 F 
ATOM     26  C   UNL     1       1.520   8.129  20.315  0.00  0.00    +0.000 A 
ATOM     27  F   UNL     1       1.445   7.592  21.546  0.00  0.00    +0.000 F 
ENDBRANCH  18  20
ENDBRANCH   7  18
BRANCH  10  28
ATOM     28  O   UNL     1       7.045   7.415  16.682  0.00  0.00    +0.000 OA
ATOM     29  C   UNL     1       7.832   7.839  17.779  0.00  0.00    +0.000 C 
ENDBRANCH  10  28
TORSDOF 5
ENDMDL
MODEL 2
REMARK VINA RESULT:      -7.9      1.210      1.540
REMARK  Name = 
REMARK  7 active torsions:
REMARK  status: ('A' for Active; 'I' for Inactive)
REMARK    1  A    between atoms: C_1  and  O_2
REMARK    2  A    between atoms: O_2  and  C_3
REMARK    3  A    between atoms: C_8  and  C_9
REMARK    4  A    between atoms: C_12  and  N_13
REMARK    5  A    between atoms: N_13  and  C_14
REMARK    6  A    between atoms: C_24  and  O_25
REMARK    7  A    between atoms: O_25  and  C_26
REMARK                            x       y       z     vdW  Elec       q    Type
REMARK                         _______ _______ _______ _____ _____    ______ ____
ROOT
ATOM      1  C   UNL     1       6.037   4.948  15.762  0.00  0.00    +0.000 A 
ATOM      2  C   UNL     1       5.170   3.889  16.081  0.00  0.00    +0.000 A 
ATOM      3  C   UNL     1       4.340   3.908  17.195  0.00  0.00    +0.000 A 
ATOM      4  N   UNL     1       3.496   2.884  17.361  0.00  0.00    +0.000 NA
ATOM      5  C   UNL     1       2.648   2.920  18.416  0.00  0.00    +0.000 A 
ATOM      6  C   UNL     1       2.552   3.976  19.316  0.00  0.00    +0.000 A 
ATOM      7  C   UNL     1       3.411   5.078  19.124  0.00  0.00    +0.000 A 
ATOM      8  C   UNL     1       4.399   4.997  18.081  0.00  0.00    +0.000 A 
ATOM      9  C   UNL     1       5.440   5.929  17.863  0.00  0.00    +0.000 A 
ATOM     10  C   UNL     1       6.207   5.965  16.694  0.00  0.00    +0.000 A 
ENDROOT
BRANCH   6  11
ATOM     11  C   UNL     1       1.532   3.814  20.389  0.00  0.00    +0.000 C 
ATOM     12  N   UNL     1       0.303   3.323  20.059  0.00  0.00    +0.000 N 
ATOM     13  O   UNL     1       1.778   4.104  21.553  0.00  0.00    +0.000 OA
ATOM     14  H   UNL     1       0.145   2.861  19.171  0.00  0.00    +0.000 HD
ATOM     15  H   UNL     1      -0.337   3.135  20.820  0.00  0.00    +0.000 HD
ENDBRANCH   6  11
BRANCH   1  17
ATOM     16  C   UNL     1       6.342   4.024  13.601  0.00  0.00    +0.000 C 
ATOM     17  O   UNL     1       6.735   4.983  14.586  0.00  0.00    +0.000 OA
ENDBRANCH   1  17
BRANCH   7  18
ATOM     18  N   UNL     1       3.315   6.214  19.999  0.00  0.00    +0.000 N 
ATOM     19  H   UNL     1       4.262   6.550  20.213  0.00  0.00    +0.000 HD
BRANCH  18  20
ATOM     20  C   UNL     1       2.419   7.318  19.925  0.00  0.00    +0.000 A 
ATOM     21  C   UNL     1       1.578   7.682  20.993  0.00  0.00    +0.000 A 
ATOM     22  C   UNL     1       0.573   8.640  20.809  0.00  0.00    +0.000 A 
ATOM     23  C   UNL     1       0.450   9.306  19.589  0.00  0.00    +0.000 A 
ATOM     24  C   UNL     1       1.358   9.034  18.572  0.00  0.00    +0.000 A 
ATOM     25  F   UNL     1       1.255   9.702  17.414  0.00  0.00    +0.000 F 
ATOM     26  C   UNL     1       2.336   8.061  18.742  0.00  0.00    +0.000 A 
ATOM     27  F   UNL     1       3.176   7.773  17.731  0.00  0.00    +0.000 F 
ENDBRANCH  18  20
ENDBRANCH   7  18
BRANCH  10  28
ATOM     28  O   UNL     1       7.005   7.073  16.658  0.00  0.00    +0.000 OA
ATOM     29  C   UNL     1       7.758   7.440  17.799  0.00  0.00    +0.000 C 
ENDBRANCH  10  28
TORSDOF 5
ENDMDL
MODEL 3
REMARK VINA RESULT:      -7.7      3.137      5.948
REMARK  Name = 
REMARK  7 active torsions:
REMARK  status: ('A' for Active; 'I' for Inactive)
REMARK    1  A    between atoms: C_1  and  O_2
REMARK    2  A    between atoms: O_2  and  C_3
REMARK    3  A    between atoms: C_8  and  C_9
REMARK    4  A    between atoms: C_12  and  N_13
REMARK    5  A    between atoms: N_13  and  C_14
REMARK    6  A    between atoms: C_24  and  O_25
REMARK    7  A    between atoms: O_25  and  C_26
REMARK                            x       y       z     vdW  Elec       q    Type
REMARK                         _______ _______ _______ _____ _____    ______ ____
ROOT
ATOM      1  C   UNL     1       1.244   7.728  20.593  0.00  0.00    +0.000 A 
ATOM      2  C   UNL     1       1.146   6.426  21.111  0.00  0.00    +0.000 A 
ATOM      3  C   UNL     1       1.902   5.366  20.625  0.00  0.00    +0.000 A 
ATOM      4  N   UNL     1       1.791   4.186  21.244  0.00  0.00    +0.000 NA
ATOM      5  C   UNL     1       2.562   3.162  20.808  0.00  0.00    +0.000 A 
ATOM      6  C   UNL     1       3.507   3.261  19.793  0.00  0.00    +0.000 A 
ATOM      7  C   UNL     1       3.659   4.514  19.163  0.00  0.00    +0.000 A 
ATOM      8  C   UNL     1       2.761   5.575  19.533  0.00  0.00    +0.000 A 
ATOM      9  C   UNL     1       2.663   6.829  18.888  0.00  0.00    +0.000 A 
ATOM     10  C   UNL     1       1.982   7.923  19.432  0.00  0.00    +0.000 A 
ENDROOT
BRANCH   6  11
ATOM     11  C   UNL     1       4.261   2.012  19.493  0.00  0.00    +0.000 C 
ATOM     12  N   UNL     1       3.945   1.308  18.368  0.00  0.00    +0.000 N 
ATOM     13  O   UNL     1       5.157   1.615  20.227  0.00  0.00    +0.000 OA
ATOM     14  H   UNL     1       3.386   1.721  17.631  0.00  0.00    +0.000 HD
ATOM     15  H   UNL     1       4.535   0.518  18.140  0.00  0.00    +0.000 HD
ENDBRANCH   6  11
BRANCH   1  17
ATOM     16  C   UNL     1       1.210   9.294  22.372  0.00  0.00    +0.000 C 
ATOM     17  O   UNL     1       0.607   8.789  21.178  0.00  0.00    +0.000 OA
ENDBRANCH   1  17
BRANCH   7  18
ATOM     18  N   UNL     1       4.657   4.679  18.142  0.00  0.00    +0.000 N 
ATOM     19  H   UNL     1       4.190   4.891  17.251  0.00  0.00    +0.000 HD
BRANCH  18  20
ATOM     20  C   UNL     1       5.894   5.379  18.214  0.00  0.00    +0.000 A 
ATOM     21  C   UNL     1       6.941   4.981  19.065  0.00  0.00    +0.000 A 
ATOM     22  C   UNL     1       8.054   5.809  19.256  0.00  0.00    +0.000 A 
ATOM     23  C   UNL     1       8.178   6.999  18.538  0.00  0.00    +0.000 A 
ATOM     24  C   UNL     1       7.202   7.334  17.606  0.00  0.00    +0.000 A 
ATOM     25  F   UNL     1       7.344   8.462  16.895  0.00  0.00    +0.000 F 
ATOM     26  C   UNL     1       6.081   6.530  17.438  0.00  0.00    +0.000 A 
ATOM     27  F   UNL     1       5.120   6.893  16.569  0.00  0.00    +0.000 F 
ENDBRANCH  18  20
ENDBRANCH   7  18
BRANCH  10  28
ATOM     28  O   UNL     1       2.203   9.058  18.705  0.00  0.00    +0.000 OA
ATOM     29  C   UNL     1       1.151   9.633  17.952  0.00  0.00    +0.000 C 
ENDBRANCH  10  28
TORSDOF 5
ENDMDL
MODEL 4
REMARK VINA RESULT:      -7.5      2.797      6.864
REMARK  Name = 
REMARK  7 active torsions:
REMARK  status: ('A' for Active; 'I' for Inactive)
REMARK    1  A    between atoms: C_1  and  O_2
REMARK    2  A    between atoms: O_2  and  C_3
REMARK    3  A    between atoms: C_8  and  C_9
REMARK    4  A    between atoms: C_12  and  N_13
REMARK    5  A    between atoms: N_13  and  C_14
REMARK    6  A    between atoms: C_24  and  O_25
REMARK    7  A    between atoms: O_25  and  C_26
REMARK                            x       y       z     vdW  Elec       q    Type
REMARK                         _______ _______ _______ _____ _____    ______ ____
ROOT
ATOM      1  C   UNL     1      -0.203  10.083  20.018  0.00  0.00    +0.000 A 
ATOM      2  C   UNL     1       0.634  10.162  18.892  0.00  0.00    +0.000 A 
ATOM      3  C   UNL     1       1.626   9.227  18.627  0.00  0.00    +0.000 A 
ATOM      4  N   UNL     1       2.311   9.351  17.485  0.00  0.00    +0.000 NA
ATOM      5  C   UNL     1       3.244   8.415  17.195  0.00  0.00    +0.000 A 
ATOM      6  C   UNL     1       3.508   7.295  17.976  0.00  0.00    +0.000 A 
ATOM      7  C   UNL     1       2.761   7.134  19.161  0.00  0.00    +0.000 A 
ATOM      8  C   UNL     1       1.854   8.185  19.541  0.00  0.00    +0.000 A 
ATOM      9  C   UNL     1       1.161   8.265  20.771  0.00  0.00    +0.000 A 
ATOM     10  C   UNL     1       0.096   9.143  20.998  0.00  0.00    +0.000 A 
ENDROOT
BRANCH   6  11
ATOM     11  C   UNL     1       4.562   6.381  17.453  0.00  0.00    +0.000 C 
ATOM     12  N   UNL     1       4.849   6.404  16.120  0.00  0.00    +0.000 N 
ATOM     13  O   UNL     1       5.176   5.623  18.194  0.00  0.00    +0.000 OA
ATOM     14  H   UNL     1       4.536   7.165  15.529  0.00  0.00    +0.000 HD
ATOM     15  H   UNL     1       5.632   5.842  15.808  0.00  0.00    +0.000 HD
ENDBRANCH   6  11
BRANCH   1  17
ATOM     16  C   UNL     1      -1.907  11.369  18.988  0.00  0.00    +0.000 C 
ATOM     17  O   UNL     1      -1.271  10.923  20.187  0.00  0.00    +0.000 OA
ENDBRANCH   1  17
BRANCH   7  18
ATOM     18  N   UNL     1       2.963   5.968  19.975  0.00  0.00    +0.000 N 
ATOM     19  H   UNL     1       3.039   6.257  20.958  0.00  0.00    +0.000 HD
BRANCH  18  20
ATOM     20  C   UNL     1       2.310   4.705  19.896  0.00  0.00    +0.000 A 
ATOM     21  C   UNL     1       1.847   4.168  18.681  0.00  0.00    +0.000 A 
ATOM     22  C   UNL     1       1.035   3.027  18.673  0.00  0.00    +0.000 A 
ATOM     23  C   UNL     1       0.746   2.361  19.865  0.00  0.00    +0.000 A 
ATOM     24  C   UNL     1       1.304   2.821  21.053  0.00  0.00    +0.000 A 
ATOM     25  F   UNL     1       1.049   2.157  22.189  0.00  0.00    +0.000 F 
ATOM     26  C   UNL     1       2.083   3.971  21.067  0.00  0.00    +0.000 A 
ATOM     27  F   UNL     1       2.574   4.434  22.231  0.00  0.00    +0.000 F 
ENDBRANCH  18  20
ENDBRANCH   7  18
BRANCH  10  28
ATOM     28  O   UNL     1      -0.516   8.884  22.191  0.00  0.00    +0.000 OA
ATOM     29  C   UNL     1      -0.213   9.673  23.327  0.00  0.00    +0.000 C 
ENDBRANCH  10  28
TORSDOF 5
ENDMDL
MODEL 5
REMARK VINA RESULT:      -7.4      3.151      5.770
REMARK  Name = 
REMARK  7 active torsions:
REMARK  status: ('A' for Active; 'I' for Inactive)
REMARK    1  A    between atoms: C_1  and  O_2
REMARK    2  A    between atoms: O_2  and  C_3
REMARK    3  A    between atoms: C_8  and  C_9
REMARK    4  A    between atoms: C_12  and  N_13
REMARK    5  A    between atoms: N_13  and  C_14
REMARK    6  A    between atoms: C_24  and  O_25
REMARK    7  A    between atoms: O_25  and  C_26
REMARK                            x       y       z     vdW  Elec       q    Type
REMARK                         _______ _______ _______ _____ _____    ______ ____
ROOT
ATOM      1  C   UNL     1       1.492   7.452  20.424  0.00  0.00    +0.000 A 
ATOM      2  C   UNL     1       1.385   6.197  21.047  0.00  0.00    +0.000 A 
ATOM      3  C   UNL     1       2.133   5.096  20.652  0.00  0.00    +0.000 A 
ATOM      4  N   UNL     1       2.014   3.972  21.367  0.00  0.00    +0.000 NA
ATOM      5  C   UNL     1       2.778   2.910  21.019  0.00  0.00    +0.000 A 
ATOM      6  C   UNL     1       3.723   2.918  19.999  0.00  0.00    +0.000 A 
ATOM      7  C   UNL     1       3.885   4.113  19.267  0.00  0.00    +0.000 A 
ATOM      8  C   UNL     1       2.994   5.207  19.547  0.00  0.00    +0.000 A 
ATOM      9  C   UNL     1       2.905   6.404  18.800  0.00  0.00    +0.000 A 
ATOM     10  C   UNL     1       2.232   7.544  19.250  0.00  0.00    +0.000 A 
ENDROOT
BRANCH   6  11
ATOM     11  C   UNL     1       4.469   1.643  19.805  0.00  0.00    +0.000 C 
ATOM     12  N   UNL     1       4.185   0.876  18.713  0.00  0.00    +0.000 N 
ATOM     13  O   UNL     1       5.330   1.279  20.597  0.00  0.00    +0.000 OA
ATOM     14  H   UNL     1       3.661   1.251  17.931  0.00  0.00    +0.000 HD
ATOM     15  H   UNL     1       4.771   0.065  18.556  0.00  0.00    +0.000 HD
ENDBRANCH   6  11
BRANCH   1  17
ATOM     16  C   UNL     1       1.351   9.047  22.170  0.00  0.00    +0.000 C 
ATOM     17  O   UNL     1       0.863   8.562  20.918  0.00  0.00    +0.000 OA
ENDBRANCH   1  17
BRANCH   7  18
ATOM     18  N   UNL     1       4.885   4.185  18.237  0.00  0.00    +0.000 N 
ATOM     19  H   UNL     1       4.531   3.712  17.397  0.00  0.00    +0.000 HD
BRANCH  18  20
ATOM     20  C   UNL     1       5.692   5.295  17.860  0.00  0.00    +0.000 A 
ATOM     21  C   UNL     1       5.524   5.971  16.637  0.00  0.00    +0.000 A 
ATOM     22  C   UNL     1       6.464   6.920  16.217  0.00  0.00    +0.000 A 
ATOM     23  C   UNL     1       7.532   7.268  17.045  0.00  0.00    +0.000 A 
ATOM     24  C   UNL     1       7.632   6.688  18.305  0.00  0.00    +0.000 A 
ATOM     25  F   UNL     1       8.642   7.051  19.108  0.00  0.00    +0.000 F 
ATOM     26  C   UNL     1       6.718   5.723  18.711  0.00  0.00    +0.000 A 
ATOM     27  F   UNL     1       6.855   5.134  19.912  0.00  0.00    +0.000 F 
ENDBRANCH  18  20
ENDBRANCH   7  18
BRANCH  10  28
ATOM     28  O   UNL     1       2.462   8.613  18.432  0.00  0.00    +0.000 OA
ATOM     29  C   UNL     1       1.380   9.246  17.773  0.00  0.00    +0.000 C 
ENDBRANCH  10  28
TORSDOF 5
ENDMDL
MODEL 6
REMARK VINA RESULT:      -7.4      2.855      6.165
REMARK  Name = 
REMARK  7 active torsions:
REMARK  status: ('A' for Active; 'I' for Inactive)
REMARK    1  A    between atoms: C_1  and  O_2
REMARK    2  A    between atoms: O_2  and  C_3
REMARK    3  A    between atoms: C_8  and  C_9
REMARK    4  A    between atoms: C_12  and  N_13
REMARK    5  A    between atoms: N_13  and  C_14
REMARK    6  A    between atoms: C_24  and  O_25
REMARK    7  A    between atoms: O_25  and  C_26
REMARK                            x       y       z     vdW  Elec       q    Type
REMARK                         _______ _______ _______ _____ _____    ______ ____
ROOT
ATOM      1  C   UNL     1       1.467   8.350  20.508  0.00  0.00    +0.000 A 
ATOM      2  C   UNL     1       1.585   7.098  21.135  0.00  0.00    +0.000 A 
ATOM      3  C   UNL     1       2.047   5.968  20.472  0.00  0.00    +0.000 A 
ATOM      4  N   UNL     1       2.198   4.846  21.184  0.00  0.00    +0.000 NA
ATOM      5  C   UNL     1       2.696   3.754  20.557  0.00  0.00    +0.000 A 
ATOM      6  C   UNL     1       3.115   3.727  19.232  0.00  0.00    +0.000 A 
ATOM      7  C   UNL     1       2.997   4.918  18.485  0.00  0.00    +0.000 A 
ATOM      8  C   UNL     1       2.357   6.048  19.104  0.00  0.00    +0.000 A 
ATOM      9  C   UNL     1       2.007   7.252  18.450  0.00  0.00    +0.000 A 
ATOM     10  C   UNL     1       1.638   8.417  19.130  0.00  0.00    +0.000 A 
ENDROOT
BRANCH   6  11
ATOM     11  C   UNL     1       3.653   2.423  18.755  0.00  0.00    +0.000 C 
ATOM     12  N   UNL     1       4.738   1.890  19.385  0.00  0.00    +0.000 N 
ATOM     13  O   UNL     1       3.136   1.822  17.820  0.00  0.00    +0.000 OA
ATOM     14  H   UNL     1       5.040   2.232  20.290  0.00  0.00    +0.000 HD
ATOM     15  H   UNL     1       5.024   0.960  19.102  0.00  0.00    +0.000 HD
ENDBRANCH   6  11
BRANCH   1  17
ATOM     16  C   UNL     1       0.614   9.278  22.515  0.00  0.00    +0.000 C 
ATOM     17  O   UNL     1       1.156   9.484  21.209  0.00  0.00    +0.000 OA
ENDBRANCH   1  17
BRANCH   7  18
ATOM     18  N   UNL     1       3.463   4.953  17.126  0.00  0.00    +0.000 N 
ATOM     19  H   UNL     1       2.890   5.621  16.595  0.00  0.00    +0.000 HD
BRANCH  18  20
ATOM     20  C   UNL     1       4.803   4.984  16.647  0.00  0.00    +0.000 A 
ATOM     21  C   UNL     1       5.345   3.960  15.849  0.00  0.00    +0.000 A 
ATOM     22  C   UNL     1       6.717   3.929  15.571  0.00  0.00    +0.000 A 
ATOM     23  C   UNL     1       7.549   4.959  16.011  0.00  0.00    +0.000 A 
ATOM     24  C   UNL     1       6.993   6.034  16.697  0.00  0.00    +0.000 A 
ATOM     25  F   UNL     1       7.792   7.037  17.088  0.00  0.00    +0.000 F 
ATOM     26  C   UNL     1       5.637   6.052  17.001  0.00  0.00    +0.000 A 
ATOM     27  F   UNL     1       5.123   7.073  17.709  0.00  0.00    +0.000 F 
ENDBRANCH  18  20
ENDBRANCH   7  18
BRANCH  10  28
ATOM     28  O   UNL     1       1.540   9.480  18.278  0.00  0.00    +0.000 OA
ATOM     29  C   UNL     1       0.289  10.112  18.076  0.00  0.00    +0.000 C 
ENDBRANCH  10  28
TORSDOF 5
ENDMDL
MODEL 7
REMARK VINA RESULT:      -7.3      2.718      6.902
REMARK  Name = 
REMARK  7 active torsions:
REMARK  status: ('A' for Active; 'I' for Inactive)
REMARK    1  A    between atoms: C_1  and  O_2
REMARK    2  A    between atoms: O_2  and  C_3
REMARK    3  A    between atoms: C_8  and  C_9
REMARK    4  A    between atoms: C_12  and  N_13
REMARK    5  A    between atoms: N_13  and  C_14
REMARK    6  A    between atoms: C_24  and  O_25
REMARK    7  A    between atoms: O_25  and  C_26
REMARK                            x       y       z     vdW  Elec       q    Type
REMARK                         _______ _______ _______ _____ _____    ______ ____
ROOT
ATOM      1  C   UNL     1      -0.070   9.806  20.032  0.00  0.00    +0.000 A 
ATOM      2  C   UNL     1       0.778   9.839  18.912  0.00  0.00    +0.000 A 
ATOM      3  C   UNL     1       1.767   8.888  18.691  0.00  0.00    +0.000 A 
ATOM      4  N   UNL     1       2.464   8.967  17.552  0.00  0.00    +0.000 NA
ATOM      5  C   UNL     1       3.394   8.015  17.306  0.00  0.00    +0.000 A 
ATOM      6  C   UNL     1       3.644   6.923  18.130  0.00  0.00    +0.000 A 
ATOM      7  C   UNL     1       2.884   6.811  19.313  0.00  0.00    +0.000 A 
ATOM      8  C   UNL     1       1.981   7.880  19.646  0.00  0.00    +0.000 A 
ATOM      9  C   UNL     1       1.276   8.010  20.865  0.00  0.00    +0.000 A 
ATOM     10  C   UNL     1       0.214   8.901  21.048  0.00  0.00    +0.000 A 
ENDROOT
BRANCH   6  11
ATOM     11  C   UNL     1       4.697   5.985  17.652  0.00  0.00    +0.000 C 
ATOM     12  N   UNL     1       4.428   5.187  16.579  0.00  0.00    +0.000 N 
ATOM     13  O   UNL     1       5.793   5.925  18.195  0.00  0.00    +0.000 OA
ATOM     14  H   UNL     1       3.638   5.373  15.972  0.00  0.00    +0.000 HD
ATOM     15  H   UNL     1       5.192   4.629  16.218  0.00  0.00    +0.000 HD
ENDBRANCH   6  11
BRANCH   1  17
ATOM     16  C   UNL     1      -0.807  12.035  20.353  0.00  0.00    +0.000 C 
ATOM     17  O   UNL     1      -1.134  10.657  20.160  0.00  0.00    +0.000 OA
ENDBRANCH   1  17
BRANCH   7  18
ATOM     18  N   UNL     1       3.072   5.674  20.172  0.00  0.00    +0.000 N 
ATOM     19  H   UNL     1       2.654   5.877  21.089  0.00  0.00    +0.000 HD
BRANCH  18  20
ATOM     20  C   UNL     1       2.908   4.293  19.866  0.00  0.00    +0.000 A 
ATOM     21  C   UNL     1       3.996   3.408  19.760  0.00  0.00    +0.000 A 
ATOM     22  C   UNL     1       3.811   2.113  19.259  0.00  0.00    +0.000 A 
ATOM     23  C   UNL     1       2.530   1.658  18.941  0.00  0.00    +0.000 A 
ATOM     24  C   UNL     1       1.439   2.492  19.161  0.00  0.00    +0.000 A 
ATOM     25  F   UNL     1       0.208   2.036  18.885  0.00  0.00    +0.000 F 
ATOM     26  C   UNL     1       1.624   3.787  19.627  0.00  0.00    +0.000 A 
ATOM     27  F   UNL     1       0.564   4.600  19.786  0.00  0.00    +0.000 F 
ENDBRANCH  18  20
ENDBRANCH   7  18
BRANCH  10  28
ATOM     28  O   UNL     1      -0.410   8.690  22.244  0.00  0.00    +0.000 OA
ATOM     29  C   UNL     1      -0.216   9.597  23.314  0.00  0.00    +0.000 C 
ENDBRANCH  10  28
TORSDOF 5
ENDMDL
MODEL 8
REMARK VINA RESULT:      -7.3      3.373      6.314
REMARK  Name = 
REMARK  7 active torsions:
REMARK  status: ('A' for Active; 'I' for Inactive)
REMARK    1  A    between atoms: C_1  and  O_2
REMARK    2  A    between atoms: O_2  and  C_3
REMARK    3  A    between atoms: C_8  and  C_9
REMARK    4  A    between atoms: C_12  and  N_13
REMARK    5  A    between atoms: N_13  and  C_14
REMARK    6  A    between atoms: C_24  and  O_25
REMARK    7  A    between atoms: O_25  and  C_26
REMARK                            x       y       z     vdW  Elec       q    Type
REMARK                         _______ _______ _______ _____ _____    ______ ____
ROOT
ATOM      1  C   UNL     1       1.481   8.083  20.606  0.00  0.00    +0.000 A 
ATOM      2  C   UNL     1       1.499   6.813  21.207  0.00  0.00    +0.000 A 
ATOM      3  C   UNL     1       2.008   5.688  20.570  0.00  0.00    +0.000 A 
ATOM      4  N   UNL     1       2.052   4.545  21.264  0.00  0.00    +0.000 NA
ATOM      5  C   UNL     1       2.594   3.457  20.668  0.00  0.00    +0.000 A 
ATOM      6  C   UNL     1       3.161   3.453  19.399  0.00  0.00    +0.000 A 
ATOM      7  C   UNL     1       3.157   4.665  18.677  0.00  0.00    +0.000 A 
ATOM      8  C   UNL     1       2.475   5.795  19.250  0.00  0.00    +0.000 A 
ATOM      9  C   UNL     1       2.229   7.023  18.594  0.00  0.00    +0.000 A 
ATOM     10  C   UNL     1       1.811   8.180  19.259  0.00  0.00    +0.000 A 
ENDROOT
BRANCH   6  11
ATOM     11  C   UNL     1       3.721   2.147  18.950  0.00  0.00    +0.000 C 
ATOM     12  N   UNL     1       4.815   1.646  19.593  0.00  0.00    +0.000 N 
ATOM     13  O   UNL     1       3.216   1.519  18.028  0.00  0.00    +0.000 OA
ATOM     14  H   UNL     1       5.110   2.013  20.490  0.00  0.00    +0.000 HD
ATOM     15  H   UNL     1       5.116   0.716  19.330  0.00  0.00    +0.000 HD
ENDBRANCH   6  11
BRANCH   1  17
ATOM     16  C   UNL     1      -0.283   9.359  21.542  0.00  0.00    +0.000 C 
ATOM     17  O   UNL     1       1.117   9.206  21.297  0.00  0.00    +0.000 OA
ENDBRANCH   1  17
BRANCH   7  18
ATOM     18  N   UNL     1       3.777   4.722  17.381  0.00  0.00    +0.000 N 
ATOM     19  H   UNL     1       3.114   5.137  16.714  0.00  0.00    +0.000 HD
BRANCH  18  20
ATOM     20  C   UNL     1       5.104   5.115  17.048  0.00  0.00    +0.000 A 
ATOM     21  C   UNL     1       5.908   5.876  17.916  0.00  0.00    +0.000 A 
ATOM     22  C   UNL     1       7.122   6.412  17.471  0.00  0.00    +0.000 A 
ATOM     23  C   UNL     1       7.590   6.125  16.188  0.00  0.00    +0.000 A 
ATOM     24  C   UNL     1       6.854   5.274  15.371  0.00  0.00    +0.000 A 
ATOM     25  F   UNL     1       7.325   4.976  14.152  0.00  0.00    +0.000 F 
ATOM     26  C   UNL     1       5.633   4.767  15.799  0.00  0.00    +0.000 A 
ATOM     27  F   UNL     1       4.908   3.985  14.980  0.00  0.00    +0.000 F 
ENDBRANCH  18  20
ENDBRANCH   7  18
BRANCH  10  28
ATOM     28  O   UNL     1       1.835   9.266  18.431  0.00  0.00    +0.000 OA
ATOM     29  C   UNL     1       0.622   9.841  17.982  0.00  0.00    +0.000 C 
ENDBRANCH  10  28
TORSDOF 5
ENDMDL
MODEL 9
REMARK VINA RESULT:      -7.2      3.067      7.158
REMARK  Name = 
REMARK  7 active torsions:
REMARK  status: ('A' for Active; 'I' for Inactive)
REMARK    1  A    between atoms: C_1  and  O_2
REMARK    2  A    between atoms: O_2  and  C_3
REMARK    3  A    between atoms: C_8  and  C_9
REMARK    4  A    between atoms: C_12  and  N_13
REMARK    5  A    between atoms: N_13  and  C_14
REMARK    6  A    between atoms: C_24  and  O_25
REMARK    7  A    between atoms: O_25  and  C_26
REMARK                            x       y       z     vdW  Elec       q    Type
REMARK                         _______ _______ _______ _____ _____    ______ ____
ROOT
ATOM      1  C   UNL     1      -0.222  10.017  20.129  0.00  0.00    +0.000 A 
ATOM      2  C   UNL     1       0.581  10.097  18.979  0.00  0.00    +0.000 A 
ATOM      3  C   UNL     1       1.570   9.165  18.689  0.00  0.00    +0.000 A 
ATOM      4  N   UNL     1       2.221   9.290  17.527  0.00  0.00    +0.000 NA
ATOM      5  C   UNL     1       3.151   8.357  17.213  0.00  0.00    +0.000 A 
ATOM      6  C   UNL     1       3.443   7.242  17.989  0.00  0.00    +0.000 A 
ATOM      7  C   UNL     1       2.732   7.081  19.197  0.00  0.00    +0.000 A 
ATOM      8  C   UNL     1       1.831   8.129  19.600  0.00  0.00    +0.000 A 
ATOM      9  C   UNL     1       1.174   8.209  20.849  0.00  0.00    +0.000 A 
ATOM     10  C   UNL     1       0.111   9.082  21.103  0.00  0.00    +0.000 A 
ENDROOT
BRANCH   6  11
ATOM     11  C   UNL     1       4.487   6.332  17.439  0.00  0.00    +0.000 C 
ATOM     12  N   UNL     1       5.795   6.575  17.739  0.00  0.00    +0.000 N 
ATOM     13  O   UNL     1       4.192   5.373  16.736  0.00  0.00    +0.000 OA
ATOM     14  H   UNL     1       6.052   7.202  18.492  0.00  0.00    +0.000 HD
ATOM     15  H   UNL     1       6.473   5.889  17.431  0.00  0.00    +0.000 HD
ENDBRANCH   6  11
BRANCH   1  17
ATOM     16  C   UNL     1      -0.967  12.216  20.604  0.00  0.00    +0.000 C 
ATOM     17  O   UNL     1      -1.289  10.851  20.327  0.00  0.00    +0.000 OA
ENDBRANCH   1  17
BRANCH   7  18
ATOM     18  N   UNL     1       2.964   5.918  20.009  0.00  0.00    +0.000 N 
ATOM     19  H   UNL     1       2.786   6.159  20.992  0.00  0.00    +0.000 HD
BRANCH  18  20
ATOM     20  C   UNL     1       2.571   4.572  19.765  0.00  0.00    +0.000 A 
ATOM     21  C   UNL     1       1.223   4.172  19.726  0.00  0.00    +0.000 A 
ATOM     22  C   UNL     1       0.887   2.813  19.688  0.00  0.00    +0.000 A 
ATOM     23  C   UNL     1       1.886   1.843  19.601  0.00  0.00    +0.000 A 
ATOM     24  C   UNL     1       3.215   2.243  19.516  0.00  0.00    +0.000 A 
ATOM     25  F   UNL     1       4.168   1.307  19.399  0.00  0.00    +0.000 F 
ATOM     26  C   UNL     1       3.553   3.589  19.587  0.00  0.00    +0.000 A 
ATOM     27  F   UNL     1       4.846   3.958  19.555  0.00  0.00    +0.000 F 
ENDBRANCH  18  20
ENDBRANCH   7  18
BRANCH  10  28
ATOM     28  O   UNL     1      -0.464   8.824  22.315  0.00  0.00    +0.000 OA
ATOM     29  C   UNL     1      -0.101   9.590  23.449  0.00  0.00    +0.000 C 
ENDBRANCH  10  28
TORSDOF 5
ENDMDL
