MODEL 1
REMARK VINA RESULT:      -8.8      0.000      0.000
REMARK  Name = 
REMARK  3 active torsions:
REMARK  status: ('A' for Active; 'I' for Inactive)
REMARK    1  A    between atoms: C_2  and  C_19
REMARK    2  A    between atoms: N_3  and  N_4
REMARK    3  A    between atoms: C_5  and  C_7
REMARK                            x       y       z     vdW  Elec       q    Type
REMARK                         _______ _______ _______ _____ _____    ______ ____
ROOT
ATOM      1  N   UNL     1       2.599   5.243  20.621  0.00  0.00    +0.000 N 
ATOM      2  C   UNL     1       1.870   4.163  20.199  0.00  0.00    +0.000 C 
ATOM      3  O   UNL     1       0.662   4.079  20.434  0.00  0.00    +0.000 OA
ATOM      4  H   UNL     1       3.594   5.375  20.463  0.00  0.00    +0.000 HD
ENDROOT
BRANCH   2   5
ATOM      5  C   UNL     1       2.667   3.047  19.509  0.00  0.00    +0.000 C 
ATOM      6  C   UNL     1       4.185   3.036  19.787  0.00  0.00    +0.000 C 
ATOM      7  C   UNL     1       4.972   4.164  19.093  0.00  0.00    +0.000 C 
ATOM      8  N   UNL     1       4.503   4.347  17.731  0.00  0.00    +0.000 N 
ATOM      9  C   UNL     1       5.359   4.433  16.662  0.00  0.00    +0.000 A 
ATOM     10  N   UNL     1       4.839   4.290  15.430  0.00  0.00    +0.000 NA
ATOM     11  C   UNL     1       5.657   4.373  14.371  0.00  0.00    +0.000 A 
ATOM     12  C   UNL     1       6.999   4.607  14.484  0.00  0.00    +0.000 A 
ATOM     13  C   UNL     1       7.455   4.738  15.772  0.00  0.00    +0.000 A 
ATOM     14  N   UNL     1       6.668   4.645  16.863  0.00  0.00    +0.000 NA
ATOM     15  C   UNL     1       3.076   4.427  17.481  0.00  0.00    +0.000 C 
ATOM     16  C   UNL     1       2.446   3.136  17.994  0.00  0.00    +0.000 C 
ENDBRANCH   2   5
BRANCH   1  19
ATOM     17  O   UNL     1       2.359   7.540  19.265  0.00  0.00    +0.000 OA
ATOM     18  C   UNL     1       1.833   7.472  20.369  0.00  0.00    +0.000 C 
ATOM     19  N   UNL     1       1.918   6.344  21.161  0.00  0.00    +0.000 N 
ATOM     20  H   UNL     1       1.303   6.152  21.953  0.00  0.00    +0.000 HD
BRANCH  18  21
ATOM     21  C   UNL     1       1.050   8.612  20.900  0.00  0.00    +0.000 A 
ATOM     22  C   UNL     1       0.781   8.654  22.274  0.00  0.00    +0.000 A 
ATOM     23  C   UNL     1       0.018   9.689  22.811  0.00  0.00    +0.000 A 
ATOM     24  C   UNL     1      -0.491  10.679  21.972  0.00  0.00    +0.000 A 
ATOM     25 CL   UNL     1      -1.440  11.952  22.633  0.00  0.00    +0.000 Cl
ATOM     26  C   UNL     1      -0.242  10.641  20.599  0.00  0.00    +0.000 A 
ATOM     27  C   UNL     1       0.533   9.606  20.059  0.00  0.00    +0.000 A 
ENDBRANCH  18  21
ENDBRANCH   1  19
TORSDOF 3
ENDMDL
MODEL 2
REMARK VINA RESULT:      -8.7      5.929      7.712
REMARK  Name = 
REMARK  3 active torsions:
REMARK  status: ('A' for Active; 'I' for Inactive)
REMARK    1  A    between atoms: C_2  and  C_19
REMARK    2  A    between atoms: N_3  and  N_4
REMARK    3  A    between atoms: C_5  and  C_7
REMARK                            x       y       z     vdW  Elec       q    Type
REMARK                         _______ _______ _______ _____ _____    ______ ____
ROOT
ATOM      1  N   UNL     1       8.464   8.049  18.639  0.00  0.00    +0.000 N 
ATOM      2  C   UNL     1       7.824   7.147  17.830  0.00  0.00    +0.000 C 
ATOM      3  O   UNL     1       7.263   7.507  16.793  0.00  0.00    +0.000 OA
ATOM      4  H   UNL     1       8.943   7.820  19.505  0.00  0.00    +0.000 HD
ENDROOT
BRANCH   2   5
ATOM      5  C   UNL     1       7.778   5.702  18.346  0.00  0.00    +0.000 C 
ATOM      6  C   UNL     1       7.404   4.628  17.304  0.00  0.00    +0.000 C 
ATOM      7  C   UNL     1       5.922   4.630  16.883  0.00  0.00    +0.000 C 
ATOM      8  N   UNL     1       5.066   4.821  18.040  0.00  0.00    +0.000 N 
ATOM      9  C   UNL     1       3.973   4.029  18.288  0.00  0.00    +0.000 A 
ATOM     10  N   UNL     1       3.432   4.075  19.517  0.00  0.00    +0.000 NA
ATOM     11  C   UNL     1       2.362   3.311  19.780  0.00  0.00    +0.000 A 
ATOM     12  C   UNL     1       1.787   2.491  18.851  0.00  0.00    +0.000 A 
ATOM     13  C   UNL     1       2.398   2.496  17.621  0.00  0.00    +0.000 A 
ATOM     14  N   UNL     1       3.483   3.237  17.321  0.00  0.00    +0.000 NA
ATOM     15  C   UNL     1       5.380   5.879  18.983  0.00  0.00    +0.000 C 
ATOM     16  C   UNL     1       6.786   5.618  19.513  0.00  0.00    +0.000 C 
ENDBRANCH   2   5
BRANCH   1  19
ATOM     17  O   UNL     1       9.487   9.960  20.211  0.00  0.00    +0.000 OA
ATOM     18  C   UNL     1       9.193  10.264  19.061  0.00  0.00    +0.000 C 
ATOM     19  N   UNL     1       8.635   9.361  18.177  0.00  0.00    +0.000 N 
ATOM     20  H   UNL     1       8.608   9.493  17.165  0.00  0.00    +0.000 HD
BRANCH  18  21
ATOM     21  C   UNL     1       9.448  11.633  18.557  0.00  0.00    +0.000 A 
ATOM     22  C   UNL     1      10.485  11.821  17.634  0.00  0.00    +0.000 A 
ATOM     23  C   UNL     1      10.783  13.097  17.161  0.00  0.00    +0.000 A 
ATOM     24  C   UNL     1      10.054  14.193  17.621  0.00  0.00    +0.000 A 
ATOM     25 CL   UNL     1      10.429  15.769  17.044  0.00  0.00    +0.000 Cl
ATOM     26  C   UNL     1       9.029  14.021  18.551  0.00  0.00    +0.000 A 
ATOM     27  C   UNL     1       8.721  12.736  19.021  0.00  0.00    +0.000 A 
ENDBRANCH  18  21
ENDBRANCH   1  19
TORSDOF 3
ENDMDL
MODEL 3
REMARK VINA RESULT:      -8.4      5.181      7.477
REMARK  Name = 
REMARK  3 active torsions:
REMARK  status: ('A' for Active; 'I' for Inactive)
REMARK    1  A    between atoms: C_2  and  C_19
REMARK    2  A    between atoms: N_3  and  N_4
REMARK    3  A    between atoms: C_5  and  C_7
REMARK                            x       y       z     vdW  Elec       q    Type
REMARK                         _______ _______ _______ _____ _____    ______ ____
ROOT
ATOM      1  N   UNL     1       7.374   7.087  17.628  0.00  0.00    +0.000 N 
ATOM      2  C   UNL     1       6.448   6.476  16.824  0.00  0.00    +0.000 C 
ATOM      3  O   UNL     1       5.773   7.125  16.022  0.00  0.00    +0.000 OA
ATOM      4  H   UNL     1       7.961   6.613  18.309  0.00  0.00    +0.000 HD
ENDROOT
BRANCH   2   5
ATOM      5  C   UNL     1       6.253   4.970  17.054  0.00  0.00    +0.000 C 
ATOM      6  C   UNL     1       4.996   4.349  16.410  0.00  0.00    +0.000 C 
ATOM      7  C   UNL     1       3.670   4.728  17.096  0.00  0.00    +0.000 C 
ATOM      8  N   UNL     1       3.816   4.691  18.540  0.00  0.00    +0.000 N 
ATOM      9  C   UNL     1       2.916   4.054  19.356  0.00  0.00    +0.000 A 
ATOM     10  N   UNL     1       3.286   3.806  20.624  0.00  0.00    +0.000 NA
ATOM     11  C   UNL     1       2.420   3.187  21.439  0.00  0.00    +0.000 A 
ATOM     12  C   UNL     1       1.170   2.802  21.044  0.00  0.00    +0.000 A 
ATOM     13  C   UNL     1       0.867   3.086  19.735  0.00  0.00    +0.000 A 
ATOM     14  N   UNL     1       1.714   3.693  18.880  0.00  0.00    +0.000 NA
ATOM     15  C   UNL     1       4.964   5.337  19.150  0.00  0.00    +0.000 C 
ATOM     16  C   UNL     1       6.217   4.696  18.563  0.00  0.00    +0.000 C 
ENDBRANCH   2   5
BRANCH   1  19
ATOM     17  O   UNL     1       8.934   8.474  19.305  0.00  0.00    +0.000 OA
ATOM     18  C   UNL     1       8.510   9.051  18.311  0.00  0.00    +0.000 C 
ATOM     19  N   UNL     1       7.678   8.436  17.396  0.00  0.00    +0.000 N 
ATOM     20  H   UNL     1       7.509   8.783  16.452  0.00  0.00    +0.000 HD
BRANCH  18  21
ATOM     21  C   UNL     1       8.898  10.454  18.034  0.00  0.00    +0.000 A 
ATOM     22  C   UNL     1      10.243  10.815  18.183  0.00  0.00    +0.000 A 
ATOM     23  C   UNL     1      10.647  12.131  17.968  0.00  0.00    +0.000 A 
ATOM     24  C   UNL     1       9.702  13.095  17.615  0.00  0.00    +0.000 A 
ATOM     25 CL   UNL     1      10.199  14.721  17.358  0.00  0.00    +0.000 Cl
ATOM     26  C   UNL     1       8.358  12.750  17.477  0.00  0.00    +0.000 A 
ATOM     27  C   UNL     1       7.952  11.425  17.684  0.00  0.00    +0.000 A 
ENDBRANCH  18  21
ENDBRANCH   1  19
TORSDOF 3
ENDMDL
MODEL 4
REMARK VINA RESULT:      -8.1      1.469      2.028
REMARK  Name = 
REMARK  3 active torsions:
REMARK  status: ('A' for Active; 'I' for Inactive)
REMARK    1  A    between atoms: C_2  and  C_19
REMARK    2  A    between atoms: N_3  and  N_4
REMARK    3  A    between atoms: C_5  and  C_7
REMARK                            x       y       z     vdW  Elec       q    Type
REMARK                         _______ _______ _______ _____ _____    ______ ____
ROOT
ATOM      1  N   UNL     1       3.492   6.076  19.812  0.00  0.00    +0.000 N 
ATOM      2  C   UNL     1       3.111   4.823  19.409  0.00  0.00    +0.000 C 
ATOM      3  O   UNL     1       1.927   4.480  19.430  0.00  0.00    +0.000 OA
ATOM      4  H   UNL     1       4.448   6.422  19.822  0.00  0.00    +0.000 HD
ENDROOT
BRANCH   2   5
ATOM      5  C   UNL     1       4.251   3.869  19.028  0.00  0.00    +0.000 C 
ATOM      6  C   UNL     1       5.652   4.506  18.916  0.00  0.00    +0.000 C 
ATOM      7  C   UNL     1       5.853   5.400  17.678  0.00  0.00    +0.000 C 
ATOM      8  N   UNL     1       5.261   4.784  16.505  0.00  0.00    +0.000 N 
ATOM      9  C   UNL     1       5.930   4.674  15.312  0.00  0.00    +0.000 A 
ATOM     10  N   UNL     1       5.435   3.829  14.391  0.00  0.00    +0.000 NA
ATOM     11  C   UNL     1       6.072   3.709  13.218  0.00  0.00    +0.000 A 
ATOM     12  C   UNL     1       7.201   4.414  12.907  0.00  0.00    +0.000 A 
ATOM     13  C   UNL     1       7.647   5.253  13.899  0.00  0.00    +0.000 A 
ATOM     14  N   UNL     1       7.044   5.391  15.097  0.00  0.00    +0.000 NA
ATOM     15  C   UNL     1       3.915   4.247  16.592  0.00  0.00    +0.000 C 
ATOM     16  C   UNL     1       3.913   3.192  17.693  0.00  0.00    +0.000 C 
ENDBRANCH   2   5
BRANCH   1  19
ATOM     17  O   UNL     1       2.936   8.025  18.062  0.00  0.00    +0.000 OA
ATOM     18  C   UNL     1       2.275   7.978  19.092  0.00  0.00    +0.000 C 
ATOM     19  N   UNL     1       2.497   7.029  20.071  0.00  0.00    +0.000 N 
ATOM     20  H   UNL     1       1.829   6.799  20.807  0.00  0.00    +0.000 HD
BRANCH  18  21
ATOM     21  C   UNL     1       1.174   8.942  19.324  0.00  0.00    +0.000 A 
ATOM     22  C   UNL     1       0.681   9.665  18.230  0.00  0.00    +0.000 A 
ATOM     23  C   UNL     1      -0.329  10.609  18.408  0.00  0.00    +0.000 A 
ATOM     24  C   UNL     1      -0.840  10.842  19.684  0.00  0.00    +0.000 A 
ATOM     25 CL   UNL     1      -2.080  12.014  19.905  0.00  0.00    +0.000 Cl
ATOM     26  C   UNL     1      -0.347  10.139  20.783  0.00  0.00    +0.000 A 
ATOM     27  C   UNL     1       0.662   9.182  20.604  0.00  0.00    +0.000 A 
ENDBRANCH  18  21
ENDBRANCH   1  19
TORSDOF 3
ENDMDL
MODEL 5
REMARK VINA RESULT:      -7.5      5.619      7.687
REMARK  Name = 
REMARK  3 active torsions:
REMARK  status: ('A' for Active; 'I' for Inactive)
REMARK    1  A    between atoms: C_2  and  C_19
REMARK    2  A    between atoms: N_3  and  N_4
REMARK    3  A    between atoms: C_5  and  C_7
REMARK                            x       y       z     vdW  Elec       q    Type
REMARK                         _______ _______ _______ _____ _____    ______ ____
ROOT
ATOM      1  N   UNL     1       7.633   7.869  17.213  0.00  0.00    +0.000 N 
ATOM      2  C   UNL     1       7.373   6.684  17.849  0.00  0.00    +0.000 C 
ATOM      3  O   UNL     1       8.005   6.348  18.853  0.00  0.00    +0.000 OA
ATOM      4  H   UNL     1       7.151   8.206  16.384  0.00  0.00    +0.000 HD
ENDROOT
BRANCH   2   5
ATOM      5  C   UNL     1       6.323   5.784  17.182  0.00  0.00    +0.000 C 
ATOM      6  C   UNL     1       4.908   6.384  17.052  0.00  0.00    +0.000 C 
ATOM      7  C   UNL     1       4.128   6.480  18.377  0.00  0.00    +0.000 C 
ATOM      8  N   UNL     1       4.316   5.276  19.165  0.00  0.00    +0.000 N 
ATOM      9  C   UNL     1       3.269   4.600  19.740  0.00  0.00    +0.000 A 
ATOM     10  N   UNL     1       3.496   3.350  20.180  0.00  0.00    +0.000 NA
ATOM     11  C   UNL     1       2.488   2.673  20.747  0.00  0.00    +0.000 A 
ATOM     12  C   UNL     1       1.237   3.198  20.910  0.00  0.00    +0.000 A 
ATOM     13  C   UNL     1       1.082   4.476  20.433  0.00  0.00    +0.000 A 
ATOM     14  N   UNL     1       2.065   5.185  19.843  0.00  0.00    +0.000 NA
ATOM     15  C   UNL     1       5.657   4.752  19.345  0.00  0.00    +0.000 C 
ATOM     16  C   UNL     1       6.227   4.465  17.960  0.00  0.00    +0.000 C 
ENDBRANCH   2   5
BRANCH   1  19
ATOM     17  O   UNL     1       7.179  10.507  17.112  0.00  0.00    +0.000 OA
ATOM     18  C   UNL     1       8.162  10.120  17.734  0.00  0.00    +0.000 C 
ATOM     19  N   UNL     1       8.500   8.784  17.826  0.00  0.00    +0.000 N 
ATOM     20  H   UNL     1       9.144   8.403  18.520  0.00  0.00    +0.000 HD
BRANCH  18  21
ATOM     21  C   UNL     1       9.031  11.088  18.443  0.00  0.00    +0.000 A 
ATOM     22  C   UNL     1       9.199  12.363  17.888  0.00  0.00    +0.000 A 
ATOM     23  C   UNL     1      10.036  13.292  18.502  0.00  0.00    +0.000 A 
ATOM     24  C   UNL     1      10.718  12.945  19.668  0.00  0.00    +0.000 A 
ATOM     25 CL   UNL     1      11.758  14.089  20.421  0.00  0.00    +0.000 Cl
ATOM     26  C   UNL     1      10.569  11.673  20.222  0.00  0.00    +0.000 A 
ATOM     27  C   UNL     1       9.720  10.740  19.611  0.00  0.00    +0.000 A 
ENDBRANCH  18  21
ENDBRANCH   1  19
TORSDOF 3
ENDMDL
MODEL 6
REMARK VINA RESULT:      -7.5      5.943      7.443
REMARK  Name = 
REMARK  3 active torsions:
REMARK  status: ('A' for Active; 'I' for Inactive)
REMARK    1  A    between atoms: C_2  and  C_19
REMARK    2  A    between atoms: N_3  and  N_4
REMARK    3  A    between atoms: C_5  and  C_7
REMARK                            x       y       z     vdW  Elec       q    Type
REMARK                         _______ _______ _______ _____ _____    ______ ____
ROOT
ATOM      1  N   UNL     1       7.634   8.577  17.567  0.00  0.00    +0.000 N 
ATOM      2  C   UNL     1       7.776   7.267  17.943  0.00  0.00    +0.000 C 
ATOM      3  O   UNL     1       8.328   6.965  19.003  0.00  0.00    +0.000 OA
ATOM      4  H   UNL     1       7.191   8.895  16.709  0.00  0.00    +0.000 HD
ENDROOT
BRANCH   2   5
ATOM      5  C   UNL     1       7.290   6.224  16.926  0.00  0.00    +0.000 C 
ATOM      6  C   UNL     1       5.935   6.524  16.252  0.00  0.00    +0.000 C 
ATOM      7  C   UNL     1       4.709   6.347  17.168  0.00  0.00    +0.000 C 
ATOM      8  N   UNL     1       4.848   5.149  17.976  0.00  0.00    +0.000 N 
ATOM      9  C   UNL     1       3.842   4.225  18.104  0.00  0.00    +0.000 A 
ATOM     10  N   UNL     1       4.158   3.018  18.605  0.00  0.00    +0.000 NA
ATOM     11  C   UNL     1       3.190   2.102  18.741  0.00  0.00    +0.000 A 
ATOM     12  C   UNL     1       1.888   2.338  18.400  0.00  0.00    +0.000 A 
ATOM     13  C   UNL     1       1.644   3.590  17.892  0.00  0.00    +0.000 A 
ATOM     14  N   UNL     1       2.592   4.534  17.726  0.00  0.00    +0.000 NA
ATOM     15  C   UNL     1       6.101   4.904  18.667  0.00  0.00    +0.000 C 
ATOM     16  C   UNL     1       7.203   4.856  17.614  0.00  0.00    +0.000 C 
ENDBRANCH   2   5
BRANCH   1  19
ATOM     17  O   UNL     1       9.762  10.165  17.217  0.00  0.00    +0.000 OA
ATOM     18  C   UNL     1       9.063  10.357  18.204  0.00  0.00    +0.000 C 
ATOM     19  N   UNL     1       7.958   9.580  18.492  0.00  0.00    +0.000 N 
ATOM     20  H   UNL     1       7.221   9.851  19.144  0.00  0.00    +0.000 HD
BRANCH  18  21
ATOM     21  C   UNL     1       9.368  11.468  19.136  0.00  0.00    +0.000 A 
ATOM     22  C   UNL     1       9.409  12.773  18.628  0.00  0.00    +0.000 A 
ATOM     23  C   UNL     1       9.727  13.843  19.461  0.00  0.00    +0.000 A 
ATOM     24  C   UNL     1      10.019  13.610  20.804  0.00  0.00    +0.000 A 
ATOM     25 CL   UNL     1      10.421  14.931  21.830  0.00  0.00    +0.000 Cl
ATOM     26  C   UNL     1       9.996  12.314  21.319  0.00  0.00    +0.000 A 
ATOM     27  C   UNL     1       9.666  11.237  20.484  0.00  0.00    +0.000 A 
ENDBRANCH  18  21
ENDBRANCH   1  19
TORSDOF 3
ENDMDL
MODEL 7
REMARK VINA RESULT:      -7.4      5.832      7.351
REMARK  Name = 
REMARK  3 active torsions:
REMARK  status: ('A' for Active; 'I' for Inactive)
REMARK    1  A    between atoms: C_2  and  C_19
REMARK    2  A    between atoms: N_3  and  N_4
REMARK    3  A    between atoms: C_5  and  C_7
REMARK                            x       y       z     vdW  Elec       q    Type
REMARK                         _______ _______ _______ _____ _____    ______ ____
ROOT
ATOM      1  N   UNL     1       8.270   8.447  18.009  0.00  0.00    +0.000 N 
ATOM      2  C   UNL     1       7.360   7.644  17.375  0.00  0.00    +0.000 C 
ATOM      3  O   UNL     1       6.302   8.102  16.937  0.00  0.00    +0.000 OA
ATOM      4  H   UNL     1       9.158   8.135  18.394  0.00  0.00    +0.000 HD
ENDROOT
BRANCH   2   5
ATOM      5  C   UNL     1       7.704   6.148  17.333  0.00  0.00    +0.000 C 
ATOM      6  C   UNL     1       6.976   5.322  16.252  0.00  0.00    +0.000 C 
ATOM      7  C   UNL     1       5.483   5.071  16.533  0.00  0.00    +0.000 C 
ATOM      8  N   UNL     1       5.277   4.743  17.932  0.00  0.00    +0.000 N 
ATOM      9  C   UNL     1       4.519   3.673  18.335  0.00  0.00    +0.000 A 
ATOM     10  N   UNL     1       4.637   3.266  19.612  0.00  0.00    +0.000 NA
ATOM     11  C   UNL     1       3.904   2.224  20.027  0.00  0.00    +0.000 A 
ATOM     12  C   UNL     1       3.031   1.557  19.214  0.00  0.00    +0.000 A 
ATOM     13  C   UNL     1       2.970   2.027  17.925  0.00  0.00    +0.000 A 
ATOM     14  N   UNL     1       3.701   3.062  17.465  0.00  0.00    +0.000 NA
ATOM     15  C   UNL     1       5.906   5.566  18.950  0.00  0.00    +0.000 C 
ATOM     16  C   UNL     1       7.411   5.528  18.704  0.00  0.00    +0.000 C 
ENDBRANCH   2   5
BRANCH   1  19
ATOM     17  O   UNL     1       9.984  10.123  19.204  0.00  0.00    +0.000 OA
ATOM     18  C   UNL     1       9.025  10.610  18.616  0.00  0.00    +0.000 C 
ATOM     19  N   UNL     1       8.069   9.835  17.990  0.00  0.00    +0.000 N 
ATOM     20  H   UNL     1       7.412  10.188  17.294  0.00  0.00    +0.000 HD
BRANCH  18  21
ATOM     21  C   UNL     1       8.862  12.081  18.535  0.00  0.00    +0.000 A 
ATOM     22  C   UNL     1       8.067  12.607  17.508  0.00  0.00    +0.000 A 
ATOM     23  C   UNL     1       7.915  13.985  17.372  0.00  0.00    +0.000 A 
ATOM     24  C   UNL     1       8.569  14.843  18.256  0.00  0.00    +0.000 A 
ATOM     25 CL   UNL     1       8.388  16.545  18.082  0.00  0.00    +0.000 Cl
ATOM     26  C   UNL     1       9.375  14.332  19.274  0.00  0.00    +0.000 A 
ATOM     27  C   UNL     1       9.521  12.945  19.418  0.00  0.00    +0.000 A 
ENDBRANCH  18  21
ENDBRANCH   1  19
TORSDOF 3
ENDMDL
MODEL 8
REMARK VINA RESULT:      -7.3      1.798      2.634
REMARK  Name = 
REMARK  3 active torsions:
REMARK  status: ('A' for Active; 'I' for Inactive)
REMARK    1  A    between atoms: C_2  and  C_19
REMARK    2  A    between atoms: N_3  and  N_4
REMARK    3  A    between atoms: C_5  and  C_7
REMARK                            x       y       z     vdW  Elec       q    Type
REMARK                         _______ _______ _______ _____ _____    ______ ____
ROOT
ATOM      1  N   UNL     1       3.542   5.164  19.219  0.00  0.00    +0.000 N 
ATOM      2  C   UNL     1       4.907   5.274  19.217  0.00  0.00    +0.000 C 
ATOM      3  O   UNL     1       5.466   6.283  19.654  0.00  0.00    +0.000 OA
ATOM      4  H   UNL     1       3.019   4.363  18.874  0.00  0.00    +0.000 HD
ENDROOT
BRANCH   2   5
ATOM      5  C   UNL     1       5.670   4.115  18.560  0.00  0.00    +0.000 C 
ATOM      6  C   UNL     1       7.103   4.436  18.087  0.00  0.00    +0.000 C 
ATOM      7  C   UNL     1       7.179   5.328  16.833  0.00  0.00    +0.000 C 
ATOM      8  N   UNL     1       6.186   4.917  15.856  0.00  0.00    +0.000 N 
ATOM      9  C   UNL     1       6.490   4.726  14.532  0.00  0.00    +0.000 A 
ATOM     10  N   UNL     1       5.602   4.057  13.775  0.00  0.00    +0.000 NA
ATOM     11  C   UNL     1       5.878   3.861  12.479  0.00  0.00    +0.000 A 
ATOM     12  C   UNL     1       7.019   4.319  11.883  0.00  0.00    +0.000 A 
ATOM     13  C   UNL     1       7.878   4.988  12.720  0.00  0.00    +0.000 A 
ATOM     14  N   UNL     1       7.645   5.192  14.032  0.00  0.00    +0.000 NA
ATOM     15  C   UNL     1       4.822   4.683  16.292  0.00  0.00    +0.000 C 
ATOM     16  C   UNL     1       4.862   3.598  17.364  0.00  0.00    +0.000 C 
ENDBRANCH   2   5
BRANCH   1  19
ATOM     17  O   UNL     1       2.720   7.400  17.995  0.00  0.00    +0.000 OA
ATOM     18  C   UNL     1       2.398   7.239  19.166  0.00  0.00    +0.000 C 
ATOM     19  N   UNL     1       2.791   6.135  19.897  0.00  0.00    +0.000 N 
ATOM     20  H   UNL     1       2.353   5.841  20.770  0.00  0.00    +0.000 HD
BRANCH  18  21
ATOM     21  C   UNL     1       1.540   8.233  19.853  0.00  0.00    +0.000 A 
ATOM     22  C   UNL     1       1.164   9.386  19.152  0.00  0.00    +0.000 A 
ATOM     23  C   UNL     1       0.388  10.364  19.771  0.00  0.00    +0.000 A 
ATOM     24  C   UNL     1      -0.005  10.197  21.098  0.00  0.00    +0.000 A 
ATOM     25 CL   UNL     1      -0.955  11.408  21.865  0.00  0.00    +0.000 Cl
ATOM     26  C   UNL     1       0.375   9.060  21.811  0.00  0.00    +0.000 A 
ATOM     27  C   UNL     1       1.148   8.071  21.187  0.00  0.00    +0.000 A 
ENDBRANCH  18  21
ENDBRANCH   1  19
TORSDOF 3
ENDMDL
MODEL 9
REMARK VINA RESULT:      -7.2      7.576      9.736
REMARK  Name = 
REMARK  3 active torsions:
REMARK  status: ('A' for Active; 'I' for Inactive)
REMARK    1  A    between atoms: C_2  and  C_19
REMARK    2  A    between atoms: N_3  and  N_4
REMARK    3  A    between atoms: C_5  and  C_7
REMARK                            x       y       z     vdW  Elec       q    Type
REMARK                         _______ _______ _______ _____ _____    ______ ____
ROOT
ATOM      1  N   UNL     1       8.692   8.148  18.651  0.00  0.00    +0.000 N 
ATOM      2  C   UNL     1       8.671   9.511  18.510  0.00  0.00    +0.000 C 
ATOM      3  O   UNL     1       7.796  10.069  17.846  0.00  0.00    +0.000 OA
ATOM      4  H   UNL     1       9.384   7.626  19.182  0.00  0.00    +0.000 HD
ENDROOT
BRANCH   2   5
ATOM      5  C   UNL     1       9.846  10.267  19.149  0.00  0.00    +0.000 C 
ATOM      6  C   UNL     1       9.512  11.075  20.420  0.00  0.00    +0.000 C 
ATOM      7  C   UNL     1       8.695  12.356  20.169  0.00  0.00    +0.000 C 
ATOM      8  N   UNL     1       9.190  13.054  18.996  0.00  0.00    +0.000 N 
ATOM      9  C   UNL     1       9.451  14.401  18.995  0.00  0.00    +0.000 A 
ATOM     10  N   UNL     1      10.188  14.896  17.985  0.00  0.00    +0.000 NA
ATOM     11  C   UNL     1      10.452  16.210  17.963  0.00  0.00    +0.000 A 
ATOM     12  C   UNL     1       9.998  17.077  18.917  0.00  0.00    +0.000 A 
ATOM     13  C   UNL     1       9.257  16.496  19.917  0.00  0.00    +0.000 A 
ATOM     14  N   UNL     1       8.982  15.178  19.983  0.00  0.00    +0.000 NA
ATOM     15  C   UNL     1       9.437  12.302  17.779  0.00  0.00    +0.000 C 
ATOM     16  C   UNL     1      10.455  11.216  18.109  0.00  0.00    +0.000 C 
ENDBRANCH   2   5
BRANCH   1  19
ATOM     17  O   UNL     1       8.233   5.650  19.500  0.00  0.00    +0.000 OA
ATOM     18  C   UNL     1       7.438   6.138  18.705  0.00  0.00    +0.000 C 
ATOM     19  N   UNL     1       7.597   7.408  18.185  0.00  0.00    +0.000 N 
ATOM     20  H   UNL     1       6.852   7.937  17.731  0.00  0.00    +0.000 HD
BRANCH  18  21
ATOM     21  C   UNL     1       6.241   5.378  18.276  0.00  0.00    +0.000 A 
ATOM     22  C   UNL     1       5.176   5.249  19.177  0.00  0.00    +0.000 A 
ATOM     23  C   UNL     1       4.046   4.512  18.829  0.00  0.00    +0.000 A 
ATOM     24  C   UNL     1       3.982   3.890  17.583  0.00  0.00    +0.000 A 
ATOM     25 CL   UNL     1       2.590   2.973  17.158  0.00  0.00    +0.000 Cl
ATOM     26  C   UNL     1       5.042   3.999  16.683  0.00  0.00    +0.000 A 
ATOM     27  C   UNL     1       6.176   4.748  17.028  0.00  0.00    +0.000 A 
ENDBRANCH  18  21
ENDBRANCH   1  19
TORSDOF 3
ENDMDL
