MODEL 1
REMARK VINA RESULT:      -8.1      0.000      0.000
REMARK  Name = 
REMARK  4 active torsions:
REMARK  status: ('A' for Active; 'I' for Inactive)
REMARK    1  A    between atoms: C_5  and  C_6
REMARK    2  A    between atoms: C_12  and  C_13
REMARK    3  A    between atoms: N_15  and  N_16
REMARK    4  A    between atoms: C_17  and  C_18
REMARK                            x       y       z     vdW  Elec       q    Type
REMARK                         _______ _______ _______ _____ _____    ______ ____
ROOT
ATOM      1  O   UNL     1       7.470   5.608  15.277  0.00  0.00    +0.000 OA
ATOM      2  C   UNL     1       6.742   4.954  15.996  0.00  0.00    +0.000 C 
ATOM      3  N   UNL     1       5.715   4.138  15.558  0.00  0.00    +0.000 N 
ATOM      4  C   UNL     1       4.997   3.526  16.645  0.00  0.00    +0.000 C 
ATOM      5  C   UNL     1       5.380   4.374  17.865  0.00  0.00    +0.000 C 
ATOM      6  C   UNL     1       6.811   4.837  17.495  0.00  0.00    +0.000 C 
ATOM      7  H   UNL     1       5.489   4.052  14.574  0.00  0.00    +0.000 HD
ENDROOT
BRANCH   5   8
ATOM      8  C   UNL     1       4.393   5.506  18.124  0.00  0.00    +0.000 A 
ATOM      9  C   UNL     1       3.631   5.491  19.302  0.00  0.00    +0.000 A 
ATOM     10  C   UNL     1       2.746   6.532  19.592  0.00  0.00    +0.000 A 
ATOM     11  C   UNL     1       2.604   7.599  18.709  0.00  0.00    +0.000 A 
ATOM     12  C   UNL     1       3.339   7.621  17.529  0.00  0.00    +0.000 A 
ATOM     13  C   UNL     1       4.227   6.585  17.240  0.00  0.00    +0.000 A 
ENDBRANCH   5   8
BRANCH   6  14
ATOM     14  C   UNL     1       7.352   5.996  18.290  0.00  0.00    +0.000 C 
ATOM     15  O   UNL     1       7.589   5.838  19.495  0.00  0.00    +0.000 OA
ATOM     16  N   UNL     1       7.640   7.166  17.603  0.00  0.00    +0.000 N 
ATOM     17  H   UNL     1       7.366   7.298  16.630  0.00  0.00    +0.000 HD
BRANCH  16  18
ATOM     18  N   UNL     1       8.252   8.163  18.297  0.00  0.00    +0.000 NA
ATOM     19  C   UNL     1       8.337   9.339  17.772  0.00  0.00    +0.000 C 
BRANCH  19  20
ATOM     20  C   UNL     1       8.919  10.390  18.578  0.00  0.00    +0.000 A 
ATOM     21  C   UNL     1       9.370  10.306  19.886  0.00  0.00    +0.000 A 
ATOM     22  C   UNL     1       9.772  11.571  20.405  0.00  0.00    +0.000 A 
ATOM     23  C   UNL     1       9.619  12.554  19.462  0.00  0.00    +0.000 A 
ATOM     24 CL   UNL     1       9.921  14.230  19.678  0.00  0.00    +0.000 Cl
ATOM     25  S   UNL     1       9.058  11.981  17.968  0.00  0.00    +0.000 S 
ENDBRANCH  19  20
ENDBRANCH  16  18
ENDBRANCH   6  14
TORSDOF 4
ENDMDL
MODEL 2
REMARK VINA RESULT:      -8.0      0.121      1.011
REMARK  Name = 
REMARK  4 active torsions:
REMARK  status: ('A' for Active; 'I' for Inactive)
REMARK    1  A    between atoms: C_5  and  C_6
REMARK    2  A    between atoms: C_12  and  C_13
REMARK    3  A    between atoms: N_15  and  N_16
REMARK    4  A    between atoms: C_17  and  C_18
REMARK                            x       y       z     vdW  Elec       q    Type
REMARK                         _______ _______ _______ _____ _____    ______ ____
ROOT
ATOM      1  O   UNL     1       7.397   5.798  15.233  0.00  0.00    +0.000 OA
ATOM      2  C   UNL     1       6.703   5.113  15.957  0.00  0.00    +0.000 C 
ATOM      3  N   UNL     1       5.672   4.297  15.529  0.00  0.00    +0.000 N 
ATOM      4  C   UNL     1       4.999   3.642  16.621  0.00  0.00    +0.000 C 
ATOM      5  C   UNL     1       5.415   4.458  17.853  0.00  0.00    +0.000 C 
ATOM      6  C   UNL     1       6.826   4.952  17.448  0.00  0.00    +0.000 C 
ATOM      7  H   UNL     1       5.412   4.238  14.552  0.00  0.00    +0.000 HD
ENDROOT
BRANCH   5   8
ATOM      8  C   UNL     1       4.423   5.568  18.181  0.00  0.00    +0.000 A 
ATOM      9  C   UNL     1       4.242   6.616  17.265  0.00  0.00    +0.000 A 
ATOM     10  C   UNL     1       3.314   7.628  17.514  0.00  0.00    +0.000 A 
ATOM     11  C   UNL     1       2.557   7.615  18.683  0.00  0.00    +0.000 A 
ATOM     12  C   UNL     1       2.735   6.594  19.610  0.00  0.00    +0.000 A 
ATOM     13  C   UNL     1       3.658   5.578  19.360  0.00  0.00    +0.000 A 
ENDBRANCH   5   8
BRANCH   6  14
ATOM     14  C   UNL     1       7.380   6.094  18.260  0.00  0.00    +0.000 C 
ATOM     15  O   UNL     1       7.686   5.895  19.442  0.00  0.00    +0.000 OA
ATOM     16  N   UNL     1       7.599   7.296  17.606  0.00  0.00    +0.000 N 
ATOM     17  H   UNL     1       7.270   7.459  16.655  0.00  0.00    +0.000 HD
BRANCH  16  18
ATOM     18  N   UNL     1       8.223   8.283  18.306  0.00  0.00    +0.000 NA
ATOM     19  C   UNL     1       8.391   9.438  17.757  0.00  0.00    +0.000 C 
BRANCH  19  20
ATOM     20  C   UNL     1       8.982  10.482  18.566  0.00  0.00    +0.000 A 
ATOM     21  C   UNL     1       9.510  10.372  19.842  0.00  0.00    +0.000 A 
ATOM     22  C   UNL     1       9.896  11.632  20.382  0.00  0.00    +0.000 A 
ATOM     23  C   UNL     1       9.656  12.640  19.485  0.00  0.00    +0.000 A 
ATOM     24 CL   UNL     1       9.911  14.318  19.743  0.00  0.00    +0.000 Cl
ATOM     25  S   UNL     1       9.030  12.097  18.006  0.00  0.00    +0.000 S 
ENDBRANCH  19  20
ENDBRANCH  16  18
ENDBRANCH   6  14
TORSDOF 4
ENDMDL
MODEL 3
REMARK VINA RESULT:      -7.6      0.849      1.032
REMARK  Name = 
REMARK  4 active torsions:
REMARK  status: ('A' for Active; 'I' for Inactive)
REMARK    1  A    between atoms: C_5  and  C_6
REMARK    2  A    between atoms: C_12  and  C_13
REMARK    3  A    between atoms: N_15  and  N_16
REMARK    4  A    between atoms: C_17  and  C_18
REMARK                            x       y       z     vdW  Elec       q    Type
REMARK                         _______ _______ _______ _____ _____    ______ ____
ROOT
ATOM      1  O   UNL     1       7.500   5.501  15.213  0.00  0.00    +0.000 OA
ATOM      2  C   UNL     1       6.809   4.875  15.992  0.00  0.00    +0.000 C 
ATOM      3  N   UNL     1       5.807   3.992  15.633  0.00  0.00    +0.000 N 
ATOM      4  C   UNL     1       5.129   3.435  16.775  0.00  0.00    +0.000 C 
ATOM      5  C   UNL     1       5.500   4.384  17.923  0.00  0.00    +0.000 C 
ATOM      6  C   UNL     1       6.906   4.871  17.493  0.00  0.00    +0.000 C 
ATOM      7  H   UNL     1       5.568   3.826  14.662  0.00  0.00    +0.000 HD
ENDROOT
BRANCH   5   8
ATOM      8  C   UNL     1       4.475   5.495  18.117  0.00  0.00    +0.000 A 
ATOM      9  C   UNL     1       3.712   5.523  19.294  0.00  0.00    +0.000 A 
ATOM     10  C   UNL     1       2.793   6.548  19.525  0.00  0.00    +0.000 A 
ATOM     11  C   UNL     1       2.615   7.557  18.582  0.00  0.00    +0.000 A 
ATOM     12  C   UNL     1       3.350   7.536  17.401  0.00  0.00    +0.000 A 
ATOM     13  C   UNL     1       4.273   6.516  17.172  0.00  0.00    +0.000 A 
ENDBRANCH   5   8
BRANCH   6  14
ATOM     14  C   UNL     1       7.416   6.105  18.192  0.00  0.00    +0.000 C 
ATOM     15  O   UNL     1       7.699   6.038  19.395  0.00  0.00    +0.000 OA
ATOM     16  N   UNL     1       7.623   7.238  17.421  0.00  0.00    +0.000 N 
ATOM     17  H   UNL     1       7.311   7.293  16.451  0.00  0.00    +0.000 HD
BRANCH  16  18
ATOM     18  N   UNL     1       8.208   8.307  18.026  0.00  0.00    +0.000 NA
ATOM     19  C   UNL     1       8.089   9.477  17.496  0.00  0.00    +0.000 C 
BRANCH  19  20
ATOM     20  C   UNL     1       8.653  10.597  18.217  0.00  0.00    +0.000 A 
ATOM     21  C   UNL     1       8.736  11.918  17.804  0.00  0.00    +0.000 A 
ATOM     22  C   UNL     1       9.466  12.729  18.721  0.00  0.00    +0.000 A 
ATOM     23  C   UNL     1       9.891  11.990  19.793  0.00  0.00    +0.000 A 
ATOM     24 CL   UNL     1      10.854  12.548  21.100  0.00  0.00    +0.000 Cl
ATOM     25  S   UNL     1       9.391  10.370  19.743  0.00  0.00    +0.000 S 
ENDBRANCH  19  20
ENDBRANCH  16  18
ENDBRANCH   6  14
TORSDOF 4
ENDMDL
MODEL 4
REMARK VINA RESULT:      -7.3      4.615      6.541
REMARK  Name = 
REMARK  4 active torsions:
REMARK  status: ('A' for Active; 'I' for Inactive)
REMARK    1  A    between atoms: C_5  and  C_6
REMARK    2  A    between atoms: C_12  and  C_13
REMARK    3  A    between atoms: N_15  and  N_16
REMARK    4  A    between atoms: C_17  and  C_18
REMARK                            x       y       z     vdW  Elec       q    Type
REMARK                         _______ _______ _______ _____ _____    ______ ____
ROOT
ATOM      1  O   UNL     1       2.613   3.640  20.760  0.00  0.00    +0.000 OA
ATOM      2  C   UNL     1       2.992   3.627  19.607  0.00  0.00    +0.000 C 
ATOM      3  N   UNL     1       3.774   2.637  19.038  0.00  0.00    +0.000 N 
ATOM      4  C   UNL     1       4.104   2.917  17.665  0.00  0.00    +0.000 C 
ATOM      5  C   UNL     1       3.822   4.418  17.517  0.00  0.00    +0.000 C 
ATOM      6  C   UNL     1       2.671   4.629  18.532  0.00  0.00    +0.000 C 
ATOM      7  H   UNL     1       4.107   1.847  19.579  0.00  0.00    +0.000 HD
ENDROOT
BRANCH   5   8
ATOM      8  C   UNL     1       5.057   5.274  17.770  0.00  0.00    +0.000 A 
ATOM      9  C   UNL     1       5.898   4.958  18.848  0.00  0.00    +0.000 A 
ATOM     10  C   UNL     1       7.060   5.695  19.087  0.00  0.00    +0.000 A 
ATOM     11  C   UNL     1       7.397   6.762  18.258  0.00  0.00    +0.000 A 
ATOM     12  C   UNL     1       6.567   7.100  17.195  0.00  0.00    +0.000 A 
ATOM     13  C   UNL     1       5.409   6.362  16.952  0.00  0.00    +0.000 A 
ENDBRANCH   5   8
BRANCH   6  14
ATOM     14  C   UNL     1       2.398   6.057  18.928  0.00  0.00    +0.000 C 
ATOM     15  O   UNL     1       2.252   6.908  18.041  0.00  0.00    +0.000 OA
ATOM     16  N   UNL     1       2.239   6.328  20.278  0.00  0.00    +0.000 N 
ATOM     17  H   UNL     1       2.439   5.629  20.994  0.00  0.00    +0.000 HD
BRANCH  16  18
ATOM     18  N   UNL     1       1.861   7.589  20.623  0.00  0.00    +0.000 NA
ATOM     19  C   UNL     1       0.698   7.779  21.147  0.00  0.00    +0.000 C 
BRANCH  19  20
ATOM     20  C   UNL     1       0.371   9.121  21.576  0.00  0.00    +0.000 A 
ATOM     21  C   UNL     1      -0.299   9.506  22.727  0.00  0.00    +0.000 A 
ATOM     22  C   UNL     1      -0.553  10.908  22.765  0.00  0.00    +0.000 A 
ATOM     23  C   UNL     1      -0.053  11.524  21.649  0.00  0.00    +0.000 A 
ATOM     24 CL   UNL     1      -0.190  13.189  21.254  0.00  0.00    +0.000 Cl
ATOM     25  S   UNL     1       0.752  10.468  20.594  0.00  0.00    +0.000 S 
ENDBRANCH  19  20
ENDBRANCH  16  18
ENDBRANCH   6  14
TORSDOF 4
ENDMDL
MODEL 5
REMARK VINA RESULT:      -7.1      4.365      6.392
REMARK  Name = 
REMARK  4 active torsions:
REMARK  status: ('A' for Active; 'I' for Inactive)
REMARK    1  A    between atoms: C_5  and  C_6
REMARK    2  A    between atoms: C_12  and  C_13
REMARK    3  A    between atoms: N_15  and  N_16
REMARK    4  A    between atoms: C_17  and  C_18
REMARK                            x       y       z     vdW  Elec       q    Type
REMARK                         _______ _______ _______ _____ _____    ______ ____
ROOT
ATOM      1  O   UNL     1       2.917   3.608  19.991  0.00  0.00    +0.000 OA
ATOM      2  C   UNL     1       3.427   3.739  18.897  0.00  0.00    +0.000 C 
ATOM      3  N   UNL     1       4.264   2.816  18.295  0.00  0.00    +0.000 N 
ATOM      4  C   UNL     1       4.752   3.267  17.018  0.00  0.00    +0.000 C 
ATOM      5  C   UNL     1       4.498   4.780  17.039  0.00  0.00    +0.000 C 
ATOM      6  C   UNL     1       3.239   4.880  17.935  0.00  0.00    +0.000 C 
ATOM      7  H   UNL     1       4.527   1.955  18.760  0.00  0.00    +0.000 HD
ENDROOT
BRANCH   5   8
ATOM      8  C   UNL     1       5.700   5.569  17.543  0.00  0.00    +0.000 A 
ATOM      9  C   UNL     1       6.082   6.739  16.870  0.00  0.00    +0.000 A 
ATOM     10  C   UNL     1       7.154   7.508  17.327  0.00  0.00    +0.000 A 
ATOM     11  C   UNL     1       7.865   7.118  18.459  0.00  0.00    +0.000 A 
ATOM     12  C   UNL     1       7.512   5.952  19.129  0.00  0.00    +0.000 A 
ATOM     13  C   UNL     1       6.438   5.186  18.677  0.00  0.00    +0.000 A 
ENDBRANCH   5   8
BRANCH   6  14
ATOM     14  C   UNL     1       2.930   6.249  18.484  0.00  0.00    +0.000 C 
ATOM     15  O   UNL     1       2.972   7.224  17.722  0.00  0.00    +0.000 OA
ATOM     16  N   UNL     1       2.526   6.333  19.807  0.00  0.00    +0.000 N 
ATOM     17  H   UNL     1       2.572   5.530  20.435  0.00  0.00    +0.000 HD
BRANCH  16  18
ATOM     18  N   UNL     1       2.120   7.550  20.261  0.00  0.00    +0.000 NA
ATOM     19  C   UNL     1       0.970   7.659  20.834  0.00  0.00    +0.000 C 
BRANCH  19  20
ATOM     20  C   UNL     1       0.614   8.952  21.377  0.00  0.00    +0.000 A 
ATOM     21  C   UNL     1      -0.060   9.222  22.557  0.00  0.00    +0.000 A 
ATOM     22  C   UNL     1      -0.345  10.609  22.717  0.00  0.00    +0.000 A 
ATOM     23  C   UNL     1       0.139  11.329  21.657  0.00  0.00    +0.000 A 
ATOM     24 CL   UNL     1      -0.035  13.019  21.407  0.00  0.00    +0.000 Cl
ATOM     25  S   UNL     1       0.963  10.386  20.514  0.00  0.00    +0.000 S 
ENDBRANCH  19  20
ENDBRANCH  16  18
ENDBRANCH   6  14
TORSDOF 4
ENDMDL
MODEL 6
REMARK VINA RESULT:      -7.1      4.655      6.238
REMARK  Name = 
REMARK  4 active torsions:
REMARK  status: ('A' for Active; 'I' for Inactive)
REMARK    1  A    between atoms: C_5  and  C_6
REMARK    2  A    between atoms: C_12  and  C_13
REMARK    3  A    between atoms: N_15  and  N_16
REMARK    4  A    between atoms: C_17  and  C_18
REMARK                            x       y       z     vdW  Elec       q    Type
REMARK                         _______ _______ _______ _____ _____    ______ ____
ROOT
ATOM      1  O   UNL     1       4.961   6.909  15.376  0.00  0.00    +0.000 OA
ATOM      2  C   UNL     1       5.486   6.225  16.231  0.00  0.00    +0.000 C 
ATOM      3  N   UNL     1       6.438   5.250  15.995  0.00  0.00    +0.000 N 
ATOM      4  C   UNL     1       6.843   4.573  17.200  0.00  0.00    +0.000 C 
ATOM      5  C   UNL     1       5.730   4.906  18.202  0.00  0.00    +0.000 C 
ATOM      6  C   UNL     1       5.272   6.305  17.718  0.00  0.00    +0.000 C 
ATOM      7  H   UNL     1       6.748   5.026  15.057  0.00  0.00    +0.000 HD
ENDROOT
BRANCH   5   8
ATOM      8  C   UNL     1       4.630   3.852  18.227  0.00  0.00    +0.000 A 
ATOM      9  C   UNL     1       4.467   3.061  19.374  0.00  0.00    +0.000 A 
ATOM     10  C   UNL     1       3.445   2.113  19.448  0.00  0.00    +0.000 A 
ATOM     11  C   UNL     1       2.574   1.934  18.376  0.00  0.00    +0.000 A 
ATOM     12  C   UNL     1       2.732   2.697  17.224  0.00  0.00    +0.000 A 
ATOM     13  C   UNL     1       3.749   3.648  17.152  0.00  0.00    +0.000 A 
ENDBRANCH   5   8
BRANCH   6  14
ATOM     14  C   UNL     1       3.938   6.775  18.237  0.00  0.00    +0.000 C 
ATOM     15  O   UNL     1       3.552   6.378  19.344  0.00  0.00    +0.000 OA
ATOM     16  N   UNL     1       3.247   7.704  17.475  0.00  0.00    +0.000 N 
ATOM     17  H   UNL     1       3.546   7.958  16.534  0.00  0.00    +0.000 HD
BRANCH  16  18
ATOM     18  N   UNL     1       2.109   8.227  18.008  0.00  0.00    +0.000 NA
ATOM     19  C   UNL     1       1.874   9.489  17.884  0.00  0.00    +0.000 C 
BRANCH  19  20
ATOM     20  C   UNL     1       0.614   9.987  18.391  0.00  0.00    +0.000 A 
ATOM     21  C   UNL     1      -0.632   9.914  17.789  0.00  0.00    +0.000 A 
ATOM     22  C   UNL     1      -1.632  10.618  18.520  0.00  0.00    +0.000 A 
ATOM     23  C   UNL     1      -1.101  11.181  19.651  0.00  0.00    +0.000 A 
ATOM     24 CL   UNL     1      -1.931  12.166  20.786  0.00  0.00    +0.000 Cl
ATOM     25  S   UNL     1       0.545  10.839  19.872  0.00  0.00    +0.000 S 
ENDBRANCH  19  20
ENDBRANCH  16  18
ENDBRANCH   6  14
TORSDOF 4
ENDMDL
MODEL 7
REMARK VINA RESULT:      -7.1      4.939      6.602
REMARK  Name = 
REMARK  4 active torsions:
REMARK  status: ('A' for Active; 'I' for Inactive)
REMARK    1  A    between atoms: C_5  and  C_6
REMARK    2  A    between atoms: C_12  and  C_13
REMARK    3  A    between atoms: N_15  and  N_16
REMARK    4  A    between atoms: C_17  and  C_18
REMARK                            x       y       z     vdW  Elec       q    Type
REMARK                         _______ _______ _______ _____ _____    ______ ____
ROOT
ATOM      1  O   UNL     1       2.555   4.206  21.320  0.00  0.00    +0.000 OA
ATOM      2  C   UNL     1       2.924   3.957  20.190  0.00  0.00    +0.000 C 
ATOM      3  N   UNL     1       3.691   2.864  19.827  0.00  0.00    +0.000 N 
ATOM      4  C   UNL     1       4.012   2.859  18.424  0.00  0.00    +0.000 C 
ATOM      5  C   UNL     1       3.744   4.303  17.979  0.00  0.00    +0.000 C 
ATOM      6  C   UNL     1       2.605   4.728  18.938  0.00  0.00    +0.000 C 
ATOM      7  H   UNL     1       4.019   2.195  20.513  0.00  0.00    +0.000 HD
ENDROOT
BRANCH   5   8
ATOM      8  C   UNL     1       4.991   5.177  18.048  0.00  0.00    +0.000 A 
ATOM      9  C   UNL     1       5.909   4.977  19.090  0.00  0.00    +0.000 A 
ATOM     10  C   UNL     1       7.082   5.732  19.162  0.00  0.00    +0.000 A 
ATOM     11  C   UNL     1       7.353   6.702  18.201  0.00  0.00    +0.000 A 
ATOM     12  C   UNL     1       6.446   6.926  17.171  0.00  0.00    +0.000 A 
ATOM     13  C   UNL     1       5.277   6.169  17.094  0.00  0.00    +0.000 A 
ENDBRANCH   5   8
BRANCH   6  14
ATOM     14  C   UNL     1       2.351   6.209  19.041  0.00  0.00    +0.000 C 
ATOM     15  O   UNL     1       2.229   6.870  18.002  0.00  0.00    +0.000 OA
ATOM     16  N   UNL     1       2.179   6.742  20.309  0.00  0.00    +0.000 N 
ATOM     17  H   UNL     1       2.359   6.196  21.151  0.00  0.00    +0.000 HD
BRANCH  16  18
ATOM     18  N   UNL     1       1.818   8.052  20.393  0.00  0.00    +0.000 NA
ATOM     19  C   UNL     1       0.764   8.375  21.062  0.00  0.00    +0.000 C 
BRANCH  19  20
ATOM     20  C   UNL     1       0.464   9.784  21.196  0.00  0.00    +0.000 A 
ATOM     21  C   UNL     1       0.948  10.832  20.429  0.00  0.00    +0.000 A 
ATOM     22  C   UNL     1       0.534  12.104  20.922  0.00  0.00    +0.000 A 
ATOM     23  C   UNL     1      -0.256  11.961  22.032  0.00  0.00    +0.000 A 
ATOM     24 CL   UNL     1      -0.920  13.228  22.982  0.00  0.00    +0.000 Cl
ATOM     25  S   UNL     1      -0.547  10.345  22.456  0.00  0.00    +0.000 S 
ENDBRANCH  19  20
ENDBRANCH  16  18
ENDBRANCH   6  14
TORSDOF 4
ENDMDL
MODEL 8
REMARK VINA RESULT:      -7.1      4.300      5.811
REMARK  Name = 
REMARK  4 active torsions:
REMARK  status: ('A' for Active; 'I' for Inactive)
REMARK    1  A    between atoms: C_5  and  C_6
REMARK    2  A    between atoms: C_12  and  C_13
REMARK    3  A    between atoms: N_15  and  N_16
REMARK    4  A    between atoms: C_17  and  C_18
REMARK                            x       y       z     vdW  Elec       q    Type
REMARK                         _______ _______ _______ _____ _____    ______ ____
ROOT
ATOM      1  O   UNL     1       2.969   3.524  19.722  0.00  0.00    +0.000 OA
ATOM      2  C   UNL     1       3.478   3.767  18.647  0.00  0.00    +0.000 C 
ATOM      3  N   UNL     1       4.310   2.910  17.949  0.00  0.00    +0.000 N 
ATOM      4  C   UNL     1       4.798   3.492  16.726  0.00  0.00    +0.000 C 
ATOM      5  C   UNL     1       4.551   4.996  16.908  0.00  0.00    +0.000 C 
ATOM      6  C   UNL     1       3.294   5.005  17.813  0.00  0.00    +0.000 C 
ATOM      7  H   UNL     1       4.569   2.003  18.319  0.00  0.00    +0.000 HD
ENDROOT
BRANCH   5   8
ATOM      8  C   UNL     1       5.758   5.721  17.490  0.00  0.00    +0.000 A 
ATOM      9  C   UNL     1       6.468   5.127  18.545  0.00  0.00    +0.000 A 
ATOM     10  C   UNL     1       7.603   5.743  19.077  0.00  0.00    +0.000 A 
ATOM     11  C   UNL     1       8.042   6.963  18.570  0.00  0.00    +0.000 A 
ATOM     12  C   UNL     1       7.341   7.574  17.536  0.00  0.00    +0.000 A 
ATOM     13  C   UNL     1       6.211   6.957  17.000  0.00  0.00    +0.000 A 
ENDBRANCH   5   8
BRANCH   6  14
ATOM     14  C   UNL     1       2.993   6.310  18.504  0.00  0.00    +0.000 C 
ATOM     15  O   UNL     1       3.239   6.419  19.712  0.00  0.00    +0.000 OA
ATOM     16  N   UNL     1       2.531   7.357  17.722  0.00  0.00    +0.000 N 
ATOM     17  H   UNL     1       2.264   7.223  16.747  0.00  0.00    +0.000 HD
BRANCH  16  18
ATOM     18  N   UNL     1       2.388   8.570  18.323  0.00  0.00    +0.000 NA
ATOM     19  C   UNL     1       1.407   9.334  17.978  0.00  0.00    +0.000 C 
BRANCH  19  20
ATOM     20  C   UNL     1       1.243  10.576  18.702  0.00  0.00    +0.000 A 
ATOM     21  C   UNL     1       1.895  11.779  18.482  0.00  0.00    +0.000 A 
ATOM     22  C   UNL     1       1.573  12.760  19.465  0.00  0.00    +0.000 A 
ATOM     23  C   UNL     1       0.682  12.259  20.378  0.00  0.00    +0.000 A 
ATOM     24 CL   UNL     1       0.074  13.072  21.762  0.00  0.00    +0.000 Cl
ATOM     25  S   UNL     1       0.192  10.670  20.047  0.00  0.00    +0.000 S 
ENDBRANCH  19  20
ENDBRANCH  16  18
ENDBRANCH   6  14
TORSDOF 4
ENDMDL
MODEL 9
REMARK VINA RESULT:      -7.1      5.006      6.664
REMARK  Name = 
REMARK  4 active torsions:
REMARK  status: ('A' for Active; 'I' for Inactive)
REMARK    1  A    between atoms: C_5  and  C_6
REMARK    2  A    between atoms: C_12  and  C_13
REMARK    3  A    between atoms: N_15  and  N_16
REMARK    4  A    between atoms: C_17  and  C_18
REMARK                            x       y       z     vdW  Elec       q    Type
REMARK                         _______ _______ _______ _____ _____    ______ ____
ROOT
ATOM      1  O   UNL     1       2.553   4.064  21.516  0.00  0.00    +0.000 OA
ATOM      2  C   UNL     1       2.874   3.742  20.390  0.00  0.00    +0.000 C 
ATOM      3  N   UNL     1       3.612   2.617  20.065  0.00  0.00    +0.000 N 
ATOM      4  C   UNL     1       3.877   2.522  18.653  0.00  0.00    +0.000 C 
ATOM      5  C   UNL     1       3.611   3.940  18.131  0.00  0.00    +0.000 C 
ATOM      6  C   UNL     1       2.516   4.439  19.106  0.00  0.00    +0.000 C 
ATOM      7  H   UNL     1       3.959   1.986  20.778  0.00  0.00    +0.000 HD
ENDROOT
BRANCH   5   8
ATOM      8  C   UNL     1       4.870   4.798  18.098  0.00  0.00    +0.000 A 
ATOM      9  C   UNL     1       5.164   5.538  16.943  0.00  0.00    +0.000 A 
ATOM     10  C   UNL     1       6.287   6.366  16.892  0.00  0.00    +0.000 A 
ATOM     11  C   UNL     1       7.139   6.462  17.989  0.00  0.00    +0.000 A 
ATOM     12  C   UNL     1       6.874   5.722  19.136  0.00  0.00    +0.000 A 
ATOM     13  C   UNL     1       5.749   4.899  19.191  0.00  0.00    +0.000 A 
ENDBRANCH   5   8
BRANCH   6  14
ATOM     14  C   UNL     1       2.285   5.928  19.128  0.00  0.00    +0.000 C 
ATOM     15  O   UNL     1       2.165   6.532  18.054  0.00  0.00    +0.000 OA
ATOM     16  N   UNL     1       2.131   6.534  20.365  0.00  0.00    +0.000 N 
ATOM     17  H   UNL     1       2.310   6.033  21.235  0.00  0.00    +0.000 HD
BRANCH  16  18
ATOM     18  N   UNL     1       1.790   7.851  20.378  0.00  0.00    +0.000 NA
ATOM     19  C   UNL     1       0.771   8.234  21.069  0.00  0.00    +0.000 C 
BRANCH  19  20
ATOM     20  C   UNL     1       0.495   9.653  21.123  0.00  0.00    +0.000 A 
ATOM     21  C   UNL     1       0.926  10.636  20.246  0.00  0.00    +0.000 A 
ATOM     22  C   UNL     1       0.564  11.946  20.676  0.00  0.00    +0.000 A 
ATOM     23  C   UNL     1      -0.138  11.895  21.852  0.00  0.00    +0.000 A 
ATOM     24 CL   UNL     1      -0.713  13.236  22.755  0.00  0.00    +0.000 Cl
ATOM     25  S   UNL     1      -0.408  10.318  22.414  0.00  0.00    +0.000 S 
ENDBRANCH  19  20
ENDBRANCH  16  18
ENDBRANCH   6  14
TORSDOF 4
ENDMDL
