MODEL 1
REMARK VINA RESULT:      -7.2      0.000      0.000
REMARK  Name = 
REMARK  14 active torsions:
REMARK  status: ('A' for Active; 'I' for Inactive)
REMARK    1  A    between atoms: C_1  and  C_2
REMARK    2  A    between atoms: C_2  and  C_3
REMARK    3  A    between atoms: C_3  and  C_4
REMARK    4  A    between atoms: C_4  and  C_5
REMARK    5  A    between atoms: C_5  and  C_6
REMARK    6  A    between atoms: C_6  and  C_7
REMARK    7  A    between atoms: C_7  and  C_8
REMARK    8  A    between atoms: C_8  and  C_9
REMARK    9  A    between atoms: C_13  and  C_14
REMARK   10  A    between atoms: C_15  and  C_16
REMARK   11  A    between atoms: N_18  and  O_19
REMARK   12  A    between atoms: N_23  and  C_24
REMARK   13  A    between atoms: C_24  and  C_25
REMARK   14  A    between atoms: C_25  and  N_26
REMARK                            x       y       z     vdW  Elec       q    Type
REMARK                         _______ _______ _______ _____ _____    ______ ____
ROOT
ATOM      1  C   UNL     1       4.664   4.971  17.257  0.00  0.00    +0.000 A 
ATOM      2  N   UNL     1       4.232   6.175  16.944  0.00  0.00    +0.000 NA
ATOM      3  C   UNL     1       3.423   6.565  17.975  0.00  0.00    +0.000 A 
ATOM      4  C   UNL     1       2.719   7.771  18.134  0.00  0.00    +0.000 A 
ATOM      5  C   UNL     1       1.927   7.974  19.275  0.00  0.00    +0.000 A 
ATOM      6  C   UNL     1       1.881   6.968  20.253  0.00  0.00    +0.000 A 
ATOM      7  C   UNL     1       2.578   5.751  20.113  0.00  0.00    +0.000 A 
ATOM      8  C   UNL     1       3.346   5.580  18.954  0.00  0.00    +0.000 A 
ATOM      9  N   UNL     1       4.148   4.564  18.473  0.00  0.00    +0.000 N 
ENDROOT
BRANCH   5  10
ATOM     10  C   UNL     1       1.185   9.235  19.485  0.00  0.00    +0.000 C 
ATOM     11  C   UNL     1       0.623   9.934  18.485  0.00  0.00    +0.000 C 
BRANCH  11  12
ATOM     12  C   UNL     1      -0.113  11.198  18.732  0.00  0.00    +0.000 C 
ATOM     13  O   UNL     1       0.298  12.099  19.453  0.00  0.00    +0.000 OA
ATOM     14  N   UNL     1      -1.311  11.255  18.066  0.00  0.00    +0.000 N 
ATOM     15  H   UNL     1      -1.685  10.541  17.461  0.00  0.00    +0.000 HD
BRANCH  14  16
ATOM     16  O   UNL     1      -2.087  12.421  18.237  0.00  0.00    +0.000 OA
ATOM     17  H   UNL     1      -2.795  12.301  17.572  0.00  0.00    +0.000 HD
ENDBRANCH  14  16
ENDBRANCH  11  12
ENDBRANCH   5  10
BRANCH   1  18
ATOM     18  C   UNL     1       5.584   4.150  16.408  0.00  0.00    +0.000 C 
BRANCH  18  19
ATOM     19  C   UNL     1       6.684   5.015  15.798  0.00  0.00    +0.000 C 
BRANCH  19  20
ATOM     20  C   UNL     1       7.132   4.468  14.444  0.00  0.00    +0.000 C 
BRANCH  20  21
ATOM     21  C   UNL     1       5.943   3.879  13.687  0.00  0.00    +0.000 C 
BRANCH  21  22
ATOM     22  C   UNL     1       6.366   3.331  12.327  0.00  0.00    +0.000 C 
BRANCH  22  23
ATOM     23  C   UNL     1       5.186   2.662  11.624  0.00  0.00    +0.000 C 
BRANCH  23  25
ATOM     24  C   UNL     1       3.176   3.208  10.220  0.00  0.00    +0.000 C 
ATOM     25  C   UNL     1       4.058   3.658  11.370  0.00  0.00    +0.000 C 
ENDBRANCH  23  25
ENDBRANCH  22  23
ENDBRANCH  21  22
ENDBRANCH  20  21
ENDBRANCH  19  20
ENDBRANCH  18  19
ENDBRANCH   1  18
BRANCH   9  26
ATOM     26  C   UNL     1       4.375   3.270  19.100  0.00  0.00    +0.000 C 
BRANCH  26  27
ATOM     27  C   UNL     1       3.441   2.178  18.566  0.00  0.00    +0.000 C 
BRANCH  27  28
ATOM     28  N   UNL     1       4.151   0.927  18.280  0.00  0.00    +0.000 NA
ATOM     29  H   UNL     1       3.489   0.195  18.019  0.00  0.00    +0.000 HD
ATOM     30  H   UNL     1       4.600   0.596  19.135  0.00  0.00    +0.000 HD
ENDBRANCH  27  28
ENDBRANCH  26  27
ENDBRANCH   9  26
TORSDOF 13
ENDMDL
MODEL 2
REMARK VINA RESULT:      -7.2      1.010      1.059
REMARK  Name = 
REMARK  14 active torsions:
REMARK  status: ('A' for Active; 'I' for Inactive)
REMARK    1  A    between atoms: C_1  and  C_2
REMARK    2  A    between atoms: C_2  and  C_3
REMARK    3  A    between atoms: C_3  and  C_4
REMARK    4  A    between atoms: C_4  and  C_5
REMARK    5  A    between atoms: C_5  and  C_6
REMARK    6  A    between atoms: C_6  and  C_7
REMARK    7  A    between atoms: C_7  and  C_8
REMARK    8  A    between atoms: C_8  and  C_9
REMARK    9  A    between atoms: C_13  and  C_14
REMARK   10  A    between atoms: C_15  and  C_16
REMARK   11  A    between atoms: N_18  and  O_19
REMARK   12  A    between atoms: N_23  and  C_24
REMARK   13  A    between atoms: C_24  and  C_25
REMARK   14  A    between atoms: C_25  and  N_26
REMARK                            x       y       z     vdW  Elec       q    Type
REMARK                         _______ _______ _______ _____ _____    ______ ____
ROOT
ATOM      1  C   UNL     1       5.502   5.589  17.414  0.00  0.00    +0.000 A 
ATOM      2  N   UNL     1       5.014   6.679  16.862  0.00  0.00    +0.000 NA
ATOM      3  C   UNL     1       3.948   7.047  17.636  0.00  0.00    +0.000 A 
ATOM      4  C   UNL     1       3.086   8.147  17.482  0.00  0.00    +0.000 A 
ATOM      5  C   UNL     1       2.033   8.344  18.390  0.00  0.00    +0.000 A 
ATOM      6  C   UNL     1       1.884   7.444  19.456  0.00  0.00    +0.000 A 
ATOM      7  C   UNL     1       2.735   6.334  19.628  0.00  0.00    +0.000 A 
ATOM      8  C   UNL     1       3.765   6.163  18.694  0.00  0.00    +0.000 A 
ATOM      9  N   UNL     1       4.772   5.232  18.532  0.00  0.00    +0.000 N 
ENDROOT
BRANCH   5  10
ATOM     10  C   UNL     1       1.117   9.498  18.270  0.00  0.00    +0.000 C 
ATOM     11  C   UNL     1       0.382   9.963  19.293  0.00  0.00    +0.000 C 
BRANCH  11  12
ATOM     12  C   UNL     1      -0.530  11.123  19.136  0.00  0.00    +0.000 C 
ATOM     13  O   UNL     1      -1.378  11.443  19.960  0.00  0.00    +0.000 OA
ATOM     14  N   UNL     1      -0.326  11.805  17.963  0.00  0.00    +0.000 N 
ATOM     15  H   UNL     1       0.361  11.581  17.261  0.00  0.00    +0.000 HD
BRANCH  14  16
ATOM     16  O   UNL     1      -1.147  12.928  17.721  0.00  0.00    +0.000 OA
ATOM     17  H   UNL     1      -1.211  12.932  16.744  0.00  0.00    +0.000 HD
ENDBRANCH  14  16
ENDBRANCH  11  12
ENDBRANCH   5  10
BRANCH   1  18
ATOM     18  C   UNL     1       6.686   4.831  16.896  0.00  0.00    +0.000 C 
BRANCH  18  19
ATOM     19  C   UNL     1       6.746   4.884  15.372  0.00  0.00    +0.000 C 
BRANCH  19  20
ATOM     20  C   UNL     1       6.103   3.646  14.749  0.00  0.00    +0.000 C 
BRANCH  20  21
ATOM     21  C   UNL     1       5.551   3.971  13.363  0.00  0.00    +0.000 C 
BRANCH  21  22
ATOM     22  C   UNL     1       6.178   3.084  12.291  0.00  0.00    +0.000 C 
BRANCH  22  23
ATOM     23  C   UNL     1       5.120   2.605  11.298  0.00  0.00    +0.000 C 
BRANCH  23  25
ATOM     24  C   UNL     1       3.247   3.741  10.069  0.00  0.00    +0.000 C 
ATOM     25  C   UNL     1       3.833   3.415  11.431  0.00  0.00    +0.000 C 
ENDBRANCH  23  25
ENDBRANCH  22  23
ENDBRANCH  21  22
ENDBRANCH  20  21
ENDBRANCH  19  20
ENDBRANCH  18  19
ENDBRANCH   1  18
BRANCH   9  26
ATOM     26  C   UNL     1       5.002   4.054  19.354  0.00  0.00    +0.000 C 
BRANCH  26  27
ATOM     27  C   UNL     1       4.240   2.820  18.854  0.00  0.00    +0.000 C 
BRANCH  27  28
ATOM     28  N   UNL     1       2.876   2.754  19.387  0.00  0.00    +0.000 NA
ATOM     29  H   UNL     1       2.329   2.060  18.876  0.00  0.00    +0.000 HD
ATOM     30  H   UNL     1       2.408   3.646  19.220  0.00  0.00    +0.000 HD
ENDBRANCH  27  28
ENDBRANCH  26  27
ENDBRANCH   9  26
TORSDOF 13
ENDMDL
MODEL 3
REMARK VINA RESULT:      -7.1      3.052      4.846
REMARK  Name = 
REMARK  14 active torsions:
REMARK  status: ('A' for Active; 'I' for Inactive)
REMARK    1  A    between atoms: C_1  and  C_2
REMARK    2  A    between atoms: C_2  and  C_3
REMARK    3  A    between atoms: C_3  and  C_4
REMARK    4  A    between atoms: C_4  and  C_5
REMARK    5  A    between atoms: C_5  and  C_6
REMARK    6  A    between atoms: C_6  and  C_7
REMARK    7  A    between atoms: C_7  and  C_8
REMARK    8  A    between atoms: C_8  and  C_9
REMARK    9  A    between atoms: C_13  and  C_14
REMARK   10  A    between atoms: C_15  and  C_16
REMARK   11  A    between atoms: N_18  and  O_19
REMARK   12  A    between atoms: N_23  and  C_24
REMARK   13  A    between atoms: C_24  and  C_25
REMARK   14  A    between atoms: C_25  and  N_26
REMARK                            x       y       z     vdW  Elec       q    Type
REMARK                         _______ _______ _______ _____ _____    ______ ____
ROOT
ATOM      1  C   UNL     1       4.297   5.361  19.037  0.00  0.00    +0.000 A 
ATOM      2  N   UNL     1       3.445   5.769  19.953  0.00  0.00    +0.000 NA
ATOM      3  C   UNL     1       2.836   6.878  19.434  0.00  0.00    +0.000 A 
ATOM      4  C   UNL     1       1.841   7.687  20.010  0.00  0.00    +0.000 A 
ATOM      5  C   UNL     1       1.349   8.799  19.308  0.00  0.00    +0.000 A 
ATOM      6  C   UNL     1       1.848   9.060  18.022  0.00  0.00    +0.000 A 
ATOM      7  C   UNL     1       2.846   8.262  17.427  0.00  0.00    +0.000 A 
ATOM      8  C   UNL     1       3.322   7.170  18.164  0.00  0.00    +0.000 A 
ATOM      9  N   UNL     1       4.261   6.186  17.928  0.00  0.00    +0.000 N 
ENDROOT
BRANCH   5  10
ATOM     10  C   UNL     1       0.293   9.663  19.874  0.00  0.00    +0.000 C 
ATOM     11  C   UNL     1      -0.221  10.720  19.224  0.00  0.00    +0.000 C 
BRANCH  11  12
ATOM     12  C   UNL     1      -1.280  11.569  19.824  0.00  0.00    +0.000 C 
ATOM     13  O   UNL     1      -1.270  11.954  20.987  0.00  0.00    +0.000 OA
ATOM     14  N   UNL     1      -2.280  11.878  18.938  0.00  0.00    +0.000 N 
ATOM     15  H   UNL     1      -2.326  11.587  17.974  0.00  0.00    +0.000 HD
BRANCH  14  16
ATOM     16  O   UNL     1      -3.336  12.683  19.416  0.00  0.00    +0.000 OA
ATOM     17  H   UNL     1      -3.113  12.779  20.364  0.00  0.00    +0.000 HD
ENDBRANCH  14  16
ENDBRANCH  11  12
ENDBRANCH   5  10
BRANCH   1  18
ATOM     18  C   UNL     1       5.191   4.168  19.177  0.00  0.00    +0.000 C 
BRANCH  18  19
ATOM     19  C   UNL     1       4.387   2.872  19.116  0.00  0.00    +0.000 C 
BRANCH  19  20
ATOM     20  C   UNL     1       3.820   2.637  17.717  0.00  0.00    +0.000 C 
BRANCH  20  21
ATOM     21  C   UNL     1       2.372   2.160  17.802  0.00  0.00    +0.000 C 
BRANCH  21  22
ATOM     22  C   UNL     1       1.432   3.298  18.191  0.00  0.00    +0.000 C 
BRANCH  22  23
ATOM     23  C   UNL     1       0.581   2.908  19.398  0.00  0.00    +0.000 C 
BRANCH  23  25
ATOM     24  C   UNL     1       1.699   2.626  21.630  0.00  0.00    +0.000 C 
ATOM     25  C   UNL     1       1.065   3.611  20.664  0.00  0.00    +0.000 C 
ENDBRANCH  23  25
ENDBRANCH  22  23
ENDBRANCH  21  22
ENDBRANCH  20  21
ENDBRANCH  19  20
ENDBRANCH  18  19
ENDBRANCH   1  18
BRANCH   9  26
ATOM     26  C   UNL     1       5.105   6.060  16.750  0.00  0.00    +0.000 C 
BRANCH  26  27
ATOM     27  C   UNL     1       6.506   6.649  16.954  0.00  0.00    +0.000 C 
BRANCH  27  28
ATOM     28  N   UNL     1       7.464   6.172  15.952  0.00  0.00    +0.000 NA
ATOM     29  H   UNL     1       8.309   5.825  16.406  0.00  0.00    +0.000 HD
ATOM     30  H   UNL     1       7.766   6.960  15.378  0.00  0.00    +0.000 HD
ENDBRANCH  27  28
ENDBRANCH  26  27
ENDBRANCH   9  26
TORSDOF 13
ENDMDL
MODEL 4
REMARK VINA RESULT:      -7.1      1.958      2.211
REMARK  Name = 
REMARK  14 active torsions:
REMARK  status: ('A' for Active; 'I' for Inactive)
REMARK    1  A    between atoms: C_1  and  C_2
REMARK    2  A    between atoms: C_2  and  C_3
REMARK    3  A    between atoms: C_3  and  C_4
REMARK    4  A    between atoms: C_4  and  C_5
REMARK    5  A    between atoms: C_5  and  C_6
REMARK    6  A    between atoms: C_6  and  C_7
REMARK    7  A    between atoms: C_7  and  C_8
REMARK    8  A    between atoms: C_8  and  C_9
REMARK    9  A    between atoms: C_13  and  C_14
REMARK   10  A    between atoms: C_15  and  C_16
REMARK   11  A    between atoms: N_18  and  O_19
REMARK   12  A    between atoms: N_23  and  C_24
REMARK   13  A    between atoms: C_24  and  C_25
REMARK   14  A    between atoms: C_25  and  N_26
REMARK                            x       y       z     vdW  Elec       q    Type
REMARK                         _______ _______ _______ _____ _____    ______ ____
ROOT
ATOM      1  C   UNL     1       4.576   4.732  17.595  0.00  0.00    +0.000 A 
ATOM      2  N   UNL     1       4.364   5.945  18.060  0.00  0.00    +0.000 NA
ATOM      3  C   UNL     1       3.293   5.843  18.905  0.00  0.00    +0.000 A 
ATOM      4  C   UNL     1       2.670   6.851  19.662  0.00  0.00    +0.000 A 
ATOM      5  C   UNL     1       1.565   6.537  20.469  0.00  0.00    +0.000 A 
ATOM      6  C   UNL     1       1.124   5.206  20.523  0.00  0.00    +0.000 A 
ATOM      7  C   UNL     1       1.733   4.181  19.771  0.00  0.00    +0.000 A 
ATOM      8  C   UNL     1       2.824   4.535  18.966  0.00  0.00    +0.000 A 
ATOM      9  N   UNL     1       3.659   3.838  18.117  0.00  0.00    +0.000 N 
ENDROOT
BRANCH   5  10
ATOM     10  C   UNL     1       0.894   7.565  21.291  0.00  0.00    +0.000 C 
ATOM     11  C   UNL     1       1.413   8.783  21.516  0.00  0.00    +0.000 C 
BRANCH  11  12
ATOM     12  C   UNL     1       0.712   9.791  22.349  0.00  0.00    +0.000 C 
ATOM     13  O   UNL     1       0.458   9.638  23.538  0.00  0.00    +0.000 OA
ATOM     14  N   UNL     1       0.374  10.919  21.647  0.00  0.00    +0.000 N 
ATOM     15  H   UNL     1       0.567  11.089  20.672  0.00  0.00    +0.000 HD
BRANCH  14  16
ATOM     16  O   UNL     1      -0.298  11.939  22.354  0.00  0.00    +0.000 OA
ATOM     17  H   UNL     1      -0.957  12.248  21.699  0.00  0.00    +0.000 HD
ENDBRANCH  14  16
ENDBRANCH  11  12
ENDBRANCH   5  10
BRANCH   1  18
ATOM     18  C   UNL     1       5.658   4.369  16.627  0.00  0.00    +0.000 C 
BRANCH  18  19
ATOM     19  C   UNL     1       5.738   5.384  15.489  0.00  0.00    +0.000 C 
BRANCH  19  20
ATOM     20  C   UNL     1       5.225   4.789  14.179  0.00  0.00    +0.000 C 
BRANCH  20  21
ATOM     21  C   UNL     1       6.215   3.760  13.637  0.00  0.00    +0.000 C 
BRANCH  21  22
ATOM     22  C   UNL     1       5.730   3.161  12.319  0.00  0.00    +0.000 C 
BRANCH  22  23
ATOM     23  C   UNL     1       4.349   3.702  11.955  0.00  0.00    +0.000 C 
BRANCH  23  25
ATOM     24  C   UNL     1       3.038   4.079   9.845  0.00  0.00    +0.000 C 
ATOM     25  C   UNL     1       3.837   3.077  10.659  0.00  0.00    +0.000 C 
ENDBRANCH  23  25
ENDBRANCH  22  23
ENDBRANCH  21  22
ENDBRANCH  20  21
ENDBRANCH  19  20
ENDBRANCH  18  19
ENDBRANCH   1  18
BRANCH   9  26
ATOM     26  C   UNL     1       3.569   2.425  17.781  0.00  0.00    +0.000 C 
BRANCH  26  27
ATOM     27  C   UNL     1       3.677   1.513  19.009  0.00  0.00    +0.000 C 
BRANCH  27  28
ATOM     28  N   UNL     1       4.984   1.614  19.666  0.00  0.00    +0.000 NA
ATOM     29  H   UNL     1       5.662   2.050  19.040  0.00  0.00    +0.000 HD
ATOM     30  H   UNL     1       5.342   0.674  19.843  0.00  0.00    +0.000 HD
ENDBRANCH  27  28
ENDBRANCH  26  27
ENDBRANCH   9  26
TORSDOF 13
ENDMDL
MODEL 5
REMARK VINA RESULT:      -7.0      4.300      8.271
REMARK  Name = 
REMARK  14 active torsions:
REMARK  status: ('A' for Active; 'I' for Inactive)
REMARK    1  A    between atoms: C_1  and  C_2
REMARK    2  A    between atoms: C_2  and  C_3
REMARK    3  A    between atoms: C_3  and  C_4
REMARK    4  A    between atoms: C_4  and  C_5
REMARK    5  A    between atoms: C_5  and  C_6
REMARK    6  A    between atoms: C_6  and  C_7
REMARK    7  A    between atoms: C_7  and  C_8
REMARK    8  A    between atoms: C_8  and  C_9
REMARK    9  A    between atoms: C_13  and  C_14
REMARK   10  A    between atoms: C_15  and  C_16
REMARK   11  A    between atoms: N_18  and  O_19
REMARK   12  A    between atoms: N_23  and  C_24
REMARK   13  A    between atoms: C_24  and  C_25
REMARK   14  A    between atoms: C_25  and  N_26
REMARK                            x       y       z     vdW  Elec       q    Type
REMARK                         _______ _______ _______ _____ _____    ______ ____
ROOT
ATOM      1  C   UNL     1       2.521   6.796  19.459  0.00  0.00    +0.000 A 
ATOM      2  N   UNL     1       3.150   6.999  18.320  0.00  0.00    +0.000 NA
ATOM      3  C   UNL     1       3.686   5.792  17.966  0.00  0.00    +0.000 A 
ATOM      4  C   UNL     1       4.448   5.465  16.831  0.00  0.00    +0.000 A 
ATOM      5  C   UNL     1       4.918   4.154  16.656  0.00  0.00    +0.000 A 
ATOM      6  C   UNL     1       4.586   3.184  17.615  0.00  0.00    +0.000 A 
ATOM      7  C   UNL     1       3.825   3.490  18.761  0.00  0.00    +0.000 A 
ATOM      8  C   UNL     1       3.386   4.812  18.908  0.00  0.00    +0.000 A 
ATOM      9  N   UNL     1       2.639   5.478  19.859  0.00  0.00    +0.000 N 
ENDROOT
BRANCH   5  10
ATOM     10  C   UNL     1       5.708   3.769  15.468  0.00  0.00    +0.000 C 
ATOM     11  C   UNL     1       5.764   4.511  14.350  0.00  0.00    +0.000 C 
BRANCH  11  12
ATOM     12  C   UNL     1       6.567   4.093  13.174  0.00  0.00    +0.000 C 
ATOM     13  O   UNL     1       7.427   4.789  12.650  0.00  0.00    +0.000 OA
ATOM     14  N   UNL     1       6.243   2.836  12.729  0.00  0.00    +0.000 N 
ATOM     15  H   UNL     1       5.547   2.228  13.131  0.00  0.00    +0.000 HD
BRANCH  14  16
ATOM     16  O   UNL     1       6.953   2.347  11.612  0.00  0.00    +0.000 OA
ATOM     17  H   UNL     1       6.798   1.382  11.672  0.00  0.00    +0.000 HD
ENDBRANCH  14  16
ENDBRANCH  11  12
ENDBRANCH   5  10
BRANCH   1  18
ATOM     18  C   UNL     1       1.781   7.851  20.221  0.00  0.00    +0.000 C 
BRANCH  18  19
ATOM     19  C   UNL     1       1.348   8.990  19.301  0.00  0.00    +0.000 C 
BRANCH  19  20
ATOM     20  C   UNL     1       0.581  10.063  20.071  0.00  0.00    +0.000 C 
BRANCH  20  21
ATOM     21  C   UNL     1      -0.815  10.248  19.481  0.00  0.00    +0.000 C 
BRANCH  21  22
ATOM     22  C   UNL     1      -0.782  10.226  17.955  0.00  0.00    +0.000 C 
BRANCH  22  23
ATOM     23  C   UNL     1      -2.045  10.862  17.377  0.00  0.00    +0.000 C 
BRANCH  23  25
ATOM     24  C   UNL     1      -2.937  10.194  15.126  0.00  0.00    +0.000 C 
ATOM     25  C   UNL     1      -2.871   9.840  16.601  0.00  0.00    +0.000 C 
ENDBRANCH  23  25
ENDBRANCH  22  23
ENDBRANCH  21  22
ENDBRANCH  20  21
ENDBRANCH  19  20
ENDBRANCH  18  19
ENDBRANCH   1  18
BRANCH   9  26
ATOM     26  C   UNL     1       2.111   4.917  21.093  0.00  0.00    +0.000 C 
BRANCH  26  27
ATOM     27  C   UNL     1       1.285   3.645  20.863  0.00  0.00    +0.000 C 
BRANCH  27  28
ATOM     28  N   UNL     1       1.495   2.646  21.916  0.00  0.00    +0.000 NA
ATOM     29  H   UNL     1       0.661   2.069  22.028  0.00  0.00    +0.000 HD
ATOM     30  H   UNL     1       1.618   3.124  22.810  0.00  0.00    +0.000 HD
ENDBRANCH  27  28
ENDBRANCH  26  27
ENDBRANCH   9  26
TORSDOF 13
ENDMDL
MODEL 6
REMARK VINA RESULT:      -7.0      4.334      8.214
REMARK  Name = 
REMARK  14 active torsions:
REMARK  status: ('A' for Active; 'I' for Inactive)
REMARK    1  A    between atoms: C_1  and  C_2
REMARK    2  A    between atoms: C_2  and  C_3
REMARK    3  A    between atoms: C_3  and  C_4
REMARK    4  A    between atoms: C_4  and  C_5
REMARK    5  A    between atoms: C_5  and  C_6
REMARK    6  A    between atoms: C_6  and  C_7
REMARK    7  A    between atoms: C_7  and  C_8
REMARK    8  A    between atoms: C_8  and  C_9
REMARK    9  A    between atoms: C_13  and  C_14
REMARK   10  A    between atoms: C_15  and  C_16
REMARK   11  A    between atoms: N_18  and  O_19
REMARK   12  A    between atoms: N_23  and  C_24
REMARK   13  A    between atoms: C_24  and  C_25
REMARK   14  A    between atoms: C_25  and  N_26
REMARK                            x       y       z     vdW  Elec       q    Type
REMARK                         _______ _______ _______ _____ _____    ______ ____
ROOT
ATOM      1  C   UNL     1       2.066   6.137  20.296  0.00  0.00    +0.000 A 
ATOM      2  N   UNL     1       2.620   6.731  19.260  0.00  0.00    +0.000 NA
ATOM      3  C   UNL     1       3.533   5.843  18.761  0.00  0.00    +0.000 A 
ATOM      4  C   UNL     1       4.388   5.987  17.654  0.00  0.00    +0.000 A 
ATOM      5  C   UNL     1       5.268   4.949  17.310  0.00  0.00    +0.000 A 
ATOM      6  C   UNL     1       5.252   3.769  18.070  0.00  0.00    +0.000 A 
ATOM      7  C   UNL     1       4.404   3.605  19.184  0.00  0.00    +0.000 A 
ATOM      8  C   UNL     1       3.550   4.668  19.506  0.00  0.00    +0.000 A 
ATOM      9  N   UNL     1       2.603   4.878  20.487  0.00  0.00    +0.000 N 
ENDROOT
BRANCH   5  10
ATOM     10  C   UNL     1       6.170   5.057  16.144  0.00  0.00    +0.000 C 
ATOM     11  C   UNL     1       5.916   4.476  14.960  0.00  0.00    +0.000 C 
BRANCH  11  12
ATOM     12  C   UNL     1       6.845   4.604  13.811  0.00  0.00    +0.000 C 
ATOM     13  O   UNL     1       6.747   3.956  12.776  0.00  0.00    +0.000 OA
ATOM     14  N   UNL     1       7.835   5.529  14.028  0.00  0.00    +0.000 N 
ATOM     15  H   UNL     1       7.951   6.086  14.860  0.00  0.00    +0.000 HD
BRANCH  14  16
ATOM     16  O   UNL     1       8.772   5.724  12.991  0.00  0.00    +0.000 OA
ATOM     17  H   UNL     1       8.565   6.632  12.690  0.00  0.00    +0.000 HD
ENDBRANCH  14  16
ENDBRANCH  11  12
ENDBRANCH   5  10
BRANCH   1  18
ATOM     18  C   UNL     1       1.001   6.745  21.155  0.00  0.00    +0.000 C 
BRANCH  18  19
ATOM     19  C   UNL     1       1.209   8.251  21.301  0.00  0.00    +0.000 C 
BRANCH  19  20
ATOM     20  C   UNL     1      -0.107   8.963  21.608  0.00  0.00    +0.000 C 
BRANCH  20  21
ATOM     21  C   UNL     1      -0.128  10.347  20.963  0.00  0.00    +0.000 C 
BRANCH  21  22
ATOM     22  C   UNL     1      -0.939  10.347  19.670  0.00  0.00    +0.000 C 
BRANCH  22  23
ATOM     23  C   UNL     1      -0.186  11.076  18.559  0.00  0.00    +0.000 C 
BRANCH  23  25
ATOM     24  C   UNL     1       1.767   9.675  17.827  0.00  0.00    +0.000 C 
ATOM     25  C   UNL     1       1.319  10.853  18.675  0.00  0.00    +0.000 C 
ENDBRANCH  23  25
ENDBRANCH  22  23
ENDBRANCH  21  22
ENDBRANCH  20  21
ENDBRANCH  19  20
ENDBRANCH  18  19
ENDBRANCH   1  18
BRANCH   9  26
ATOM     26  C   UNL     1       2.259   3.965  21.567  0.00  0.00    +0.000 C 
BRANCH  26  27
ATOM     27  C   UNL     1       1.481   2.735  21.084  0.00  0.00    +0.000 C 
BRANCH  27  28
ATOM     28  N   UNL     1       0.390   3.088  20.170  0.00  0.00    +0.000 NA
ATOM     29  H   UNL     1      -0.505   2.783  20.553  0.00  0.00    +0.000 HD
ATOM     30  H   UNL     1       0.505   2.570  19.298  0.00  0.00    +0.000 HD
ENDBRANCH  27  28
ENDBRANCH  26  27
ENDBRANCH   9  26
TORSDOF 13
ENDMDL
MODEL 7
REMARK VINA RESULT:      -6.9      1.750      2.082
REMARK  Name = 
REMARK  14 active torsions:
REMARK  status: ('A' for Active; 'I' for Inactive)
REMARK    1  A    between atoms: C_1  and  C_2
REMARK    2  A    between atoms: C_2  and  C_3
REMARK    3  A    between atoms: C_3  and  C_4
REMARK    4  A    between atoms: C_4  and  C_5
REMARK    5  A    between atoms: C_5  and  C_6
REMARK    6  A    between atoms: C_6  and  C_7
REMARK    7  A    between atoms: C_7  and  C_8
REMARK    8  A    between atoms: C_8  and  C_9
REMARK    9  A    between atoms: C_13  and  C_14
REMARK   10  A    between atoms: C_15  and  C_16
REMARK   11  A    between atoms: N_18  and  O_19
REMARK   12  A    between atoms: N_23  and  C_24
REMARK   13  A    between atoms: C_24  and  C_25
REMARK   14  A    between atoms: C_25  and  N_26
REMARK                            x       y       z     vdW  Elec       q    Type
REMARK                         _______ _______ _______ _____ _____    ______ ____
ROOT
ATOM      1  C   UNL     1       4.530   4.672  17.995  0.00  0.00    +0.000 A 
ATOM      2  N   UNL     1       4.182   5.939  17.926  0.00  0.00    +0.000 NA
ATOM      3  C   UNL     1       3.271   6.134  18.927  0.00  0.00    +0.000 A 
ATOM      4  C   UNL     1       2.596   7.314  19.286  0.00  0.00    +0.000 A 
ATOM      5  C   UNL     1       1.683   7.302  20.353  0.00  0.00    +0.000 A 
ATOM      6  C   UNL     1       1.487   6.105  21.060  0.00  0.00    +0.000 A 
ATOM      7  C   UNL     1       2.152   4.911  20.716  0.00  0.00    +0.000 A 
ATOM      8  C   UNL     1       3.045   4.959  19.637  0.00  0.00    +0.000 A 
ATOM      9  N   UNL     1       3.861   4.032  19.021  0.00  0.00    +0.000 N 
ENDROOT
BRANCH   5  10
ATOM     10  C   UNL     1       0.967   8.525  20.769  0.00  0.00    +0.000 C 
ATOM     11  C   UNL     1       0.812   8.886  22.054  0.00  0.00    +0.000 C 
BRANCH  11  12
ATOM     12  C   UNL     1       0.084  10.121  22.436  0.00  0.00    +0.000 C 
ATOM     13  O   UNL     1      -0.543  10.250  23.480  0.00  0.00    +0.000 OA
ATOM     14  N   UNL     1       0.185  11.112  21.492  0.00  0.00    +0.000 N 
ATOM     15  H   UNL     1       0.693  11.051  20.624  0.00  0.00    +0.000 HD
BRANCH  14  16
ATOM     16  O   UNL     1      -0.475  12.329  21.764  0.00  0.00    +0.000 OA
ATOM     17  H   UNL     1      -1.333  12.025  22.125  0.00  0.00    +0.000 HD
ENDBRANCH  14  16
ENDBRANCH  11  12
ENDBRANCH   5  10
BRANCH   1  18
ATOM     18  C   UNL     1       5.514   4.009  17.081  0.00  0.00    +0.000 C 
BRANCH  18  19
ATOM     19  C   UNL     1       6.400   5.042  16.389  0.00  0.00    +0.000 C 
BRANCH  19  20
ATOM     20  C   UNL     1       5.734   5.586  15.127  0.00  0.00    +0.000 C 
BRANCH  20  21
ATOM     21  C   UNL     1       5.347   4.442  14.193  0.00  0.00    +0.000 C 
BRANCH  21  22
ATOM     22  C   UNL     1       6.577   3.808  13.548  0.00  0.00    +0.000 C 
BRANCH  22  23
ATOM     23  C   UNL     1       6.362   3.612  12.049  0.00  0.00    +0.000 C 
BRANCH  23  25
ATOM     24  C   UNL     1       4.080   3.158  11.100  0.00  0.00    +0.000 C 
ATOM     25  C   UNL     1       5.296   2.553  11.779  0.00  0.00    +0.000 C 
ENDBRANCH  23  25
ENDBRANCH  22  23
ENDBRANCH  21  22
ENDBRANCH  20  21
ENDBRANCH  19  20
ENDBRANCH  18  19
ENDBRANCH   1  18
BRANCH   9  26
ATOM     26  C   UNL     1       3.966   2.618  19.351  0.00  0.00    +0.000 C 
BRANCH  26  27
ATOM     27  C   UNL     1       3.172   1.722  18.392  0.00  0.00    +0.000 C 
BRANCH  27  28
ATOM     28  N   UNL     1       1.734   1.738  18.677  0.00  0.00    +0.000 NA
ATOM     29  H   UNL     1       1.521   2.436  19.390  0.00  0.00    +0.000 HD
ATOM     30  H   UNL     1       1.465   0.841  19.085  0.00  0.00    +0.000 HD
ENDBRANCH  27  28
ENDBRANCH  26  27
ENDBRANCH   9  26
TORSDOF 13
ENDMDL
MODEL 8
REMARK VINA RESULT:      -6.8      2.827      4.500
REMARK  Name = 
REMARK  14 active torsions:
REMARK  status: ('A' for Active; 'I' for Inactive)
REMARK    1  A    between atoms: C_1  and  C_2
REMARK    2  A    between atoms: C_2  and  C_3
REMARK    3  A    between atoms: C_3  and  C_4
REMARK    4  A    between atoms: C_4  and  C_5
REMARK    5  A    between atoms: C_5  and  C_6
REMARK    6  A    between atoms: C_6  and  C_7
REMARK    7  A    between atoms: C_7  and  C_8
REMARK    8  A    between atoms: C_8  and  C_9
REMARK    9  A    between atoms: C_13  and  C_14
REMARK   10  A    between atoms: C_15  and  C_16
REMARK   11  A    between atoms: N_18  and  O_19
REMARK   12  A    between atoms: N_23  and  C_24
REMARK   13  A    between atoms: C_24  and  C_25
REMARK   14  A    between atoms: C_25  and  N_26
REMARK                            x       y       z     vdW  Elec       q    Type
REMARK                         _______ _______ _______ _____ _____    ______ ____
ROOT
ATOM      1  C   UNL     1       4.034   5.116  17.306  0.00  0.00    +0.000 A 
ATOM      2  N   UNL     1       3.928   6.377  17.668  0.00  0.00    +0.000 NA
ATOM      3  C   UNL     1       3.082   6.390  18.743  0.00  0.00    +0.000 A 
ATOM      4  C   UNL     1       2.644   7.487  19.506  0.00  0.00    +0.000 A 
ATOM      5  C   UNL     1       1.759   7.286  20.576  0.00  0.00    +0.000 A 
ATOM      6  C   UNL     1       1.351   5.977  20.879  0.00  0.00    +0.000 A 
ATOM      7  C   UNL     1       1.777   4.864  20.127  0.00  0.00    +0.000 A 
ATOM      8  C   UNL     1       2.649   5.106  19.058  0.00  0.00    +0.000 A 
ATOM      9  N   UNL     1       3.270   4.303  18.122  0.00  0.00    +0.000 N 
ENDROOT
BRANCH   5  10
ATOM     10  C   UNL     1       1.289   8.412  21.410  0.00  0.00    +0.000 C 
ATOM     11  C   UNL     1      -0.003   8.767  21.508  0.00  0.00    +0.000 C 
BRANCH  11  12
ATOM     12  C   UNL     1      -0.438   9.906  22.354  0.00  0.00    +0.000 C 
ATOM     13  O   UNL     1      -0.393   9.905  23.578  0.00  0.00    +0.000 OA
ATOM     14  N   UNL     1      -0.901  10.967  21.619  0.00  0.00    +0.000 N 
ATOM     15  H   UNL     1      -0.952  11.012  20.613  0.00  0.00    +0.000 HD
BRANCH  14  16
ATOM     16  O   UNL     1      -1.340  12.102  22.334  0.00  0.00    +0.000 OA
ATOM     17  H   UNL     1      -1.919  12.549  21.682  0.00  0.00    +0.000 HD
ENDBRANCH  14  16
ENDBRANCH  11  12
ENDBRANCH   5  10
BRANCH   1  18
ATOM     18  C   UNL     1       4.866   4.627  16.161  0.00  0.00    +0.000 C 
BRANCH  18  19
ATOM     19  C   UNL     1       6.302   4.358  16.603  0.00  0.00    +0.000 C 
BRANCH  19  20
ATOM     20  C   UNL     1       7.098   5.657  16.714  0.00  0.00    +0.000 C 
BRANCH  20  21
ATOM     21  C   UNL     1       7.274   6.052  18.179  0.00  0.00    +0.000 C 
BRANCH  21  22
ATOM     22  C   UNL     1       8.213   7.246  18.326  0.00  0.00    +0.000 C 
BRANCH  22  23
ATOM     23  C   UNL     1       7.608   8.493  17.685  0.00  0.00    +0.000 C 
BRANCH  23  25
ATOM     24  C   UNL     1       9.019   9.812  19.291  0.00  0.00    +0.000 C 
ATOM     25  C   UNL     1       8.523   9.702  17.860  0.00  0.00    +0.000 C 
ENDBRANCH  23  25
ENDBRANCH  22  23
ENDBRANCH  21  22
ENDBRANCH  20  21
ENDBRANCH  19  20
ENDBRANCH  18  19
ENDBRANCH   1  18
BRANCH   9  26
ATOM     26  C   UNL     1       3.114   2.863  17.977  0.00  0.00    +0.000 C 
BRANCH  26  27
ATOM     27  C   UNL     1       3.605   2.084  19.204  0.00  0.00    +0.000 C 
BRANCH  27  28
ATOM     28  N   UNL     1       5.009   2.367  19.518  0.00  0.00    +0.000 NA
ATOM     29  H   UNL     1       5.624   1.818  18.917  0.00  0.00    +0.000 HD
ATOM     30  H   UNL     1       5.207   2.053  20.469  0.00  0.00    +0.000 HD
ENDBRANCH  27  28
ENDBRANCH  26  27
ENDBRANCH   9  26
TORSDOF 13
ENDMDL
MODEL 9
REMARK VINA RESULT:      -6.8      3.320      5.009
REMARK  Name = 
REMARK  14 active torsions:
REMARK  status: ('A' for Active; 'I' for Inactive)
REMARK    1  A    between atoms: C_1  and  C_2
REMARK    2  A    between atoms: C_2  and  C_3
REMARK    3  A    between atoms: C_3  and  C_4
REMARK    4  A    between atoms: C_4  and  C_5
REMARK    5  A    between atoms: C_5  and  C_6
REMARK    6  A    between atoms: C_6  and  C_7
REMARK    7  A    between atoms: C_7  and  C_8
REMARK    8  A    between atoms: C_8  and  C_9
REMARK    9  A    between atoms: C_13  and  C_14
REMARK   10  A    between atoms: C_15  and  C_16
REMARK   11  A    between atoms: N_18  and  O_19
REMARK   12  A    between atoms: N_23  and  C_24
REMARK   13  A    between atoms: C_24  and  C_25
REMARK   14  A    between atoms: C_25  and  N_26
REMARK                            x       y       z     vdW  Elec       q    Type
REMARK                         _______ _______ _______ _____ _____    ______ ____
ROOT
ATOM      1  C   UNL     1       4.290   5.584  18.984  0.00  0.00    +0.000 A 
ATOM      2  N   UNL     1       3.487   5.864  19.989  0.00  0.00    +0.000 NA
ATOM      3  C   UNL     1       2.765   6.958  19.601  0.00  0.00    +0.000 A 
ATOM      4  C   UNL     1       1.766   7.651  20.308  0.00  0.00    +0.000 A 
ATOM      5  C   UNL     1       1.145   8.769  19.729  0.00  0.00    +0.000 A 
ATOM      6  C   UNL     1       1.521   9.154  18.432  0.00  0.00    +0.000 A 
ATOM      7  C   UNL     1       2.521   8.475  17.707  0.00  0.00    +0.000 A 
ATOM      8  C   UNL     1       3.127   7.373  18.323  0.00  0.00    +0.000 A 
ATOM      9  N   UNL     1       4.109   6.479  17.946  0.00  0.00    +0.000 N 
ENDROOT
BRANCH   5  10
ATOM     10  C   UNL     1       0.081   9.512  20.435  0.00  0.00    +0.000 C 
ATOM     11  C   UNL     1       0.085  10.847  20.576  0.00  0.00    +0.000 C 
BRANCH  11  12
ATOM     12  C   UNL     1      -1.000  11.561  21.294  0.00  0.00    +0.000 C 
ATOM     13  O   UNL     1      -1.666  12.465  20.803  0.00  0.00    +0.000 OA
ATOM     14  N   UNL     1      -1.182  11.102  22.574  0.00  0.00    +0.000 N 
ATOM     15  H   UNL     1      -0.662  10.360  23.015  0.00  0.00    +0.000 HD
BRANCH  14  16
ATOM     16  O   UNL     1      -2.194  11.719  23.340  0.00  0.00    +0.000 OA
ATOM     17  H   UNL     1      -2.173  12.641  23.010  0.00  0.00    +0.000 HD
ENDBRANCH  14  16
ENDBRANCH  11  12
ENDBRANCH   5  10
BRANCH   1  18
ATOM     18  C   UNL     1       5.271   4.454  18.968  0.00  0.00    +0.000 C 
BRANCH  18  19
ATOM     19  C   UNL     1       4.554   3.106  19.004  0.00  0.00    +0.000 C 
BRANCH  19  20
ATOM     20  C   UNL     1       3.496   3.013  17.906  0.00  0.00    +0.000 C 
BRANCH  20  21
ATOM     21  C   UNL     1       2.659   1.748  18.078  0.00  0.00    +0.000 C 
BRANCH  21  22
ATOM     22  C   UNL     1       1.287   2.063  18.668  0.00  0.00    +0.000 C 
BRANCH  22  23
ATOM     23  C   UNL     1       1.116   3.568  18.866  0.00  0.00    +0.000 C 
BRANCH  23  25
ATOM     24  C   UNL     1       1.437   2.895  21.266  0.00  0.00    +0.000 C 
ATOM     25  C   UNL     1       0.799   3.899  20.322  0.00  0.00    +0.000 C 
ENDBRANCH  23  25
ENDBRANCH  22  23
ENDBRANCH  21  22
ENDBRANCH  20  21
ENDBRANCH  19  20
ENDBRANCH  18  19
ENDBRANCH   1  18
BRANCH   9  26
ATOM     26  C   UNL     1       4.863   6.497  16.701  0.00  0.00    +0.000 C 
BRANCH  26  27
ATOM     27  C   UNL     1       6.299   7.004  16.882  0.00  0.00    +0.000 C 
BRANCH  27  28
ATOM     28  N   UNL     1       7.290   6.094  16.297  0.00  0.00    +0.000 NA
ATOM     29  H   UNL     1       7.197   6.076  15.281  0.00  0.00    +0.000 HD
ATOM     30  H   UNL     1       7.091   5.142  16.606  0.00  0.00    +0.000 HD
ENDBRANCH  27  28
ENDBRANCH  26  27
ENDBRANCH   9  26
TORSDOF 13
ENDMDL
