MODEL 1
REMARK VINA RESULT:      -8.6      0.000      0.000
REMARK  Name = 
REMARK  2 active torsions:
REMARK  status: ('A' for Active; 'I' for Inactive)
REMARK    1  A    between atoms: C_9  and  C_10
REMARK    2  A    between atoms: C_17  and  N_18
REMARK                            x       y       z     vdW  Elec       q    Type
REMARK                         _______ _______ _______ _____ _____    ______ ____
ROOT
ATOM      1  F   UNL     1       1.543   1.099  19.272  0.00  0.00    +0.000 F 
ATOM      2  C   UNL     1       2.196   2.174  18.815  0.00  0.00    +0.000 A 
ATOM      3  C   UNL     1       3.327   2.000  18.026  0.00  0.00    +0.000 A 
ATOM      4  C   UNL     1       4.019   3.117  17.559  0.00  0.00    +0.000 A 
ATOM      5  C   UNL     1       3.580   4.411  17.888  0.00  0.00    +0.000 A 
ATOM      6  C   UNL     1       2.431   4.564  18.679  0.00  0.00    +0.000 A 
ATOM      7  C   UNL     1       1.736   3.445  19.137  0.00  0.00    +0.000 A 
ATOM      8  O   UNL     1       1.904   5.780  19.025  0.00  0.00    +0.000 OA
ATOM      9  C   UNL     1       2.808   6.890  18.905  0.00  0.00    +0.000 C 
ATOM     10  C   UNL     1       3.497   6.888  17.541  0.00  0.00    +0.000 C 
ATOM     11  C   UNL     1       4.351   5.624  17.422  0.00  0.00    +0.000 C 
ENDROOT
BRANCH   9  12
ATOM     12  C   UNL     1       2.040   8.175  19.148  0.00  0.00    +0.000 A 
ATOM     13  C   UNL     1       1.479   8.421  20.412  0.00  0.00    +0.000 A 
ATOM     14  C   UNL     1       0.750   9.587  20.655  0.00  0.00    +0.000 A 
ATOM     15  C   UNL     1       0.580  10.525  19.641  0.00  0.00    +0.000 A 
ATOM     16  C   UNL     1       1.145  10.302  18.385  0.00  0.00    +0.000 A 
ATOM     17  C   UNL     1       1.869   9.134  18.139  0.00  0.00    +0.000 A 
ENDBRANCH   9  12
BRANCH  11  18
ATOM     18  N   UNL     1       5.623   5.769  18.135  0.00  0.00    +0.000 N 
ATOM     19  C   UNL     1       6.759   6.419  17.724  0.00  0.00    +0.000 A 
ATOM     20  C   UNL     1       7.691   6.169  18.705  0.00  0.00    +0.000 A 
ATOM     21  N   UNL     1       7.148   5.414  19.708  0.00  0.00    +0.000 NA
ATOM     22  C   UNL     1       5.903   5.198  19.347  0.00  0.00    +0.000 A 
ENDBRANCH  11  18
TORSDOF 2
ENDMDL
MODEL 2
REMARK VINA RESULT:      -8.5      0.200      1.048
REMARK  Name = 
REMARK  2 active torsions:
REMARK  status: ('A' for Active; 'I' for Inactive)
REMARK    1  A    between atoms: C_9  and  C_10
REMARK    2  A    between atoms: C_17  and  N_18
REMARK                            x       y       z     vdW  Elec       q    Type
REMARK                         _______ _______ _______ _____ _____    ______ ____
ROOT
ATOM      1  F   UNL     1       1.366   1.208  19.010  0.00  0.00    +0.000 F 
ATOM      2  C   UNL     1       2.067   2.270  18.594  0.00  0.00    +0.000 A 
ATOM      3  C   UNL     1       3.216   2.075  17.838  0.00  0.00    +0.000 A 
ATOM      4  C   UNL     1       3.957   3.177  17.414  0.00  0.00    +0.000 A 
ATOM      5  C   UNL     1       3.547   4.479  17.754  0.00  0.00    +0.000 A 
ATOM      6  C   UNL     1       2.379   4.652  18.511  0.00  0.00    +0.000 A 
ATOM      7  C   UNL     1       1.636   3.549  18.926  0.00  0.00    +0.000 A 
ATOM      8  O   UNL     1       1.879   5.878  18.864  0.00  0.00    +0.000 OA
ATOM      9  C   UNL     1       2.820   6.961  18.793  0.00  0.00    +0.000 C 
ATOM     10  C   UNL     1       3.552   6.963  17.452  0.00  0.00    +0.000 C 
ATOM     11  C   UNL     1       4.370   5.674  17.336  0.00  0.00    +0.000 C 
ENDROOT
BRANCH   9  12
ATOM     12  C   UNL     1       2.084   8.265  19.037  0.00  0.00    +0.000 A 
ATOM     13  C   UNL     1       1.997   9.218  18.008  0.00  0.00    +0.000 A 
ATOM     14  C   UNL     1       1.343  10.433  18.215  0.00  0.00    +0.000 A 
ATOM     15  C   UNL     1       0.760  10.709  19.449  0.00  0.00    +0.000 A 
ATOM     16  C   UNL     1       0.824   9.766  20.475  0.00  0.00    +0.000 A 
ATOM     17  C   UNL     1       1.483   8.552  20.272  0.00  0.00    +0.000 A 
ENDBRANCH   9  12
BRANCH  11  18
ATOM     18  N   UNL     1       5.623   5.766  18.091  0.00  0.00    +0.000 N 
ATOM     19  C   UNL     1       6.811   6.329  17.701  0.00  0.00    +0.000 A 
ATOM     20  C   UNL     1       7.690   6.058  18.724  0.00  0.00    +0.000 A 
ATOM     21  N   UNL     1       7.064   5.377  19.732  0.00  0.00    +0.000 NA
ATOM     22  C   UNL     1       5.822   5.225  19.332  0.00  0.00    +0.000 A 
ENDBRANCH  11  18
TORSDOF 2
ENDMDL
MODEL 3
REMARK VINA RESULT:      -8.2      2.642      4.004
REMARK  Name = 
REMARK  2 active torsions:
REMARK  status: ('A' for Active; 'I' for Inactive)
REMARK    1  A    between atoms: C_9  and  C_10
REMARK    2  A    between atoms: C_17  and  N_18
REMARK                            x       y       z     vdW  Elec       q    Type
REMARK                         _______ _______ _______ _____ _____    ______ ____
ROOT
ATOM      1  F   UNL     1       6.680   5.370  14.047  0.00  0.00    +0.000 F 
ATOM      2  C   UNL     1       6.079   5.225  15.235  0.00  0.00    +0.000 A 
ATOM      3  C   UNL     1       6.328   4.085  15.990  0.00  0.00    +0.000 A 
ATOM      4  C   UNL     1       5.694   3.924  17.221  0.00  0.00    +0.000 A 
ATOM      5  C   UNL     1       4.804   4.904  17.694  0.00  0.00    +0.000 A 
ATOM      6  C   UNL     1       4.575   6.051  16.919  0.00  0.00    +0.000 A 
ATOM      7  C   UNL     1       5.216   6.213  15.692  0.00  0.00    +0.000 A 
ATOM      8  O   UNL     1       3.754   7.077  17.307  0.00  0.00    +0.000 OA
ATOM      9  C   UNL     1       2.811   6.744  18.338  0.00  0.00    +0.000 C 
ATOM     10  C   UNL     1       3.502   6.040  19.504  0.00  0.00    +0.000 C 
ATOM     11  C   UNL     1       4.081   4.713  19.006  0.00  0.00    +0.000 C 
ENDROOT
BRANCH   9  12
ATOM     12  C   UNL     1       2.104   8.010  18.781  0.00  0.00    +0.000 A 
ATOM     13  C   UNL     1       1.645   8.125  20.104  0.00  0.00    +0.000 A 
ATOM     14  C   UNL     1       0.974   9.272  20.530  0.00  0.00    +0.000 A 
ATOM     15  C   UNL     1       0.759  10.323  19.642  0.00  0.00    +0.000 A 
ATOM     16  C   UNL     1       1.222  10.231  18.330  0.00  0.00    +0.000 A 
ATOM     17  C   UNL     1       1.890   9.081  17.900  0.00  0.00    +0.000 A 
ENDBRANCH   9  12
BRANCH  11  18
ATOM     18  N   UNL     1       3.046   3.680  18.914  0.00  0.00    +0.000 N 
ATOM     19  C   UNL     1       2.679   2.758  19.860  0.00  0.00    +0.000 A 
ATOM     20  C   UNL     1       1.744   1.960  19.241  0.00  0.00    +0.000 A 
ATOM     21  N   UNL     1       1.514   2.388  17.962  0.00  0.00    +0.000 NA
ATOM     22  C   UNL     1       2.299   3.428  17.795  0.00  0.00    +0.000 A 
ENDBRANCH  11  18
TORSDOF 2
ENDMDL
MODEL 4
REMARK VINA RESULT:      -8.2      2.667      4.067
REMARK  Name = 
REMARK  2 active torsions:
REMARK  status: ('A' for Active; 'I' for Inactive)
REMARK    1  A    between atoms: C_9  and  C_10
REMARK    2  A    between atoms: C_17  and  N_18
REMARK                            x       y       z     vdW  Elec       q    Type
REMARK                         _______ _______ _______ _____ _____    ______ ____
ROOT
ATOM      1  F   UNL     1       6.676   5.383  14.086  0.00  0.00    +0.000 F 
ATOM      2  C   UNL     1       6.089   5.230  15.280  0.00  0.00    +0.000 A 
ATOM      3  C   UNL     1       6.368   4.097  16.036  0.00  0.00    +0.000 A 
ATOM      4  C   UNL     1       5.749   3.926  17.273  0.00  0.00    +0.000 A 
ATOM      5  C   UNL     1       4.843   4.890  17.751  0.00  0.00    +0.000 A 
ATOM      6  C   UNL     1       4.583   6.029  16.975  0.00  0.00    +0.000 A 
ATOM      7  C   UNL     1       5.210   6.201  15.742  0.00  0.00    +0.000 A 
ATOM      8  O   UNL     1       3.745   7.039  17.368  0.00  0.00    +0.000 OA
ATOM      9  C   UNL     1       2.818   6.690  18.409  0.00  0.00    +0.000 C 
ATOM     10  C   UNL     1       3.534   6.003  19.570  0.00  0.00    +0.000 C 
ATOM     11  C   UNL     1       4.136   4.687  19.071  0.00  0.00    +0.000 C 
ENDROOT
BRANCH   9  12
ATOM     12  C   UNL     1       2.089   7.943  18.855  0.00  0.00    +0.000 A 
ATOM     13  C   UNL     1       1.836   8.967  17.928  0.00  0.00    +0.000 A 
ATOM     14  C   UNL     1       1.184  10.139  18.319  0.00  0.00    +0.000 A 
ATOM     15  C   UNL     1       0.770  10.296  19.639  0.00  0.00    +0.000 A 
ATOM     16  C   UNL     1       0.999   9.281  20.566  0.00  0.00    +0.000 A 
ATOM     17  C   UNL     1       1.656   8.111  20.178  0.00  0.00    +0.000 A 
ENDBRANCH   9  12
BRANCH  11  18
ATOM     18  N   UNL     1       3.122   3.633  18.990  0.00  0.00    +0.000 N 
ATOM     19  C   UNL     1       2.408   3.221  17.894  0.00  0.00    +0.000 A 
ATOM     20  C   UNL     1       1.520   2.285  18.374  0.00  0.00    +0.000 A 
ATOM     21  N   UNL     1       1.695   2.096  19.718  0.00  0.00    +0.000 NA
ATOM     22  C   UNL     1       2.670   2.908  20.060  0.00  0.00    +0.000 A 
ENDBRANCH  11  18
TORSDOF 2
ENDMDL
MODEL 5
REMARK VINA RESULT:      -8.0      1.217      1.297
REMARK  Name = 
REMARK  2 active torsions:
REMARK  status: ('A' for Active; 'I' for Inactive)
REMARK    1  A    between atoms: C_9  and  C_10
REMARK    2  A    between atoms: C_17  and  N_18
REMARK                            x       y       z     vdW  Elec       q    Type
REMARK                         _______ _______ _______ _____ _____    ______ ____
ROOT
ATOM      1  F   UNL     1       1.834   1.917  22.169  0.00  0.00    +0.000 F 
ATOM      2  C   UNL     1       2.271   2.709  21.182  0.00  0.00    +0.000 A 
ATOM      3  C   UNL     1       3.148   2.196  20.233  0.00  0.00    +0.000 A 
ATOM      4  C   UNL     1       3.616   3.021  19.212  0.00  0.00    +0.000 A 
ATOM      5  C   UNL     1       3.210   4.365  19.144  0.00  0.00    +0.000 A 
ATOM      6  C   UNL     1       2.318   4.860  20.108  0.00  0.00    +0.000 A 
ATOM      7  C   UNL     1       1.845   4.030  21.123  0.00  0.00    +0.000 A 
ATOM      8  O   UNL     1       1.837   6.142  20.108  0.00  0.00    +0.000 OA
ATOM      9  C   UNL     1       2.605   7.080  19.337  0.00  0.00    +0.000 C 
ATOM     10  C   UNL     1       2.889   6.534  17.938  0.00  0.00    +0.000 C 
ATOM     11  C   UNL     1       3.749   5.275  18.066  0.00  0.00    +0.000 C 
ENDROOT
BRANCH   9  12
ATOM     12  C   UNL     1       1.859   8.400  19.289  0.00  0.00    +0.000 A 
ATOM     13  C   UNL     1       1.142   8.836  20.415  0.00  0.00    +0.000 A 
ATOM     14  C   UNL     1       0.432  10.037  20.388  0.00  0.00    +0.000 A 
ATOM     15  C   UNL     1       0.436  10.822  19.239  0.00  0.00    +0.000 A 
ATOM     16  C   UNL     1       1.157  10.411  18.118  0.00  0.00    +0.000 A 
ATOM     17  C   UNL     1       1.864   9.207  18.141  0.00  0.00    +0.000 A 
ENDBRANCH   9  12
BRANCH  11  18
ATOM     18  N   UNL     1       5.158   5.611  18.289  0.00  0.00    +0.000 N 
ATOM     19  C   UNL     1       6.006   6.308  17.467  0.00  0.00    +0.000 A 
ATOM     20  C   UNL     1       7.233   6.253  18.087  0.00  0.00    +0.000 A 
ATOM     21  N   UNL     1       7.148   5.571  19.270  0.00  0.00    +0.000 NA
ATOM     22  C   UNL     1       5.890   5.207  19.373  0.00  0.00    +0.000 A 
ENDBRANCH  11  18
TORSDOF 2
ENDMDL
MODEL 6
REMARK VINA RESULT:      -8.0      1.403      1.989
REMARK  Name = 
REMARK  2 active torsions:
REMARK  status: ('A' for Active; 'I' for Inactive)
REMARK    1  A    between atoms: C_9  and  C_10
REMARK    2  A    between atoms: C_17  and  N_18
REMARK                            x       y       z     vdW  Elec       q    Type
REMARK                         _______ _______ _______ _____ _____    ______ ____
ROOT
ATOM      1  F   UNL     1       2.388   1.986  22.082  0.00  0.00    +0.000 F 
ATOM      2  C   UNL     1       2.555   2.827  21.054  0.00  0.00    +0.000 A 
ATOM      3  C   UNL     1       3.162   2.369  19.890  0.00  0.00    +0.000 A 
ATOM      4  C   UNL     1       3.351   3.245  18.822  0.00  0.00    +0.000 A 
ATOM      5  C   UNL     1       2.936   4.584  18.922  0.00  0.00    +0.000 A 
ATOM      6  C   UNL     1       2.317   5.023  20.103  0.00  0.00    +0.000 A 
ATOM      7  C   UNL     1       2.122   4.143  21.166  0.00  0.00    +0.000 A 
ATOM      8  O   UNL     1       1.848   6.297  20.285  0.00  0.00    +0.000 OA
ATOM      9  C   UNL     1       2.390   7.278  19.387  0.00  0.00    +0.000 C 
ATOM     10  C   UNL     1       2.309   6.798  17.939  0.00  0.00    +0.000 C 
ATOM     11  C   UNL     1       3.179   5.548  17.784  0.00  0.00    +0.000 C 
ENDROOT
BRANCH   9  12
ATOM     12  C   UNL     1       1.653   8.588  19.591  0.00  0.00    +0.000 A 
ATOM     13  C   UNL     1       1.495   9.473  18.511  0.00  0.00    +0.000 A 
ATOM     14  C   UNL     1       0.837  10.693  18.679  0.00  0.00    +0.000 A 
ATOM     15  C   UNL     1       0.322  11.040  19.925  0.00  0.00    +0.000 A 
ATOM     16  C   UNL     1       0.456  10.165  21.002  0.00  0.00    +0.000 A 
ATOM     17  C   UNL     1       1.119   8.946  20.837  0.00  0.00    +0.000 A 
ENDBRANCH   9  12
BRANCH  11  18
ATOM     18  N   UNL     1       4.596   5.895  17.656  0.00  0.00    +0.000 N 
ATOM     19  C   UNL     1       5.625   5.601  18.514  0.00  0.00    +0.000 A 
ATOM     20  C   UNL     1       6.725   6.240  17.990  0.00  0.00    +0.000 A 
ATOM     21  N   UNL     1       6.401   6.886  16.828  0.00  0.00    +0.000 NA
ATOM     22  C   UNL     1       5.121   6.653  16.644  0.00  0.00    +0.000 A 
ENDBRANCH  11  18
TORSDOF 2
ENDMDL
MODEL 7
REMARK VINA RESULT:      -8.0      1.210      1.639
REMARK  Name = 
REMARK  2 active torsions:
REMARK  status: ('A' for Active; 'I' for Inactive)
REMARK    1  A    between atoms: C_9  and  C_10
REMARK    2  A    between atoms: C_17  and  N_18
REMARK                            x       y       z     vdW  Elec       q    Type
REMARK                         _______ _______ _______ _____ _____    ______ ____
ROOT
ATOM      1  F   UNL     1       1.835   1.907  22.147  0.00  0.00    +0.000 F 
ATOM      2  C   UNL     1       2.276   2.699  21.162  0.00  0.00    +0.000 A 
ATOM      3  C   UNL     1       3.153   2.184  20.215  0.00  0.00    +0.000 A 
ATOM      4  C   UNL     1       3.627   3.009  19.195  0.00  0.00    +0.000 A 
ATOM      5  C   UNL     1       3.225   4.354  19.128  0.00  0.00    +0.000 A 
ATOM      6  C   UNL     1       2.332   4.850  20.090  0.00  0.00    +0.000 A 
ATOM      7  C   UNL     1       1.854   4.021  21.103  0.00  0.00    +0.000 A 
ATOM      8  O   UNL     1       1.855   6.135  20.091  0.00  0.00    +0.000 OA
ATOM      9  C   UNL     1       2.628   7.070  19.322  0.00  0.00    +0.000 C 
ATOM     10  C   UNL     1       2.913   6.525  17.924  0.00  0.00    +0.000 C 
ATOM     11  C   UNL     1       3.770   5.263  18.052  0.00  0.00    +0.000 C 
ENDROOT
BRANCH   9  12
ATOM     12  C   UNL     1       1.887   8.393  19.274  0.00  0.00    +0.000 A 
ATOM     13  C   UNL     1       1.925   9.170  18.104  0.00  0.00    +0.000 A 
ATOM     14  C   UNL     1       1.269  10.400  18.042  0.00  0.00    +0.000 A 
ATOM     15  C   UNL     1       0.558  10.865  19.145  0.00  0.00    +0.000 A 
ATOM     16  C   UNL     1       0.497  10.098  20.307  0.00  0.00    +0.000 A 
ATOM     17  C   UNL     1       1.158   8.870  20.373  0.00  0.00    +0.000 A 
ENDBRANCH   9  12
BRANCH  11  18
ATOM     18  N   UNL     1       5.179   5.594  18.278  0.00  0.00    +0.000 N 
ATOM     19  C   UNL     1       6.026   6.305  17.468  0.00  0.00    +0.000 A 
ATOM     20  C   UNL     1       7.254   6.239  18.084  0.00  0.00    +0.000 A 
ATOM     21  N   UNL     1       7.170   5.536  19.256  0.00  0.00    +0.000 NA
ATOM     22  C   UNL     1       5.912   5.171  19.354  0.00  0.00    +0.000 A 
ENDBRANCH  11  18
TORSDOF 2
ENDMDL
MODEL 8
REMARK VINA RESULT:      -7.9      3.324      5.963
REMARK  Name = 
REMARK  2 active torsions:
REMARK  status: ('A' for Active; 'I' for Inactive)
REMARK    1  A    between atoms: C_9  and  C_10
REMARK    2  A    between atoms: C_17  and  N_18
REMARK                            x       y       z     vdW  Elec       q    Type
REMARK                         _______ _______ _______ _____ _____    ______ ____
ROOT
ATOM      1  F   UNL     1       1.288   4.636  19.154  0.00  0.00    +0.000 F 
ATOM      2  C   UNL     1       2.591   4.699  18.857  0.00  0.00    +0.000 A 
ATOM      3  C   UNL     1       3.511   4.935  19.872  0.00  0.00    +0.000 A 
ATOM      4  C   UNL     1       4.869   5.016  19.566  0.00  0.00    +0.000 A 
ATOM      5  C   UNL     1       5.305   4.864  18.238  0.00  0.00    +0.000 A 
ATOM      6  C   UNL     1       4.360   4.618  17.230  0.00  0.00    +0.000 A 
ATOM      7  C   UNL     1       3.004   4.530  17.541  0.00  0.00    +0.000 A 
ATOM      8  O   UNL     1       4.687   4.423  15.915  0.00  0.00    +0.000 OA
ATOM      9  C   UNL     1       5.989   4.899  15.535  0.00  0.00    +0.000 C 
ATOM     10  C   UNL     1       7.057   4.406  16.510  0.00  0.00    +0.000 C 
ATOM     11  C   UNL     1       6.770   4.995  17.894  0.00  0.00    +0.000 C 
ENDROOT
BRANCH   9  12
ATOM     12  C   UNL     1       6.275   4.458  14.113  0.00  0.00    +0.000 A 
ATOM     13  C   UNL     1       7.392   4.973  13.435  0.00  0.00    +0.000 A 
ATOM     14  C   UNL     1       7.665   4.598  12.119  0.00  0.00    +0.000 A 
ATOM     15  C   UNL     1       6.830   3.696  11.466  0.00  0.00    +0.000 A 
ATOM     16  C   UNL     1       5.726   3.162  12.130  0.00  0.00    +0.000 A 
ATOM     17  C   UNL     1       5.448   3.541  13.445  0.00  0.00    +0.000 A 
ENDBRANCH   9  12
BRANCH  11  18
ATOM     18  N   UNL     1       7.233   6.382  17.991  0.00  0.00    +0.000 N 
ATOM     19  C   UNL     1       6.834   7.465  17.250  0.00  0.00    +0.000 A 
ATOM     20  C   UNL     1       7.643   8.499  17.660  0.00  0.00    +0.000 A 
ATOM     21  N   UNL     1       8.498   8.084  18.644  0.00  0.00    +0.000 NA
ATOM     22  C   UNL     1       8.223   6.813  18.832  0.00  0.00    +0.000 A 
ENDBRANCH  11  18
TORSDOF 2
ENDMDL
MODEL 9
REMARK VINA RESULT:      -7.9      3.340      5.948
REMARK  Name = 
REMARK  2 active torsions:
REMARK  status: ('A' for Active; 'I' for Inactive)
REMARK    1  A    between atoms: C_9  and  C_10
REMARK    2  A    between atoms: C_17  and  N_18
REMARK                            x       y       z     vdW  Elec       q    Type
REMARK                         _______ _______ _______ _____ _____    ______ ____
ROOT
ATOM      1  F   UNL     1       1.267   4.619  19.062  0.00  0.00    +0.000 F 
ATOM      2  C   UNL     1       2.574   4.682  18.779  0.00  0.00    +0.000 A 
ATOM      3  C   UNL     1       3.483   4.903  19.807  0.00  0.00    +0.000 A 
ATOM      4  C   UNL     1       4.845   4.982  19.515  0.00  0.00    +0.000 A 
ATOM      5  C   UNL     1       5.294   4.846  18.190  0.00  0.00    +0.000 A 
ATOM      6  C   UNL     1       4.359   4.616  17.170  0.00  0.00    +0.000 A 
ATOM      7  C   UNL     1       3.000   4.528  17.466  0.00  0.00    +0.000 A 
ATOM      8  O   UNL     1       4.699   4.436  15.856  0.00  0.00    +0.000 OA
ATOM      9  C   UNL     1       6.006   4.912  15.496  0.00  0.00    +0.000 C 
ATOM     10  C   UNL     1       7.062   4.404  16.475  0.00  0.00    +0.000 C 
ATOM     11  C   UNL     1       6.763   4.977  17.863  0.00  0.00    +0.000 C 
ENDROOT
BRANCH   9  12
ATOM     12  C   UNL     1       6.306   4.488  14.070  0.00  0.00    +0.000 A 
ATOM     13  C   UNL     1       5.480   3.544  13.437  0.00  0.00    +0.000 A 
ATOM     14  C   UNL     1       5.747   3.122  12.134  0.00  0.00    +0.000 A 
ATOM     15  C   UNL     1       6.837   3.645  11.443  0.00  0.00    +0.000 A 
ATOM     16  C   UNL     1       7.656   4.595  12.052  0.00  0.00    +0.000 A 
ATOM     17  C   UNL     1       7.394   5.014  13.358  0.00  0.00    +0.000 A 
ENDBRANCH   9  12
BRANCH  11  18
ATOM     18  N   UNL     1       7.229   6.361  17.982  0.00  0.00    +0.000 N 
ATOM     19  C   UNL     1       6.831   7.457  17.259  0.00  0.00    +0.000 A 
ATOM     20  C   UNL     1       7.644   8.482  17.685  0.00  0.00    +0.000 A 
ATOM     21  N   UNL     1       8.499   8.049  18.661  0.00  0.00    +0.000 NA
ATOM     22  C   UNL     1       8.221   6.776  18.829  0.00  0.00    +0.000 A 
ENDBRANCH  11  18
TORSDOF 2
ENDMDL
