MODEL 1
REMARK VINA RESULT:      -7.2      0.000      0.000
REMARK  Name = 
REMARK  16 active torsions:
REMARK  status: ('A' for Active; 'I' for Inactive)
REMARK    1  A    between atoms: C_1  and  O_2
REMARK    2  A    between atoms: O_2  and  C_3
REMARK    3  A    between atoms: C_5  and  C_6
REMARK    4  A    between atoms: C_6  and  O_7
REMARK    5  A    between atoms: O_7  and  C_8
REMARK    6  A    between atoms: C_9  and  O_10
REMARK    7  A    between atoms: O_10  and  C_11
REMARK    8  A    between atoms: C_13  and  C_14
REMARK    9  A    between atoms: C_14  and  C_15
REMARK   10  A    between atoms: C_21  and  N_22
REMARK   11  A    between atoms: C_24  and  O_25
REMARK   12  A    between atoms: O_25  and  C_26
REMARK   13  A    between atoms: C_28  and  O_29
REMARK   14  A    between atoms: O_29  and  C_30
REMARK   15  A    between atoms: C_31  and  O_32
REMARK   16  A    between atoms: O_32  and  C_33
REMARK                            x       y       z     vdW  Elec       q    Type
REMARK                         _______ _______ _______ _____ _____    ______ ____
ROOT
ATOM      1  C   UNL     1       0.263   9.995  20.022  0.00  0.00    +0.000 A 
ATOM      2  C   UNL     1      -0.630  10.400  18.991  0.00  0.00    +0.000 A 
ATOM      3  C   UNL     1      -1.555  11.417  19.246  0.00  0.00    +0.000 A 
ATOM      4  C   UNL     1      -1.674  12.001  20.505  0.00  0.00    +0.000 A 
ATOM      5  C   UNL     1      -0.887  11.494  21.547  0.00  0.00    +0.000 A 
ATOM      6  C   UNL     1       0.089  10.513  21.318  0.00  0.00    +0.000 A 
ENDROOT
BRANCH   2   7
ATOM      7  O   UNL     1      -0.508   9.847  17.741  0.00  0.00    +0.000 OA
ATOM      8  C   UNL     1      -1.666   9.758  16.915  0.00  0.00    +0.000 C 
ENDBRANCH   2   7
BRANCH   6   9
ATOM      9  O   UNL     1       0.761  10.220  22.477  0.00  0.00    +0.000 OA
ATOM     10  C   UNL     1       0.097   9.537  23.533  0.00  0.00    +0.000 C 
ENDBRANCH   6   9
BRANCH   1  11
ATOM     11  O   UNL     1       1.301   9.106  19.823  0.00  0.00    +0.000 OA
BRANCH  11  12
ATOM     12  C   UNL     1       1.205   7.895  20.581  0.00  0.00    +0.000 C 
BRANCH  12  15
ATOM     13  C   UNL     1       3.457   5.856  18.249  0.00  0.00    +0.000 A 
ATOM     14  C   UNL     1       2.606   6.872  18.723  0.00  0.00    +0.000 A 
ATOM     15  C   UNL     1       1.916   6.733  19.924  0.00  0.00    +0.000 A 
ATOM     16  C   UNL     1       2.018   5.521  20.612  0.00  0.00    +0.000 A 
ATOM     17  C   UNL     1       2.810   4.472  20.130  0.00  0.00    +0.000 A 
ATOM     18  C   UNL     1       3.546   4.624  18.935  0.00  0.00    +0.000 A 
BRANCH  13  20
ATOM     19  C   UNL     1       5.481   6.647  17.289  0.00  0.00    +0.000 C 
ATOM     20  O   UNL     1       4.192   6.057  17.105  0.00  0.00    +0.000 OA
ENDBRANCH  13  20
BRANCH  17  21
ATOM     21  O   UNL     1       2.732   3.358  20.933  0.00  0.00    +0.000 OA
ATOM     22  C   UNL     1       1.439   2.938  21.348  0.00  0.00    +0.000 C 
ENDBRANCH  17  21
BRANCH  18  23
ATOM     23  O   UNL     1       4.278   3.530  18.564  0.00  0.00    +0.000 OA
ATOM     24  C   UNL     1       3.709   2.501  17.776  0.00  0.00    +0.000 C 
ENDBRANCH  18  23
ENDBRANCH  12  15
ENDBRANCH  11  12
ENDBRANCH   1  11
BRANCH   4  25
ATOM     25  C   UNL     1      -2.567  13.194  20.704  0.00  0.00    +0.000 C 
BRANCH  25  26
ATOM     26  C   UNL     1      -3.967  12.901  21.135  0.00  0.00    +0.000 A 
ATOM     27  C   UNL     1      -4.278  12.792  22.475  0.00  0.00    +0.000 A 
ATOM     28  N   UNL     1      -5.524  12.623  22.946  0.00  0.00    +0.000 NA
ATOM     29  C   UNL     1      -6.489  12.521  22.034  0.00  0.00    +0.000 A 
ATOM     30  N   UNL     1      -7.786  12.427  22.496  0.00  0.00    +0.000 N 
ATOM     31  N   UNL     1      -6.301  12.581  20.713  0.00  0.00    +0.000 NA
ATOM     32  C   UNL     1      -5.043  12.758  20.280  0.00  0.00    +0.000 A 
ATOM     33  H   UNL     1      -7.830  12.799  23.435  0.00  0.00    +0.000 HD
ATOM     34  H   UNL     1      -8.420  12.817  21.815  0.00  0.00    +0.000 HD
BRANCH  32  35
ATOM     35  N   UNL     1      -4.898  12.770  18.891  0.00  0.00    +0.000 N 
ATOM     36  H   UNL     1      -4.023  13.255  18.695  0.00  0.00    +0.000 HD
ATOM     37  H   UNL     1      -4.905  11.842  18.490  0.00  0.00    +0.000 HD
ENDBRANCH  32  35
ENDBRANCH  25  26
ENDBRANCH   4  25
TORSDOF 11
ENDMDL
MODEL 2
REMARK VINA RESULT:      -7.2      0.900      2.435
REMARK  Name = 
REMARK  16 active torsions:
REMARK  status: ('A' for Active; 'I' for Inactive)
REMARK    1  A    between atoms: C_1  and  O_2
REMARK    2  A    between atoms: O_2  and  C_3
REMARK    3  A    between atoms: C_5  and  C_6
REMARK    4  A    between atoms: C_6  and  O_7
REMARK    5  A    between atoms: O_7  and  C_8
REMARK    6  A    between atoms: C_9  and  O_10
REMARK    7  A    between atoms: O_10  and  C_11
REMARK    8  A    between atoms: C_13  and  C_14
REMARK    9  A    between atoms: C_14  and  C_15
REMARK   10  A    between atoms: C_21  and  N_22
REMARK   11  A    between atoms: C_24  and  O_25
REMARK   12  A    between atoms: O_25  and  C_26
REMARK   13  A    between atoms: C_28  and  O_29
REMARK   14  A    between atoms: O_29  and  C_30
REMARK   15  A    between atoms: C_31  and  O_32
REMARK   16  A    between atoms: O_32  and  C_33
REMARK                            x       y       z     vdW  Elec       q    Type
REMARK                         _______ _______ _______ _____ _____    ______ ____
ROOT
ATOM      1  C   UNL     1      -0.360  10.260  19.867  0.00  0.00    +0.000 A 
ATOM      2  C   UNL     1      -0.239  10.940  21.110  0.00  0.00    +0.000 A 
ATOM      3  C   UNL     1      -1.043  12.055  21.363  0.00  0.00    +0.000 A 
ATOM      4  C   UNL     1      -1.915  12.563  20.402  0.00  0.00    +0.000 A 
ATOM      5  C   UNL     1      -1.920  11.971  19.133  0.00  0.00    +0.000 A 
ATOM      6  C   UNL     1      -1.168  10.818  18.860  0.00  0.00    +0.000 A 
ENDROOT
BRANCH   2   7
ATOM      7  O   UNL     1       0.600  10.436  22.072  0.00  0.00    +0.000 OA
ATOM      8  C   UNL     1       0.066   9.545  23.049  0.00  0.00    +0.000 C 
ENDBRANCH   2   7
BRANCH   6   9
ATOM      9  O   UNL     1      -1.378  10.399  17.571  0.00  0.00    +0.000 OA
ATOM     10  C   UNL     1      -2.465  10.923  16.818  0.00  0.00    +0.000 C 
ENDBRANCH   6   9
BRANCH   1  11
ATOM     11  O   UNL     1       0.282   9.070  19.585  0.00  0.00    +0.000 OA
BRANCH  11  12
ATOM     12  C   UNL     1       1.557   9.215  18.949  0.00  0.00    +0.000 C 
BRANCH  12  15
ATOM     13  C   UNL     1       4.034   6.561  17.731  0.00  0.00    +0.000 A 
ATOM     14  C   UNL     1       3.200   7.695  17.746  0.00  0.00    +0.000 A 
ATOM     15  C   UNL     1       2.277   7.898  18.768  0.00  0.00    +0.000 A 
ATOM     16  C   UNL     1       2.133   6.904  19.740  0.00  0.00    +0.000 A 
ATOM     17  C   UNL     1       2.908   5.738  19.713  0.00  0.00    +0.000 A 
ATOM     18  C   UNL     1       3.875   5.548  18.703  0.00  0.00    +0.000 A 
BRANCH  13  20
ATOM     19  C   UNL     1       6.304   6.885  17.111  0.00  0.00    +0.000 C 
ATOM     20  O   UNL     1       4.996   6.431  16.758  0.00  0.00    +0.000 OA
ENDBRANCH  13  20
BRANCH  17  21
ATOM     21  O   UNL     1       2.573   4.875  20.730  0.00  0.00    +0.000 OA
ATOM     22  C   UNL     1       1.314   4.220  20.648  0.00  0.00    +0.000 C 
ENDBRANCH  17  21
BRANCH  18  23
ATOM     23  O   UNL     1       4.566   4.369  18.779  0.00  0.00    +0.000 OA
ATOM     24  C   UNL     1       4.089   3.199  18.143  0.00  0.00    +0.000 C 
ENDBRANCH  18  23
ENDBRANCH  12  15
ENDBRANCH  11  12
ENDBRANCH   1  11
BRANCH   4  25
ATOM     25  C   UNL     1      -2.874  13.665  20.758  0.00  0.00    +0.000 C 
BRANCH  25  26
ATOM     26  C   UNL     1      -4.223  13.232  21.234  0.00  0.00    +0.000 A 
ATOM     27  C   UNL     1      -4.423  12.894  22.556  0.00  0.00    +0.000 A 
ATOM     28  N   UNL     1      -5.621  12.586  23.080  0.00  0.00    +0.000 NA
ATOM     29  C   UNL     1      -6.650  12.579  22.234  0.00  0.00    +0.000 A 
ATOM     30  N   UNL     1      -7.901  12.343  22.765  0.00  0.00    +0.000 N 
ATOM     31  N   UNL     1      -6.567  12.860  20.931  0.00  0.00    +0.000 NA
ATOM     32  C   UNL     1      -5.356  13.170  20.444  0.00  0.00    +0.000 A 
ATOM     33  H   UNL     1      -7.886  12.558  23.753  0.00  0.00    +0.000 HD
ATOM     34  H   UNL     1      -8.602  12.804  22.203  0.00  0.00    +0.000 HD
BRANCH  32  35
ATOM     35  N   UNL     1      -5.321  13.413  19.069  0.00  0.00    +0.000 N 
ATOM     36  H   UNL     1      -5.542  14.400  18.943  0.00  0.00    +0.000 HD
ATOM     37  H   UNL     1      -4.430  13.177  18.655  0.00  0.00    +0.000 HD
ENDBRANCH  32  35
ENDBRANCH  25  26
ENDBRANCH   4  25
TORSDOF 11
ENDMDL
MODEL 3
REMARK VINA RESULT:      -7.0      0.968      1.539
REMARK  Name = 
REMARK  16 active torsions:
REMARK  status: ('A' for Active; 'I' for Inactive)
REMARK    1  A    between atoms: C_1  and  O_2
REMARK    2  A    between atoms: O_2  and  C_3
REMARK    3  A    between atoms: C_5  and  C_6
REMARK    4  A    between atoms: C_6  and  O_7
REMARK    5  A    between atoms: O_7  and  C_8
REMARK    6  A    between atoms: C_9  and  O_10
REMARK    7  A    between atoms: O_10  and  C_11
REMARK    8  A    between atoms: C_13  and  C_14
REMARK    9  A    between atoms: C_14  and  C_15
REMARK   10  A    between atoms: C_21  and  N_22
REMARK   11  A    between atoms: C_24  and  O_25
REMARK   12  A    between atoms: O_25  and  C_26
REMARK   13  A    between atoms: C_28  and  O_29
REMARK   14  A    between atoms: O_29  and  C_30
REMARK   15  A    between atoms: C_31  and  O_32
REMARK   16  A    between atoms: O_32  and  C_33
REMARK                            x       y       z     vdW  Elec       q    Type
REMARK                         _______ _______ _______ _____ _____    ______ ____
ROOT
ATOM      1  C   UNL     1       0.342   9.944  19.871  0.00  0.00    +0.000 A 
ATOM      2  C   UNL     1      -0.597  10.431  18.920  0.00  0.00    +0.000 A 
ATOM      3  C   UNL     1      -1.429  11.500  19.264  0.00  0.00    +0.000 A 
ATOM      4  C   UNL     1      -1.412  12.062  20.539  0.00  0.00    +0.000 A 
ATOM      5  C   UNL     1      -0.584  11.480  21.508  0.00  0.00    +0.000 A 
ATOM      6  C   UNL     1       0.303  10.442  21.185  0.00  0.00    +0.000 A 
ENDROOT
BRANCH   2   7
ATOM      7  O   UNL     1      -0.609   9.901  17.655  0.00  0.00    +0.000 OA
ATOM      8  C   UNL     1      -1.849   9.821  16.955  0.00  0.00    +0.000 C 
ENDBRANCH   2   7
BRANCH   6   9
ATOM      9  O   UNL     1       1.040  10.078  22.283  0.00  0.00    +0.000 OA
ATOM     10  C   UNL     1       0.401   9.488  23.408  0.00  0.00    +0.000 C 
ENDBRANCH   6   9
BRANCH   1  11
ATOM     11  O   UNL     1       1.300   8.993  19.576  0.00  0.00    +0.000 OA
BRANCH  11  12
ATOM     12  C   UNL     1       1.412   7.939  20.537  0.00  0.00    +0.000 C 
BRANCH  12  15
ATOM     13  C   UNL     1       3.358   5.527  18.288  0.00  0.00    +0.000 A 
ATOM     14  C   UNL     1       2.617   6.647  18.711  0.00  0.00    +0.000 A 
ATOM     15  C   UNL     1       1.991   6.669  19.954  0.00  0.00    +0.000 A 
ATOM     16  C   UNL     1       2.039   5.517  20.743  0.00  0.00    +0.000 A 
ATOM     17  C   UNL     1       2.718   4.369  20.318  0.00  0.00    +0.000 A 
ATOM     18  C   UNL     1       3.391   4.356  19.078  0.00  0.00    +0.000 A 
BRANCH  13  20
ATOM     19  C   UNL     1       5.017   6.601  16.969  0.00  0.00    +0.000 C 
ATOM     20  O   UNL     1       4.038   5.567  17.094  0.00  0.00    +0.000 OA
ENDBRANCH  13  20
BRANCH  17  21
ATOM     21  O   UNL     1       2.600   3.339  21.221  0.00  0.00    +0.000 OA
ATOM     22  C   UNL     1       1.355   2.657  21.281  0.00  0.00    +0.000 C 
ENDBRANCH  17  21
BRANCH  18  23
ATOM     23  O   UNL     1       4.014   3.177  18.770  0.00  0.00    +0.000 OA
ATOM     24  C   UNL     1       3.376   2.199  17.971  0.00  0.00    +0.000 C 
ENDBRANCH  18  23
ENDBRANCH  12  15
ENDBRANCH  11  12
ENDBRANCH   1  11
BRANCH   4  25
ATOM     25  C   UNL     1      -2.204  13.306  20.828  0.00  0.00    +0.000 C 
BRANCH  25  26
ATOM     26  C   UNL     1      -3.289  13.172  21.847  0.00  0.00    +0.000 A 
ATOM     27  C   UNL     1      -4.541  12.722  21.480  0.00  0.00    +0.000 A 
ATOM     28  N   UNL     1      -5.540  12.486  22.347  0.00  0.00    +0.000 NA
ATOM     29  C   UNL     1      -5.281  12.750  23.627  0.00  0.00    +0.000 A 
ATOM     30  N   UNL     1      -6.264  12.440  24.544  0.00  0.00    +0.000 N 
ATOM     31  N   UNL     1      -4.118  13.215  24.091  0.00  0.00    +0.000 NA
ATOM     32  C   UNL     1      -3.143  13.432  23.196  0.00  0.00    +0.000 A 
ATOM     33  H   UNL     1      -6.881  11.746  24.145  0.00  0.00    +0.000 HD
ATOM     34  H   UNL     1      -5.842  12.225  25.436  0.00  0.00    +0.000 HD
BRANCH  32  35
ATOM     35  N   UNL     1      -1.965  13.959  23.730  0.00  0.00    +0.000 N 
ATOM     36  H   UNL     1      -2.210  14.360  24.634  0.00  0.00    +0.000 HD
ATOM     37  H   UNL     1      -1.234  13.266  23.820  0.00  0.00    +0.000 HD
ENDBRANCH  32  35
ENDBRANCH  25  26
ENDBRANCH   4  25
TORSDOF 11
ENDMDL
MODEL 4
REMARK VINA RESULT:      -7.0      1.192      2.747
REMARK  Name = 
REMARK  16 active torsions:
REMARK  status: ('A' for Active; 'I' for Inactive)
REMARK    1  A    between atoms: C_1  and  O_2
REMARK    2  A    between atoms: O_2  and  C_3
REMARK    3  A    between atoms: C_5  and  C_6
REMARK    4  A    between atoms: C_6  and  O_7
REMARK    5  A    between atoms: O_7  and  C_8
REMARK    6  A    between atoms: C_9  and  O_10
REMARK    7  A    between atoms: O_10  and  C_11
REMARK    8  A    between atoms: C_13  and  C_14
REMARK    9  A    between atoms: C_14  and  C_15
REMARK   10  A    between atoms: C_21  and  N_22
REMARK   11  A    between atoms: C_24  and  O_25
REMARK   12  A    between atoms: O_25  and  C_26
REMARK   13  A    between atoms: C_28  and  O_29
REMARK   14  A    between atoms: O_29  and  C_30
REMARK   15  A    between atoms: C_31  and  O_32
REMARK   16  A    between atoms: O_32  and  C_33
REMARK                            x       y       z     vdW  Elec       q    Type
REMARK                         _______ _______ _______ _____ _____    ______ ____
ROOT
ATOM      1  C   UNL     1      -0.269  10.283  20.146  0.00  0.00    +0.000 A 
ATOM      2  C   UNL     1      -0.236  11.003  21.373  0.00  0.00    +0.000 A 
ATOM      3  C   UNL     1      -0.988  12.174  21.500  0.00  0.00    +0.000 A 
ATOM      4  C   UNL     1      -1.718  12.696  20.434  0.00  0.00    +0.000 A 
ATOM      5  C   UNL     1      -1.627  12.055  19.192  0.00  0.00    +0.000 A 
ATOM      6  C   UNL     1      -0.927  10.849  19.040  0.00  0.00    +0.000 A 
ENDROOT
BRANCH   2   7
ATOM      7  O   UNL     1       0.461  10.487  22.436  0.00  0.00    +0.000 OA
ATOM      8  C   UNL     1      -0.220   9.637  23.355  0.00  0.00    +0.000 C 
ENDBRANCH   2   7
BRANCH   6   9
ATOM      9  O   UNL     1      -1.025  10.393  17.750  0.00  0.00    +0.000 OA
ATOM     10  C   UNL     1      -2.303  10.234  17.145  0.00  0.00    +0.000 C 
ENDBRANCH   6   9
BRANCH   1  11
ATOM     11  O   UNL     1       0.322   9.046  19.974  0.00  0.00    +0.000 OA
BRANCH  11  12
ATOM     12  C   UNL     1       1.700   9.089  19.589  0.00  0.00    +0.000 C 
BRANCH  12  15
ATOM     13  C   UNL     1       3.707   6.360  17.804  0.00  0.00    +0.000 A 
ATOM     14  C   UNL     1       3.015   7.562  18.040  0.00  0.00    +0.000 A 
ATOM     15  C   UNL     1       2.240   7.736  19.184  0.00  0.00    +0.000 A 
ATOM     16  C   UNL     1       2.091   6.655  20.056  0.00  0.00    +0.000 A 
ATOM     17  C   UNL     1       2.720   5.428  19.812  0.00  0.00    +0.000 A 
ATOM     18  C   UNL     1       3.542   5.260  18.677  0.00  0.00    +0.000 A 
BRANCH  13  20
ATOM     19  C   UNL     1       5.890   6.649  16.914  0.00  0.00    +0.000 C 
ATOM     20  O   UNL     1       4.534   6.248  16.712  0.00  0.00    +0.000 OA
ENDBRANCH  13  20
BRANCH  17  21
ATOM     21  O   UNL     1       2.404   4.490  20.766  0.00  0.00    +0.000 OA
ATOM     22  C   UNL     1       1.124   3.875  20.684  0.00  0.00    +0.000 C 
ENDBRANCH  17  21
BRANCH  18  23
ATOM     23  O   UNL     1       4.098   4.017  18.544  0.00  0.00    +0.000 OA
ATOM     24  C   UNL     1       3.493   3.028  17.731  0.00  0.00    +0.000 C 
ENDBRANCH  18  23
ENDBRANCH  12  15
ENDBRANCH  11  12
ENDBRANCH   1  11
BRANCH   4  25
ATOM     25  C   UNL     1      -2.636  13.867  20.648  0.00  0.00    +0.000 C 
BRANCH  25  26
ATOM     26  C   UNL     1      -3.685  13.696  21.698  0.00  0.00    +0.000 A 
ATOM     27  C   UNL     1      -4.730  12.817  21.505  0.00  0.00    +0.000 A 
ATOM     28  N   UNL     1      -5.660  12.537  22.434  0.00  0.00    +0.000 NA
ATOM     29  C   UNL     1      -5.556  13.197  23.586  0.00  0.00    +0.000 A 
ATOM     30  N   UNL     1      -6.452  12.868  24.583  0.00  0.00    +0.000 N 
ATOM     31  N   UNL     1      -4.605  14.091  23.872  0.00  0.00    +0.000 NA
ATOM     32  C   UNL     1      -3.691  14.338  22.922  0.00  0.00    +0.000 A 
ATOM     33  H   UNL     1      -6.818  11.943  24.406  0.00  0.00    +0.000 HD
ATOM     34  H   UNL     1      -6.032  13.033  25.486  0.00  0.00    +0.000 HD
BRANCH  32  35
ATOM     35  N   UNL     1      -2.747  15.312  23.257  0.00  0.00    +0.000 N 
ATOM     36  H   UNL     1      -2.787  16.019  22.525  0.00  0.00    +0.000 HD
ATOM     37  H   UNL     1      -2.911  15.715  24.169  0.00  0.00    +0.000 HD
ENDBRANCH  32  35
ENDBRANCH  25  26
ENDBRANCH   4  25
TORSDOF 11
ENDMDL
MODEL 5
REMARK VINA RESULT:      -7.0      1.322      1.876
REMARK  Name = 
REMARK  16 active torsions:
REMARK  status: ('A' for Active; 'I' for Inactive)
REMARK    1  A    between atoms: C_1  and  O_2
REMARK    2  A    between atoms: O_2  and  C_3
REMARK    3  A    between atoms: C_5  and  C_6
REMARK    4  A    between atoms: C_6  and  O_7
REMARK    5  A    between atoms: O_7  and  C_8
REMARK    6  A    between atoms: C_9  and  O_10
REMARK    7  A    between atoms: O_10  and  C_11
REMARK    8  A    between atoms: C_13  and  C_14
REMARK    9  A    between atoms: C_14  and  C_15
REMARK   10  A    between atoms: C_21  and  N_22
REMARK   11  A    between atoms: C_24  and  O_25
REMARK   12  A    between atoms: O_25  and  C_26
REMARK   13  A    between atoms: C_28  and  O_29
REMARK   14  A    between atoms: O_29  and  C_30
REMARK   15  A    between atoms: C_31  and  O_32
REMARK   16  A    between atoms: O_32  and  C_33
REMARK                            x       y       z     vdW  Elec       q    Type
REMARK                         _______ _______ _______ _____ _____    ______ ____
ROOT
ATOM      1  C   UNL     1      -0.319   9.992  18.462  0.00  0.00    +0.000 A 
ATOM      2  C   UNL     1      -1.451  10.608  17.860  0.00  0.00    +0.000 A 
ATOM      3  C   UNL     1      -2.096  11.654  18.525  0.00  0.00    +0.000 A 
ATOM      4  C   UNL     1      -1.704  12.068  19.797  0.00  0.00    +0.000 A 
ATOM      5  C   UNL     1      -0.680  11.357  20.437  0.00  0.00    +0.000 A 
ATOM      6  C   UNL     1       0.026  10.339  19.781  0.00  0.00    +0.000 A 
ENDROOT
BRANCH   2   7
ATOM      7  O   UNL     1      -1.833  10.225  16.599  0.00  0.00    +0.000 OA
ATOM      8  C   UNL     1      -2.879  10.945  15.951  0.00  0.00    +0.000 C 
ENDBRANCH   2   7
BRANCH   6   9
ATOM      9  O   UNL     1       1.010   9.833  20.591  0.00  0.00    +0.000 OA
ATOM     10  C   UNL     1       0.690   9.370  21.898  0.00  0.00    +0.000 C 
ENDBRANCH   6   9
BRANCH   1  11
ATOM     11  O   UNL     1       0.468   9.054  17.821  0.00  0.00    +0.000 OA
BRANCH  11  12
ATOM     12  C   UNL     1       1.872   9.183  18.068  0.00  0.00    +0.000 C 
BRANCH  12  15
ATOM     13  C   UNL     1       4.422   6.335  17.840  0.00  0.00    +0.000 A 
ATOM     14  C   UNL     1       3.647   7.457  17.493  0.00  0.00    +0.000 A 
ATOM     15  C   UNL     1       2.558   7.850  18.266  0.00  0.00    +0.000 A 
ATOM     16  C   UNL     1       2.194   7.051  19.353  0.00  0.00    +0.000 A 
ATOM     17  C   UNL     1       2.912   5.896  19.684  0.00  0.00    +0.000 A 
ATOM     18  C   UNL     1       4.043   5.518  18.929  0.00  0.00    +0.000 A 
BRANCH  13  20
ATOM     19  C   UNL     1       5.311   5.322  15.884  0.00  0.00    +0.000 C 
ATOM     20  O   UNL     1       5.542   6.023  17.108  0.00  0.00    +0.000 OA
ENDBRANCH  13  20
BRANCH  17  21
ATOM     21  O   UNL     1       2.358   5.235  20.756  0.00  0.00    +0.000 OA
ATOM     22  C   UNL     1       1.283   4.343  20.492  0.00  0.00    +0.000 C 
ENDBRANCH  17  21
BRANCH  18  23
ATOM     23  O   UNL     1       4.658   4.369  19.344  0.00  0.00    +0.000 OA
ATOM     24  C   UNL     1       4.336   3.116  18.770  0.00  0.00    +0.000 C 
ENDBRANCH  18  23
ENDBRANCH  12  15
ENDBRANCH  11  12
ENDBRANCH   1  11
BRANCH   4  25
ATOM     25  C   UNL     1      -2.317  13.292  20.417  0.00  0.00    +0.000 C 
BRANCH  25  26
ATOM     26  C   UNL     1      -3.606  13.085  21.144  0.00  0.00    +0.000 A 
ATOM     27  C   UNL     1      -4.810  13.261  20.495  0.00  0.00    +0.000 A 
ATOM     28  N   UNL     1      -6.008  13.006  21.049  0.00  0.00    +0.000 NA
ATOM     29  C   UNL     1      -5.993  12.595  22.317  0.00  0.00    +0.000 A 
ATOM     30  N   UNL     1      -7.205  12.251  22.881  0.00  0.00    +0.000 N 
ATOM     31  N   UNL     1      -4.891  12.419  23.050  0.00  0.00    +0.000 NA
ATOM     32  C   UNL     1      -3.713  12.677  22.460  0.00  0.00    +0.000 A 
ATOM     33  H   UNL     1      -7.862  12.033  22.144  0.00  0.00    +0.000 HD
ATOM     34  H   UNL     1      -7.062  11.552  23.594  0.00  0.00    +0.000 HD
BRANCH  32  35
ATOM     35  N   UNL     1      -2.598  12.518  23.285  0.00  0.00    +0.000 N 
ATOM     36  H   UNL     1      -2.650  11.573  23.663  0.00  0.00    +0.000 HD
ATOM     37  H   UNL     1      -1.727  12.672  22.796  0.00  0.00    +0.000 HD
ENDBRANCH  32  35
ENDBRANCH  25  26
ENDBRANCH   4  25
TORSDOF 11
ENDMDL
MODEL 6
REMARK VINA RESULT:      -7.0      1.544      2.491
REMARK  Name = 
REMARK  16 active torsions:
REMARK  status: ('A' for Active; 'I' for Inactive)
REMARK    1  A    between atoms: C_1  and  O_2
REMARK    2  A    between atoms: O_2  and  C_3
REMARK    3  A    between atoms: C_5  and  C_6
REMARK    4  A    between atoms: C_6  and  O_7
REMARK    5  A    between atoms: O_7  and  C_8
REMARK    6  A    between atoms: C_9  and  O_10
REMARK    7  A    between atoms: O_10  and  C_11
REMARK    8  A    between atoms: C_13  and  C_14
REMARK    9  A    between atoms: C_14  and  C_15
REMARK   10  A    between atoms: C_21  and  N_22
REMARK   11  A    between atoms: C_24  and  O_25
REMARK   12  A    between atoms: O_25  and  C_26
REMARK   13  A    between atoms: C_28  and  O_29
REMARK   14  A    between atoms: O_29  and  C_30
REMARK   15  A    between atoms: C_31  and  O_32
REMARK   16  A    between atoms: O_32  and  C_33
REMARK                            x       y       z     vdW  Elec       q    Type
REMARK                         _______ _______ _______ _____ _____    ______ ____
ROOT
ATOM      1  C   UNL     1       0.770  10.709  20.053  0.00  0.00    +0.000 A 
ATOM      2  C   UNL     1      -0.234  10.510  21.040  0.00  0.00    +0.000 A 
ATOM      3  C   UNL     1      -1.300  11.411  21.125  0.00  0.00    +0.000 A 
ATOM      4  C   UNL     1      -1.371  12.541  20.313  0.00  0.00    +0.000 A 
ATOM      5  C   UNL     1      -0.302  12.800  19.444  0.00  0.00    +0.000 A 
ATOM      6  C   UNL     1       0.755  11.892  19.293  0.00  0.00    +0.000 A 
ENDROOT
BRANCH   2   7
ATOM      7  O   UNL     1      -0.187   9.390  21.831  0.00  0.00    +0.000 OA
ATOM      8  C   UNL     1      -0.237   9.548  23.247  0.00  0.00    +0.000 C 
ENDBRANCH   2   7
BRANCH   6   9
ATOM      9  O   UNL     1       1.647  12.341  18.353  0.00  0.00    +0.000 OA
ATOM     10  C   UNL     1       2.255  13.618  18.498  0.00  0.00    +0.000 C 
ENDBRANCH   6   9
BRANCH   1  11
ATOM     11  O   UNL     1       1.777   9.798  19.799  0.00  0.00    +0.000 OA
BRANCH  11  12
ATOM     12  C   UNL     1       1.594   9.021  18.610  0.00  0.00    +0.000 C 
BRANCH  12  15
ATOM     13  C   UNL     1       4.154   6.243  17.983  0.00  0.00    +0.000 A 
ATOM     14  C   UNL     1       3.339   7.371  17.777  0.00  0.00    +0.000 A 
ATOM     15  C   UNL     1       2.312   7.691  18.661  0.00  0.00    +0.000 A 
ATOM     16  C   UNL     1       2.048   6.814  19.716  0.00  0.00    +0.000 A 
ATOM     17  C   UNL     1       2.805   5.653  19.908  0.00  0.00    +0.000 A 
ATOM     18  C   UNL     1       3.875   5.347  19.040  0.00  0.00    +0.000 A 
BRANCH  13  20
ATOM     19  C   UNL     1       6.235   7.001  17.126  0.00  0.00    +0.000 C 
ATOM     20  O   UNL     1       5.215   6.001  17.143  0.00  0.00    +0.000 OA
ENDBRANCH  13  20
BRANCH  17  21
ATOM     21  O   UNL     1       2.349   4.912  20.973  0.00  0.00    +0.000 OA
ATOM     22  C   UNL     1       1.268   4.019  20.737  0.00  0.00    +0.000 C 
ENDBRANCH  17  21
BRANCH  18  23
ATOM     23  O   UNL     1       4.538   4.185  19.326  0.00  0.00    +0.000 OA
ATOM     24  C   UNL     1       4.181   2.966  18.700  0.00  0.00    +0.000 C 
ENDBRANCH  18  23
ENDBRANCH  12  15
ENDBRANCH  11  12
ENDBRANCH   1  11
BRANCH   4  25
ATOM     25  C   UNL     1      -2.602  13.403  20.322  0.00  0.00    +0.000 C 
BRANCH  25  26
ATOM     26  C   UNL     1      -3.906  12.686  20.187  0.00  0.00    +0.000 A 
ATOM     27  C   UNL     1      -4.766  12.590  21.262  0.00  0.00    +0.000 A 
ATOM     28  N   UNL     1      -5.992  12.045  21.198  0.00  0.00    +0.000 NA
ATOM     29  C   UNL     1      -6.351  11.543  20.018  0.00  0.00    +0.000 A 
ATOM     30  N   UNL     1      -7.636  11.050  19.908  0.00  0.00    +0.000 N 
ATOM     31  N   UNL     1      -5.591  11.554  18.920  0.00  0.00    +0.000 NA
ATOM     32  C   UNL     1      -4.375  12.112  19.020  0.00  0.00    +0.000 A 
ATOM     33  H   UNL     1      -8.210  11.462  20.630  0.00  0.00    +0.000 HD
ATOM     34  H   UNL     1      -7.955  11.142  18.954  0.00  0.00    +0.000 HD
BRANCH  32  35
ATOM     35  N   UNL     1      -3.607  12.058  17.855  0.00  0.00    +0.000 N 
ATOM     36  H   UNL     1      -4.121  12.577  17.145  0.00  0.00    +0.000 HD
ATOM     37  H   UNL     1      -2.676  12.430  17.984  0.00  0.00    +0.000 HD
ENDBRANCH  32  35
ENDBRANCH  25  26
ENDBRANCH   4  25
TORSDOF 11
ENDMDL
MODEL 7
REMARK VINA RESULT:      -6.9      1.438      1.695
REMARK  Name = 
REMARK  16 active torsions:
REMARK  status: ('A' for Active; 'I' for Inactive)
REMARK    1  A    between atoms: C_1  and  O_2
REMARK    2  A    between atoms: O_2  and  C_3
REMARK    3  A    between atoms: C_5  and  C_6
REMARK    4  A    between atoms: C_6  and  O_7
REMARK    5  A    between atoms: O_7  and  C_8
REMARK    6  A    between atoms: C_9  and  O_10
REMARK    7  A    between atoms: O_10  and  C_11
REMARK    8  A    between atoms: C_13  and  C_14
REMARK    9  A    between atoms: C_14  and  C_15
REMARK   10  A    between atoms: C_21  and  N_22
REMARK   11  A    between atoms: C_24  and  O_25
REMARK   12  A    between atoms: O_25  and  C_26
REMARK   13  A    between atoms: C_28  and  O_29
REMARK   14  A    between atoms: O_29  and  C_30
REMARK   15  A    between atoms: C_31  and  O_32
REMARK   16  A    between atoms: O_32  and  C_33
REMARK                            x       y       z     vdW  Elec       q    Type
REMARK                         _______ _______ _______ _____ _____    ______ ____
ROOT
ATOM      1  C   UNL     1      -0.137   9.948  18.904  0.00  0.00    +0.000 A 
ATOM      2  C   UNL     1      -1.133  10.834  18.407  0.00  0.00    +0.000 A 
ATOM      3  C   UNL     1      -1.610  11.859  19.229  0.00  0.00    +0.000 A 
ATOM      4  C   UNL     1      -1.186  11.997  20.549  0.00  0.00    +0.000 A 
ATOM      5  C   UNL     1      -0.313  11.033  21.069  0.00  0.00    +0.000 A 
ATOM      6  C   UNL     1       0.228  10.023  20.260  0.00  0.00    +0.000 A 
ENDROOT
BRANCH   2   7
ATOM      7  O   UNL     1      -1.541  10.721  17.102  0.00  0.00    +0.000 OA
ATOM      8  C   UNL     1      -2.855  11.153  16.756  0.00  0.00    +0.000 C 
ENDBRANCH   2   7
BRANCH   6   9
ATOM      9  O   UNL     1       1.092   9.238  20.981  0.00  0.00    +0.000 OA
ATOM     10  C   UNL     1       1.034   9.231  22.402  0.00  0.00    +0.000 C 
ENDBRANCH   6   9
BRANCH   1  11
ATOM     11  O   UNL     1       0.497   9.001  18.123  0.00  0.00    +0.000 OA
BRANCH  11  12
ATOM     12  C   UNL     1       1.921   9.133  18.061  0.00  0.00    +0.000 C 
BRANCH  12  15
ATOM     13  C   UNL     1       4.534   6.353  17.726  0.00  0.00    +0.000 A 
ATOM     14  C   UNL     1       3.727   7.465  17.418  0.00  0.00    +0.000 A 
ATOM     15  C   UNL     1       2.642   7.813  18.217  0.00  0.00    +0.000 A 
ATOM     16  C   UNL     1       2.314   6.981  19.290  0.00  0.00    +0.000 A 
ATOM     17  C   UNL     1       3.064   5.835  19.583  0.00  0.00    +0.000 A 
ATOM     18  C   UNL     1       4.191   5.502  18.801  0.00  0.00    +0.000 A 
BRANCH  13  20
ATOM     19  C   UNL     1       5.409   5.762  15.599  0.00  0.00    +0.000 C 
ATOM     20  O   UNL     1       5.649   6.085  16.970  0.00  0.00    +0.000 OA
ENDBRANCH  13  20
BRANCH  17  21
ATOM     21  O   UNL     1       2.543   5.137  20.646  0.00  0.00    +0.000 OA
ATOM     22  C   UNL     1       1.267   4.534  20.474  0.00  0.00    +0.000 C 
ENDBRANCH  17  21
BRANCH  18  23
ATOM     23  O   UNL     1       4.840   4.359  19.180  0.00  0.00    +0.000 OA
ATOM     24  C   UNL     1       4.410   3.088  18.728  0.00  0.00    +0.000 C 
ENDBRANCH  18  23
ENDBRANCH  12  15
ENDBRANCH  11  12
ENDBRANCH   1  11
BRANCH   4  25
ATOM     25  C   UNL     1      -1.600  13.198  21.354  0.00  0.00    +0.000 C 
BRANCH  25  26
ATOM     26  C   UNL     1      -2.896  13.081  22.089  0.00  0.00    +0.000 A 
ATOM     27  C   UNL     1      -2.967  12.377  23.273  0.00  0.00    +0.000 A 
ATOM     28  N   UNL     1      -4.069  12.302  24.038  0.00  0.00    +0.000 NA
ATOM     29  C   UNL     1      -5.150  12.928  23.575  0.00  0.00    +0.000 A 
ATOM     30  N   UNL     1      -6.269  12.932  24.383  0.00  0.00    +0.000 N 
ATOM     31  N   UNL     1      -5.204  13.613  22.430  0.00  0.00    +0.000 NA
ATOM     32  C   UNL     1      -4.082  13.670  21.696  0.00  0.00    +0.000 A 
ATOM     33  H   UNL     1      -5.988  12.763  25.338  0.00  0.00    +0.000 HD
ATOM     34  H   UNL     1      -6.816  13.761  24.202  0.00  0.00    +0.000 HD
BRANCH  32  35
ATOM     35  N   UNL     1      -4.208  14.362  20.489  0.00  0.00    +0.000 N 
ATOM     36  H   UNL     1      -4.771  13.775  19.875  0.00  0.00    +0.000 HD
ATOM     37  H   UNL     1      -4.621  15.277  20.605  0.00  0.00    +0.000 HD
ENDBRANCH  32  35
ENDBRANCH  25  26
ENDBRANCH   4  25
TORSDOF 11
ENDMDL
MODEL 8
REMARK VINA RESULT:      -6.9      2.113      3.291
REMARK  Name = 
REMARK  16 active torsions:
REMARK  status: ('A' for Active; 'I' for Inactive)
REMARK    1  A    between atoms: C_1  and  O_2
REMARK    2  A    between atoms: O_2  and  C_3
REMARK    3  A    between atoms: C_5  and  C_6
REMARK    4  A    between atoms: C_6  and  O_7
REMARK    5  A    between atoms: O_7  and  C_8
REMARK    6  A    between atoms: C_9  and  O_10
REMARK    7  A    between atoms: O_10  and  C_11
REMARK    8  A    between atoms: C_13  and  C_14
REMARK    9  A    between atoms: C_14  and  C_15
REMARK   10  A    between atoms: C_21  and  N_22
REMARK   11  A    between atoms: C_24  and  O_25
REMARK   12  A    between atoms: O_25  and  C_26
REMARK   13  A    between atoms: C_28  and  O_29
REMARK   14  A    between atoms: O_29  and  C_30
REMARK   15  A    between atoms: C_31  and  O_32
REMARK   16  A    between atoms: O_32  and  C_33
REMARK                            x       y       z     vdW  Elec       q    Type
REMARK                         _______ _______ _______ _____ _____    ______ ____
ROOT
ATOM      1  C   UNL     1       1.164   8.888  20.199  0.00  0.00    +0.000 A 
ATOM      2  C   UNL     1       1.378   9.407  18.892  0.00  0.00    +0.000 A 
ATOM      3  C   UNL     1       0.553  10.429  18.416  0.00  0.00    +0.000 A 
ATOM      4  C   UNL     1      -0.522  10.911  19.161  0.00  0.00    +0.000 A 
ATOM      5  C   UNL     1      -0.808  10.294  20.386  0.00  0.00    +0.000 A 
ATOM      6  C   UNL     1       0.030   9.303  20.920  0.00  0.00    +0.000 A 
ENDROOT
BRANCH   2   7
ATOM      7  O   UNL     1       2.446   8.956  18.157  0.00  0.00    +0.000 OA
ATOM      8  C   UNL     1       2.261   7.834  17.296  0.00  0.00    +0.000 C 
ENDBRANCH   2   7
BRANCH   6   9
ATOM      9  O   UNL     1      -0.428   8.892  22.145  0.00  0.00    +0.000 OA
ATOM     10  C   UNL     1      -0.593   9.834  23.198  0.00  0.00    +0.000 C 
ENDBRANCH   6   9
BRANCH   1  11
ATOM     11  O   UNL     1       2.013   7.985  20.808  0.00  0.00    +0.000 OA
BRANCH  11  12
ATOM     12  C   UNL     1       1.503   6.650  20.896  0.00  0.00    +0.000 C 
BRANCH  12  15
ATOM     13  C   UNL     1       2.401   3.778  18.527  0.00  0.00    +0.000 A 
ATOM     14  C   UNL     1       1.707   4.552  19.477  0.00  0.00    +0.000 A 
ATOM     15  C   UNL     1       2.299   5.660  20.076  0.00  0.00    +0.000 A 
ATOM     16  C   UNL     1       3.635   5.940  19.780  0.00  0.00    +0.000 A 
ATOM     17  C   UNL     1       4.366   5.150  18.885  0.00  0.00    +0.000 A 
ATOM     18  C   UNL     1       3.757   4.051  18.242  0.00  0.00    +0.000 A 
BRANCH  13  20
ATOM     19  C   UNL     1       0.682   2.141  18.605  0.00  0.00    +0.000 C 
ATOM     20  O   UNL     1       1.761   2.743  17.888  0.00  0.00    +0.000 OA
ENDBRANCH  13  20
BRANCH  17  21
ATOM     21  O   UNL     1       5.670   5.572  18.774  0.00  0.00    +0.000 OA
ATOM     22  C   UNL     1       5.953   6.587  17.819  0.00  0.00    +0.000 C 
ENDBRANCH  17  21
BRANCH  18  23
ATOM     23  O   UNL     1       4.573   3.353  17.394  0.00  0.00    +0.000 OA
ATOM     24  C   UNL     1       4.799   3.792  16.067  0.00  0.00    +0.000 C 
ENDBRANCH  18  23
ENDBRANCH  12  15
ENDBRANCH  11  12
ENDBRANCH   1  11
BRANCH   4  25
ATOM     25  C   UNL     1      -1.292  12.112  18.689  0.00  0.00    +0.000 C 
BRANCH  25  26
ATOM     26  C   UNL     1      -2.730  11.881  18.357  0.00  0.00    +0.000 A 
ATOM     27  C   UNL     1      -3.708  12.081  19.308  0.00  0.00    +0.000 A 
ATOM     28  N   UNL     1      -5.026  11.985  19.064  0.00  0.00    +0.000 NA
ATOM     29  C   UNL     1      -5.371  11.636  17.826  0.00  0.00    +0.000 A 
ATOM     30  N   UNL     1      -6.719  11.608  17.532  0.00  0.00    +0.000 N 
ATOM     31  N   UNL     1      -4.511  11.388  16.835  0.00  0.00    +0.000 NA
ATOM     32  C   UNL     1      -3.203  11.501  17.115  0.00  0.00    +0.000 A 
ATOM     33  H   UNL     1      -7.213  12.190  18.194  0.00  0.00    +0.000 HD
ATOM     34  H   UNL     1      -6.857  11.804  16.551  0.00  0.00    +0.000 HD
BRANCH  32  35
ATOM     35  N   UNL     1      -2.349  11.189  16.055  0.00  0.00    +0.000 N 
ATOM     36  H   UNL     1      -2.763  11.598  15.218  0.00  0.00    +0.000 HD
ATOM     37  H   UNL     1      -1.406  11.525  16.202  0.00  0.00    +0.000 HD
ENDBRANCH  32  35
ENDBRANCH  25  26
ENDBRANCH   4  25
TORSDOF 11
ENDMDL
MODEL 9
REMARK VINA RESULT:      -6.9      1.842      2.401
REMARK  Name = 
REMARK  16 active torsions:
REMARK  status: ('A' for Active; 'I' for Inactive)
REMARK    1  A    between atoms: C_1  and  O_2
REMARK    2  A    between atoms: O_2  and  C_3
REMARK    3  A    between atoms: C_5  and  C_6
REMARK    4  A    between atoms: C_6  and  O_7
REMARK    5  A    between atoms: O_7  and  C_8
REMARK    6  A    between atoms: C_9  and  O_10
REMARK    7  A    between atoms: O_10  and  C_11
REMARK    8  A    between atoms: C_13  and  C_14
REMARK    9  A    between atoms: C_14  and  C_15
REMARK   10  A    between atoms: C_21  and  N_22
REMARK   11  A    between atoms: C_24  and  O_25
REMARK   12  A    between atoms: O_25  and  C_26
REMARK   13  A    between atoms: C_28  and  O_29
REMARK   14  A    between atoms: O_29  and  C_30
REMARK   15  A    between atoms: C_31  and  O_32
REMARK   16  A    between atoms: O_32  and  C_33
REMARK                            x       y       z     vdW  Elec       q    Type
REMARK                         _______ _______ _______ _____ _____    ______ ____
ROOT
ATOM      1  C   UNL     1       0.997  10.546  19.598  0.00  0.00    +0.000 A 
ATOM      2  C   UNL     1       1.052  11.828  18.985  0.00  0.00    +0.000 A 
ATOM      3  C   UNL     1       0.073  12.778  19.293  0.00  0.00    +0.000 A 
ATOM      4  C   UNL     1      -0.998  12.481  20.134  0.00  0.00    +0.000 A 
ATOM      5  C   UNL     1      -1.117  11.171  20.616  0.00  0.00    +0.000 A 
ATOM      6  C   UNL     1      -0.127  10.208  20.374  0.00  0.00    +0.000 A 
ENDROOT
BRANCH   2   7
ATOM      7  O   UNL     1       2.113  12.139  18.173  0.00  0.00    +0.000 OA
ATOM      8  C   UNL     1       2.599  13.479  18.163  0.00  0.00    +0.000 C 
ENDBRANCH   2   7
BRANCH   6   9
ATOM      9  O   UNL     1      -0.443   9.025  20.990  0.00  0.00    +0.000 OA
ATOM     10  C   UNL     1      -0.380   8.920  22.407  0.00  0.00    +0.000 C 
ENDBRANCH   6   9
BRANCH   1  11
ATOM     11  O   UNL     1       1.993   9.597  19.469  0.00  0.00    +0.000 OA
BRANCH  11  12
ATOM     12  C   UNL     1       1.898   8.786  18.294  0.00  0.00    +0.000 C 
BRANCH  12  15
ATOM     13  C   UNL     1       4.291   5.813  17.981  0.00  0.00    +0.000 A 
ATOM     14  C   UNL     1       3.562   6.973  17.659  0.00  0.00    +0.000 A 
ATOM     15  C   UNL     1       2.523   7.420  18.470  0.00  0.00    +0.000 A 
ATOM     16  C   UNL     1       2.158   6.641  19.571  0.00  0.00    +0.000 A 
ATOM     17  C   UNL     1       2.828   5.451  19.878  0.00  0.00    +0.000 A 
ATOM     18  C   UNL     1       3.910   5.016  19.084  0.00  0.00    +0.000 A 
BRANCH  13  20
ATOM     19  C   UNL     1       6.316   6.477  16.930  0.00  0.00    +0.000 C 
ATOM     20  O   UNL     1       5.368   5.445  17.210  0.00  0.00    +0.000 OA
ENDBRANCH  13  20
BRANCH  17  21
ATOM     21  O   UNL     1       2.279   4.819  20.970  0.00  0.00    +0.000 OA
ATOM     22  C   UNL     1       1.143   3.994  20.749  0.00  0.00    +0.000 C 
ENDBRANCH  17  21
BRANCH  18  23
ATOM     23  O   UNL     1       4.481   3.838  19.480  0.00  0.00    +0.000 OA
ATOM     24  C   UNL     1       4.036   2.598  18.962  0.00  0.00    +0.000 C 
ENDBRANCH  18  23
ENDBRANCH  12  15
ENDBRANCH  11  12
ENDBRANCH   1  11
BRANCH   4  25
ATOM     25  C   UNL     1      -1.943  13.567  20.565  0.00  0.00    +0.000 C 
BRANCH  25  26
ATOM     26  C   UNL     1      -2.786  13.266  21.763  0.00  0.00    +0.000 A 
ATOM     27  C   UNL     1      -4.068  12.782  21.611  0.00  0.00    +0.000 A 
ATOM     28  N   UNL     1      -4.854  12.401  22.633  0.00  0.00    +0.000 NA
ATOM     29  C   UNL     1      -4.343  12.549  23.854  0.00  0.00    +0.000 A 
ATOM     30  N   UNL     1      -5.101  12.091  24.913  0.00  0.00    +0.000 N 
ATOM     31  N   UNL     1      -3.128  13.034  24.120  0.00  0.00    +0.000 NA
ATOM     32  C   UNL     1      -2.370  13.398  23.074  0.00  0.00    +0.000 A 
ATOM     33  H   UNL     1      -5.761  11.405  24.574  0.00  0.00    +0.000 HD
ATOM     34  H   UNL     1      -4.494  11.813  25.670  0.00  0.00    +0.000 HD
BRANCH  32  35
ATOM     35  N   UNL     1      -1.127  13.937  23.411  0.00  0.00    +0.000 N 
ATOM     36  H   UNL     1      -1.085  13.955  24.430  0.00  0.00    +0.000 HD
ATOM     37  H   UNL     1      -0.355  13.415  23.019  0.00  0.00    +0.000 HD
ENDBRANCH  32  35
ENDBRANCH  25  26
ENDBRANCH   4  25
TORSDOF 11
ENDMDL
