MODEL 1
REMARK VINA RESULT:      -7.2      0.000      0.000
REMARK  Name = 
REMARK  6 active torsions:
REMARK  status: ('A' for Active; 'I' for Inactive)
REMARK    1  A    between atoms: C_2  and  C_3
REMARK    2  A    between atoms: C_3  and  N_4
REMARK    3  A    between atoms: N_4  and  C_5
REMARK    4  A    between atoms: C_17  and  C_19
REMARK    5  A    between atoms: C_19  and  N_20
REMARK    6  A    between atoms: N_20  and  C_21
REMARK                            x       y       z     vdW  Elec       q    Type
REMARK                         _______ _______ _______ _____ _____    ______ ____
ROOT
ATOM      1  O   UNL     1      -0.765  13.024  22.805  0.00  0.00    +0.000 OA
ATOM      2  C   UNL     1      -0.260  12.368  21.889  0.00  0.00    +0.000 C 
ATOM      3  N   UNL     1      -0.444  11.014  21.895  0.00  0.00    +0.000 N 
ATOM      4  C   UNL     1       0.044  10.128  20.978  0.00  0.00    +0.000 A 
ATOM      5  N   UNL     1       0.597  10.299  19.797  0.00  0.00    +0.000 NA
ATOM      6  C   UNL     1       1.274   9.127  19.432  0.00  0.00    +0.000 A 
ATOM      7  C   UNL     1       2.094   8.874  18.300  0.00  0.00    +0.000 A 
ATOM      8  C   UNL     1       2.903   7.707  18.237  0.00  0.00    +0.000 A 
ATOM      9  N   UNL     1       3.766   7.265  17.218  0.00  0.00    +0.000 NA
ATOM     10  C   UNL     1       4.340   6.142  17.588  0.00  0.00    +0.000 A 
ATOM     11  N   UNL     1       5.147   5.235  16.953  0.00  0.00    +0.000 N 
ATOM     12  C   UNL     1       5.699   5.406  15.716  0.00  0.00    +0.000 C 
ATOM     13  O   UNL     1       5.602   6.411  15.009  0.00  0.00    +0.000 OA
ATOM     14  S   UNL     1       4.046   5.624  19.179  0.00  0.00    +0.000 S 
ATOM     15  C   UNL     1       2.866   6.843  19.330  0.00  0.00    +0.000 A 
ATOM     16  C   UNL     1       1.968   7.008  20.365  0.00  0.00    +0.000 A 
ATOM     17  C   UNL     1       1.162   8.125  20.394  0.00  0.00    +0.000 A 
ATOM     18  S   UNL     1      -0.029   8.533  21.553  0.00  0.00    +0.000 S 
ATOM     19  H   UNL     1      -0.852  10.632  22.739  0.00  0.00    +0.000 HD
ATOM     20  H   UNL     1       5.397   4.420  17.496  0.00  0.00    +0.000 HD
ENDROOT
BRANCH   2  21
ATOM     21  C   UNL     1       0.596  12.967  20.770  0.00  0.00    +0.000 C 
BRANCH  21  22
ATOM     22  N   UNL     1       2.036  13.035  21.076  0.00  0.00    +0.000 NA
ATOM     23  H   UNL     1       2.535  12.472  20.384  0.00  0.00    +0.000 HD
BRANCH  22  24
ATOM     24  C   UNL     1       2.587  14.393  21.108  0.00  0.00    +0.000 C 
ATOM     25  C   UNL     1       3.835  14.710  21.880  0.00  0.00    +0.000 C 
ATOM     26  C   UNL     1       3.877  14.664  20.383  0.00  0.00    +0.000 C 
ENDBRANCH  22  24
ENDBRANCH  21  22
ENDBRANCH   2  21
BRANCH  12  27
ATOM     27  C   UNL     1       6.543   4.207  15.264  0.00  0.00    +0.000 C 
BRANCH  27  28
ATOM     28  N   UNL     1       5.814   3.348  14.317  0.00  0.00    +0.000 NA
ATOM     29  H   UNL     1       4.822   3.361  14.565  0.00  0.00    +0.000 HD
BRANCH  28  30
ATOM     30  C   UNL     1       5.995   3.684  12.905  0.00  0.00    +0.000 C 
ATOM     31  C   UNL     1       6.044   2.598  11.867  0.00  0.00    +0.000 C 
ATOM     32  C   UNL     1       4.836   3.484  11.969  0.00  0.00    +0.000 C 
ENDBRANCH  28  30
ENDBRANCH  27  28
ENDBRANCH  12  27
TORSDOF 6
ENDMDL
MODEL 2
REMARK VINA RESULT:      -7.0      1.145      1.329
REMARK  Name = 
REMARK  6 active torsions:
REMARK  status: ('A' for Active; 'I' for Inactive)
REMARK    1  A    between atoms: C_2  and  C_3
REMARK    2  A    between atoms: C_3  and  N_4
REMARK    3  A    between atoms: N_4  and  C_5
REMARK    4  A    between atoms: C_17  and  C_19
REMARK    5  A    between atoms: C_19  and  N_20
REMARK    6  A    between atoms: N_20  and  C_21
REMARK                            x       y       z     vdW  Elec       q    Type
REMARK                         _______ _______ _______ _____ _____    ______ ____
ROOT
ATOM      1  O   UNL     1      -0.737  12.530  23.087  0.00  0.00    +0.000 OA
ATOM      2  C   UNL     1      -0.222  11.930  22.139  0.00  0.00    +0.000 C 
ATOM      3  N   UNL     1      -0.397  10.576  22.068  0.00  0.00    +0.000 N 
ATOM      4  C   UNL     1       0.101   9.746  21.106  0.00  0.00    +0.000 A 
ATOM      5  N   UNL     1       0.660   9.986  19.940  0.00  0.00    +0.000 NA
ATOM      6  C   UNL     1       1.346   8.840  19.514  0.00  0.00    +0.000 A 
ATOM      7  C   UNL     1       2.174   8.656  18.374  0.00  0.00    +0.000 A 
ATOM      8  C   UNL     1       2.992   7.500  18.251  0.00  0.00    +0.000 A 
ATOM      9  N   UNL     1       3.863   7.120  17.215  0.00  0.00    +0.000 NA
ATOM     10  C   UNL     1       4.442   5.981  17.524  0.00  0.00    +0.000 A 
ATOM     11  N   UNL     1       5.259   5.117  16.845  0.00  0.00    +0.000 N 
ATOM     12  C   UNL     1       5.816   5.359  15.622  0.00  0.00    +0.000 C 
ATOM     13  O   UNL     1       5.716   6.402  14.972  0.00  0.00    +0.000 OA
ATOM     14  S   UNL     1       4.142   5.374  19.082  0.00  0.00    +0.000 S 
ATOM     15  C   UNL     1       2.954   6.575  19.294  0.00  0.00    +0.000 A 
ATOM     16  C   UNL     1       2.048   6.676  20.331  0.00  0.00    +0.000 A 
ATOM     17  C   UNL     1       1.235   7.785  20.418  0.00  0.00    +0.000 A 
ATOM     18  S   UNL     1       0.035   8.121  21.590  0.00  0.00    +0.000 S 
ATOM     19  H   UNL     1      -0.808  10.145  22.886  0.00  0.00    +0.000 HD
ATOM     20  H   UNL     1       5.511   4.274  17.343  0.00  0.00    +0.000 HD
ENDROOT
BRANCH   2  21
ATOM     21  C   UNL     1       0.636  12.595  21.060  0.00  0.00    +0.000 C 
BRANCH  21  22
ATOM     22  N   UNL     1      -0.134  13.241  19.982  0.00  0.00    +0.000 NA
ATOM     23  H   UNL     1      -1.124  13.036  20.132  0.00  0.00    +0.000 HD
BRANCH  22  24
ATOM     24  C   UNL     1       0.067  14.689  19.875  0.00  0.00    +0.000 C 
ATOM     25  C   UNL     1       1.290  15.259  19.216  0.00  0.00    +0.000 C 
ATOM     26  C   UNL     1      -0.035  15.332  18.519  0.00  0.00    +0.000 C 
ENDBRANCH  22  24
ENDBRANCH  21  22
ENDBRANCH   2  21
BRANCH  12  27
ATOM     27  C   UNL     1       6.670   4.193  15.109  0.00  0.00    +0.000 C 
BRANCH  27  28
ATOM     28  N   UNL     1       5.913   3.315  14.203  0.00  0.00    +0.000 NA
ATOM     29  H   UNL     1       4.930   3.327  14.485  0.00  0.00    +0.000 HD
BRANCH  28  30
ATOM     30  C   UNL     1       6.043   3.629  12.780  0.00  0.00    +0.000 C 
ATOM     31  C   UNL     1       6.230   2.528  11.774  0.00  0.00    +0.000 C 
ATOM     32  C   UNL     1       4.917   3.250  11.860  0.00  0.00    +0.000 C 
ENDBRANCH  28  30
ENDBRANCH  27  28
ENDBRANCH  12  27
TORSDOF 6
ENDMDL
MODEL 3
REMARK VINA RESULT:      -6.8      3.688      5.623
REMARK  Name = 
REMARK  6 active torsions:
REMARK  status: ('A' for Active; 'I' for Inactive)
REMARK    1  A    between atoms: C_2  and  C_3
REMARK    2  A    between atoms: C_3  and  N_4
REMARK    3  A    between atoms: N_4  and  C_5
REMARK    4  A    between atoms: C_17  and  C_19
REMARK    5  A    between atoms: C_19  and  N_20
REMARK    6  A    between atoms: N_20  and  C_21
REMARK                            x       y       z     vdW  Elec       q    Type
REMARK                         _______ _______ _______ _____ _____    ______ ____
ROOT
ATOM      1  O   UNL     1      -4.319  14.836  20.637  0.00  0.00    +0.000 OA
ATOM      2  C   UNL     1      -3.546  13.891  20.817  0.00  0.00    +0.000 C 
ATOM      3  N   UNL     1      -2.287  13.985  20.294  0.00  0.00    +0.000 N 
ATOM      4  C   UNL     1      -1.303  13.043  20.381  0.00  0.00    +0.000 A 
ATOM      5  N   UNL     1      -1.188  11.956  21.112  0.00  0.00    +0.000 NA
ATOM      6  C   UNL     1      -0.196  11.134  20.560  0.00  0.00    +0.000 A 
ATOM      7  C   UNL     1       0.208   9.826  20.943  0.00  0.00    +0.000 A 
ATOM      8  C   UNL     1       1.052   9.053  20.100  0.00  0.00    +0.000 A 
ATOM      9  N   UNL     1       1.573   7.761  20.292  0.00  0.00    +0.000 NA
ATOM     10  C   UNL     1       2.289   7.418  19.244  0.00  0.00    +0.000 A 
ATOM     11  N   UNL     1       3.104   6.354  18.958  0.00  0.00    +0.000 N 
ATOM     12  C   UNL     1       3.240   5.238  19.733  0.00  0.00    +0.000 C 
ATOM     13  O   UNL     1       2.619   4.993  20.769  0.00  0.00    +0.000 OA
ATOM     14  S   UNL     1       2.268   8.487  17.924  0.00  0.00    +0.000 S 
ATOM     15  C   UNL     1       1.447   9.623  18.891  0.00  0.00    +0.000 A 
ATOM     16  C   UNL     1       1.178  10.941  18.580  0.00  0.00    +0.000 A 
ATOM     17  C   UNL     1       0.389  11.691  19.425  0.00  0.00    +0.000 A 
ATOM     18  S   UNL     1      -0.062  13.334  19.261  0.00  0.00    +0.000 S 
ATOM     19  H   UNL     1      -2.134  14.760  19.662  0.00  0.00    +0.000 HD
ATOM     20  H   UNL     1       3.571   6.392  18.063  0.00  0.00    +0.000 HD
ENDROOT
BRANCH   2  21
ATOM     21  C   UNL     1      -3.918  12.601  21.553  0.00  0.00    +0.000 C 
BRANCH  21  22
ATOM     22  N   UNL     1      -5.259  12.615  22.164  0.00  0.00    +0.000 NA
ATOM     23  H   UNL     1      -5.338  13.455  22.740  0.00  0.00    +0.000 HD
BRANCH  22  24
ATOM     24  C   UNL     1      -6.365  12.561  21.204  0.00  0.00    +0.000 C 
ATOM     25  C   UNL     1      -6.827  11.257  20.619  0.00  0.00    +0.000 C 
ATOM     26  C   UNL     1      -7.671  11.956  21.642  0.00  0.00    +0.000 C 
ENDBRANCH  22  24
ENDBRANCH  21  22
ENDBRANCH   2  21
BRANCH  12  27
ATOM     27  C   UNL     1       4.241   4.227  19.160  0.00  0.00    +0.000 C 
BRANCH  27  28
ATOM     28  N   UNL     1       5.634   4.632  19.409  0.00  0.00    +0.000 NA
ATOM     29  H   UNL     1       6.166   3.806  19.692  0.00  0.00    +0.000 HD
BRANCH  28  30
ATOM     30  C   UNL     1       6.294   5.312  18.294  0.00  0.00    +0.000 C 
ATOM     31  C   UNL     1       7.669   5.895  18.467  0.00  0.00    +0.000 C 
ATOM     32  C   UNL     1       7.479   4.647  17.654  0.00  0.00    +0.000 C 
ENDBRANCH  28  30
ENDBRANCH  27  28
ENDBRANCH  12  27
TORSDOF 6
ENDMDL
MODEL 4
REMARK VINA RESULT:      -6.6      3.679      5.151
REMARK  Name = 
REMARK  6 active torsions:
REMARK  status: ('A' for Active; 'I' for Inactive)
REMARK    1  A    between atoms: C_2  and  C_3
REMARK    2  A    between atoms: C_3  and  N_4
REMARK    3  A    between atoms: N_4  and  C_5
REMARK    4  A    between atoms: C_17  and  C_19
REMARK    5  A    between atoms: C_19  and  N_20
REMARK    6  A    between atoms: N_20  and  C_21
REMARK                            x       y       z     vdW  Elec       q    Type
REMARK                         _______ _______ _______ _____ _____    ______ ____
ROOT
ATOM      1  O   UNL     1      -4.459  14.682  20.596  0.00  0.00    +0.000 OA
ATOM      2  C   UNL     1      -3.679  13.734  20.734  0.00  0.00    +0.000 C 
ATOM      3  N   UNL     1      -2.391  13.899  20.310  0.00  0.00    +0.000 N 
ATOM      4  C   UNL     1      -1.395  12.967  20.369  0.00  0.00    +0.000 A 
ATOM      5  N   UNL     1      -1.306  11.813  20.993  0.00  0.00    +0.000 NA
ATOM      6  C   UNL     1      -0.262  11.066  20.431  0.00  0.00    +0.000 A 
ATOM      7  C   UNL     1       0.144   9.732  20.708  0.00  0.00    +0.000 A 
ATOM      8  C   UNL     1       1.058   9.060  19.852  0.00  0.00    +0.000 A 
ATOM      9  N   UNL     1       1.593   7.763  19.948  0.00  0.00    +0.000 NA
ATOM     10  C   UNL     1       2.384   7.539  18.922  0.00  0.00    +0.000 A 
ATOM     11  N   UNL     1       3.239   6.521  18.588  0.00  0.00    +0.000 N 
ATOM     12  C   UNL     1       3.347   5.335  19.254  0.00  0.00    +0.000 C 
ATOM     13  O   UNL     1       2.663   4.977  20.216  0.00  0.00    +0.000 OA
ATOM     14  S   UNL     1       2.428   8.736  17.718  0.00  0.00    +0.000 S 
ATOM     15  C   UNL     1       1.521   9.757  18.736  0.00  0.00    +0.000 A 
ATOM     16  C   UNL     1       1.245  11.095  18.541  0.00  0.00    +0.000 A 
ATOM     17  C   UNL     1       0.386  11.744  19.401  0.00  0.00    +0.000 A 
ATOM     18  S   UNL     1      -0.087  13.388  19.372  0.00  0.00    +0.000 S 
ATOM     19  H   UNL     1      -2.212  14.736  19.771  0.00  0.00    +0.000 HD
ATOM     20  H   UNL     1       3.764   6.657  17.735  0.00  0.00    +0.000 HD
ENDROOT
BRANCH   2  21
ATOM     21  C   UNL     1      -4.072  12.371  21.309  0.00  0.00    +0.000 C 
BRANCH  21  22
ATOM     22  N   UNL     1      -4.734  12.434  22.625  0.00  0.00    +0.000 NA
ATOM     23  H   UNL     1      -5.348  11.622  22.711  0.00  0.00    +0.000 HD
BRANCH  22  24
ATOM     24  C   UNL     1      -3.814  12.488  23.765  0.00  0.00    +0.000 C 
ATOM     25  C   UNL     1      -3.594  13.762  24.529  0.00  0.00    +0.000 C 
ATOM     26  C   UNL     1      -4.387  12.650  25.146  0.00  0.00    +0.000 C 
ENDBRANCH  22  24
ENDBRANCH  21  22
ENDBRANCH   2  21
BRANCH  12  27
ATOM     27  C   UNL     1       4.405   4.402  18.653  0.00  0.00    +0.000 C 
BRANCH  27  28
ATOM     28  N   UNL     1       5.651   4.408  19.435  0.00  0.00    +0.000 NA
ATOM     29  H   UNL     1       6.194   3.578  19.188  0.00  0.00    +0.000 HD
BRANCH  28  30
ATOM     30  C   UNL     1       6.467   5.616  19.298  0.00  0.00    +0.000 C 
ATOM     31  C   UNL     1       7.909   5.515  18.888  0.00  0.00    +0.000 C 
ATOM     32  C   UNL     1       6.889   6.038  17.919  0.00  0.00    +0.000 C 
ENDBRANCH  28  30
ENDBRANCH  27  28
ENDBRANCH  12  27
TORSDOF 6
ENDMDL
MODEL 5
REMARK VINA RESULT:      -6.5      3.785      4.664
REMARK  Name = 
REMARK  6 active torsions:
REMARK  status: ('A' for Active; 'I' for Inactive)
REMARK    1  A    between atoms: C_2  and  C_3
REMARK    2  A    between atoms: C_3  and  N_4
REMARK    3  A    between atoms: N_4  and  C_5
REMARK    4  A    between atoms: C_17  and  C_19
REMARK    5  A    between atoms: C_19  and  N_20
REMARK    6  A    between atoms: N_20  and  C_21
REMARK                            x       y       z     vdW  Elec       q    Type
REMARK                         _______ _______ _______ _____ _____    ______ ____
ROOT
ATOM      1  O   UNL     1      -1.303  17.338  19.862  0.00  0.00    +0.000 OA
ATOM      2  C   UNL     1      -0.893  16.223  19.523  0.00  0.00    +0.000 C 
ATOM      3  N   UNL     1      -1.550  15.126  20.004  0.00  0.00    +0.000 N 
ATOM      4  C   UNL     1      -1.239  13.822  19.750  0.00  0.00    +0.000 A 
ATOM      5  N   UNL     1      -0.433  13.264  18.873  0.00  0.00    +0.000 NA
ATOM      6  C   UNL     1      -0.166  11.946  19.267  0.00  0.00    +0.000 A 
ATOM      7  C   UNL     1       0.720  10.995  18.693  0.00  0.00    +0.000 A 
ATOM      8  C   UNL     1       1.049   9.799  19.388  0.00  0.00    +0.000 A 
ATOM      9  N   UNL     1       1.881   8.734  19.001  0.00  0.00    +0.000 NA
ATOM     10  C   UNL     1       1.923   7.839  19.963  0.00  0.00    +0.000 A 
ATOM     11  N   UNL     1       2.461   6.583  20.067  0.00  0.00    +0.000 N 
ATOM     12  C   UNL     1       3.277   5.998  19.142  0.00  0.00    +0.000 C 
ATOM     13  O   UNL     1       3.694   6.522  18.107  0.00  0.00    +0.000 OA
ATOM     14  S   UNL     1       1.145   8.247  21.416  0.00  0.00    +0.000 S 
ATOM     15  C   UNL     1       0.480   9.613  20.647  0.00  0.00    +0.000 A 
ATOM     16  C   UNL     1      -0.489  10.460  21.146  0.00  0.00    +0.000 A 
ATOM     17  C   UNL     1      -0.825  11.597  20.444  0.00  0.00    +0.000 A 
ATOM     18  S   UNL     1      -1.998  12.775  20.849  0.00  0.00    +0.000 S 
ATOM     19  H   UNL     1      -2.232  15.309  20.730  0.00  0.00    +0.000 HD
ATOM     20  H   UNL     1       2.284   6.106  20.940  0.00  0.00    +0.000 HD
ENDROOT
BRANCH   2  21
ATOM     21  C   UNL     1       0.329  15.989  18.632  0.00  0.00    +0.000 C 
BRANCH  21  22
ATOM     22  N   UNL     1       1.593  15.805  19.369  0.00  0.00    +0.000 NA
ATOM     23  H   UNL     1       2.082  15.003  18.968  0.00  0.00    +0.000 HD
BRANCH  22  24
ATOM     24  C   UNL     1       2.472  16.978  19.370  0.00  0.00    +0.000 C 
ATOM     25  C   UNL     1       2.173  18.176  20.225  0.00  0.00    +0.000 C 
ATOM     26  C   UNL     1       3.299  17.258  20.594  0.00  0.00    +0.000 C 
ENDBRANCH  22  24
ENDBRANCH  21  22
ENDBRANCH   2  21
BRANCH  12  27
ATOM     27  C   UNL     1       3.704   4.577  19.531  0.00  0.00    +0.000 C 
BRANCH  27  28
ATOM     28  N   UNL     1       3.055   3.559  18.691  0.00  0.00    +0.000 NA
ATOM     29  H   UNL     1       3.391   2.637  18.979  0.00  0.00    +0.000 HD
BRANCH  28  30
ATOM     30  C   UNL     1       1.592   3.595  18.687  0.00  0.00    +0.000 C 
ATOM     31  C   UNL     1       0.801   2.321  18.802  0.00  0.00    +0.000 C 
ATOM     32  C   UNL     1       0.868   3.270  19.963  0.00  0.00    +0.000 C 
ENDBRANCH  28  30
ENDBRANCH  27  28
ENDBRANCH  12  27
TORSDOF 6
ENDMDL
MODEL 6
REMARK VINA RESULT:      -6.4      3.369      5.135
REMARK  Name = 
REMARK  6 active torsions:
REMARK  status: ('A' for Active; 'I' for Inactive)
REMARK    1  A    between atoms: C_2  and  C_3
REMARK    2  A    between atoms: C_3  and  N_4
REMARK    3  A    between atoms: N_4  and  C_5
REMARK    4  A    between atoms: C_17  and  C_19
REMARK    5  A    between atoms: C_19  and  N_20
REMARK    6  A    between atoms: N_20  and  C_21
REMARK                            x       y       z     vdW  Elec       q    Type
REMARK                         _______ _______ _______ _____ _____    ______ ____
ROOT
ATOM      1  O   UNL     1      -3.712  14.981  21.133  0.00  0.00    +0.000 OA
ATOM      2  C   UNL     1      -2.983  13.993  21.259  0.00  0.00    +0.000 C 
ATOM      3  N   UNL     1      -1.762  14.016  20.647  0.00  0.00    +0.000 N 
ATOM      4  C   UNL     1      -0.829  13.019  20.665  0.00  0.00    +0.000 A 
ATOM      5  N   UNL     1      -0.724  11.926  21.388  0.00  0.00    +0.000 NA
ATOM      6  C   UNL     1       0.178  11.050  20.768  0.00  0.00    +0.000 A 
ATOM      7  C   UNL     1       0.533   9.720  21.124  0.00  0.00    +0.000 A 
ATOM      8  C   UNL     1       1.269   8.902  20.224  0.00  0.00    +0.000 A 
ATOM      9  N   UNL     1       1.728   7.582  20.381  0.00  0.00    +0.000 NA
ATOM     10  C   UNL     1       2.347   7.201  19.285  0.00  0.00    +0.000 A 
ATOM     11  N   UNL     1       3.077   6.093  18.944  0.00  0.00    +0.000 N 
ATOM     12  C   UNL     1       3.204   4.970  19.709  0.00  0.00    +0.000 C 
ATOM     13  O   UNL     1       2.646   4.758  20.788  0.00  0.00    +0.000 OA
ATOM     14  S   UNL     1       2.291   8.272  17.968  0.00  0.00    +0.000 S 
ATOM     15  C   UNL     1       1.608   9.452  18.989  0.00  0.00    +0.000 A 
ATOM     16  C   UNL     1       1.393  10.784  18.696  0.00  0.00    +0.000 A 
ATOM     17  C   UNL     1       0.711  11.575  19.593  0.00  0.00    +0.000 A 
ATOM     18  S   UNL     1       0.344  13.241  19.459  0.00  0.00    +0.000 S 
ATOM     19  H   UNL     1      -1.610  14.783  20.004  0.00  0.00    +0.000 HD
ATOM     20  H   UNL     1       3.480   6.107  18.017  0.00  0.00    +0.000 HD
ENDROOT
BRANCH   2  21
ATOM     21  C   UNL     1      -3.374  12.725  22.022  0.00  0.00    +0.000 C 
BRANCH  21  22
ATOM     22  N   UNL     1      -4.828  12.516  22.150  0.00  0.00    +0.000 NA
ATOM     23  H   UNL     1      -5.003  11.510  22.183  0.00  0.00    +0.000 HD
BRANCH  22  24
ATOM     24  C   UNL     1      -5.435  13.167  23.315  0.00  0.00    +0.000 C 
ATOM     25  C   UNL     1      -6.760  13.867  23.214  0.00  0.00    +0.000 C 
ATOM     26  C   UNL     1      -6.664  12.552  23.925  0.00  0.00    +0.000 C 
ENDBRANCH  22  24
ENDBRANCH  21  22
ENDBRANCH   2  21
BRANCH  12  27
ATOM     27  C   UNL     1       4.103   3.905  19.068  0.00  0.00    +0.000 C 
BRANCH  27  28
ATOM     28  N   UNL     1       5.266   4.502  18.392  0.00  0.00    +0.000 NA
ATOM     29  H   UNL     1       6.113   4.210  18.885  0.00  0.00    +0.000 HD
BRANCH  28  30
ATOM     30  C   UNL     1       5.374   4.206  16.963  0.00  0.00    +0.000 C 
ATOM     31  C   UNL     1       5.551   5.320  15.969  0.00  0.00    +0.000 C 
ATOM     32  C   UNL     1       6.703   4.413  16.291  0.00  0.00    +0.000 C 
ENDBRANCH  28  30
ENDBRANCH  27  28
ENDBRANCH  12  27
TORSDOF 6
ENDMDL
MODEL 7
REMARK VINA RESULT:      -6.4      3.707      5.367
REMARK  Name = 
REMARK  6 active torsions:
REMARK  status: ('A' for Active; 'I' for Inactive)
REMARK    1  A    between atoms: C_2  and  C_3
REMARK    2  A    between atoms: C_3  and  N_4
REMARK    3  A    between atoms: N_4  and  C_5
REMARK    4  A    between atoms: C_17  and  C_19
REMARK    5  A    between atoms: C_19  and  N_20
REMARK    6  A    between atoms: N_20  and  C_21
REMARK                            x       y       z     vdW  Elec       q    Type
REMARK                         _______ _______ _______ _____ _____    ______ ____
ROOT
ATOM      1  O   UNL     1      -4.620  14.833  20.583  0.00  0.00    +0.000 OA
ATOM      2  C   UNL     1      -3.822  13.909  20.772  0.00  0.00    +0.000 C 
ATOM      3  N   UNL     1      -2.560  14.040  20.267  0.00  0.00    +0.000 N 
ATOM      4  C   UNL     1      -1.550  13.126  20.365  0.00  0.00    +0.000 A 
ATOM      5  N   UNL     1      -1.415  12.041  21.095  0.00  0.00    +0.000 NA
ATOM      6  C   UNL     1      -0.392  11.248  20.555  0.00  0.00    +0.000 A 
ATOM      7  C   UNL     1       0.043   9.952  20.941  0.00  0.00    +0.000 A 
ATOM      8  C   UNL     1       0.920   9.205  20.108  0.00  0.00    +0.000 A 
ATOM      9  N   UNL     1       1.476   7.927  20.303  0.00  0.00    +0.000 NA
ATOM     10  C   UNL     1       2.215   7.608  19.265  0.00  0.00    +0.000 A 
ATOM     11  N   UNL     1       3.064   6.569  18.988  0.00  0.00    +0.000 N 
ATOM     12  C   UNL     1       3.221   5.455  19.762  0.00  0.00    +0.000 C 
ATOM     13  O   UNL     1       2.592   5.189  20.789  0.00  0.00    +0.000 OA
ATOM     14  S   UNL     1       2.182   8.680  17.948  0.00  0.00    +0.000 S 
ATOM     15  C   UNL     1       1.316   9.790  18.906  0.00  0.00    +0.000 A 
ATOM     16  C   UNL     1       1.014  11.101  18.595  0.00  0.00    +0.000 A 
ATOM     17  C   UNL     1       0.193  11.826  19.430  0.00  0.00    +0.000 A 
ATOM     18  S   UNL     1      -0.302  13.455  19.264  0.00  0.00    +0.000 S 
ATOM     19  H   UNL     1      -2.419  14.821  19.639  0.00  0.00    +0.000 HD
ATOM     20  H   UNL     1       3.543   6.623  18.100  0.00  0.00    +0.000 HD
ENDROOT
BRANCH   2  21
ATOM     21  C   UNL     1      -4.168  12.607  21.499  0.00  0.00    +0.000 C 
BRANCH  21  22
ATOM     22  N   UNL     1      -3.658  12.527  22.880  0.00  0.00    +0.000 NA
ATOM     23  H   UNL     1      -2.730  12.953  22.902  0.00  0.00    +0.000 HD
BRANCH  22  24
ATOM     24  C   UNL     1      -4.522  13.157  23.883  0.00  0.00    +0.000 C 
ATOM     25  C   UNL     1      -6.011  12.962  23.864  0.00  0.00    +0.000 C 
ATOM     26  C   UNL     1      -5.184  12.284  24.914  0.00  0.00    +0.000 C 
ENDBRANCH  22  24
ENDBRANCH  21  22
ENDBRANCH   2  21
BRANCH  12  27
ATOM     27  C   UNL     1       4.258   4.475  19.201  0.00  0.00    +0.000 C 
BRANCH  27  28
ATOM     28  N   UNL     1       3.884   3.984  17.865  0.00  0.00    +0.000 NA
ATOM     29  H   UNL     1       4.739   3.803  17.334  0.00  0.00    +0.000 HD
BRANCH  28  30
ATOM     30  C   UNL     1       3.014   2.808  17.855  0.00  0.00    +0.000 C 
ATOM     31  C   UNL     1       3.587   1.438  18.088  0.00  0.00    +0.000 C 
ATOM     32  C   UNL     1       2.761   2.097  19.154  0.00  0.00    +0.000 C 
ENDBRANCH  28  30
ENDBRANCH  27  28
ENDBRANCH  12  27
TORSDOF 6
ENDMDL
MODEL 8
REMARK VINA RESULT:      -6.3      3.625      4.547
REMARK  Name = 
REMARK  6 active torsions:
REMARK  status: ('A' for Active; 'I' for Inactive)
REMARK    1  A    between atoms: C_2  and  C_3
REMARK    2  A    between atoms: C_3  and  N_4
REMARK    3  A    between atoms: N_4  and  C_5
REMARK    4  A    between atoms: C_17  and  C_19
REMARK    5  A    between atoms: C_19  and  N_20
REMARK    6  A    between atoms: N_20  and  C_21
REMARK                            x       y       z     vdW  Elec       q    Type
REMARK                         _______ _______ _______ _____ _____    ______ ____
ROOT
ATOM      1  O   UNL     1      -1.668  17.292  20.106  0.00  0.00    +0.000 OA
ATOM      2  C   UNL     1      -1.225  16.207  19.715  0.00  0.00    +0.000 C 
ATOM      3  N   UNL     1      -1.806  15.068  20.198  0.00  0.00    +0.000 N 
ATOM      4  C   UNL     1      -1.449  13.787  19.892  0.00  0.00    +0.000 A 
ATOM      5  N   UNL     1      -0.665  13.291  18.959  0.00  0.00    +0.000 NA
ATOM      6  C   UNL     1      -0.318  11.977  19.302  0.00  0.00    +0.000 A 
ATOM      7  C   UNL     1       0.580  11.083  18.657  0.00  0.00    +0.000 A 
ATOM      8  C   UNL     1       0.998   9.887  19.300  0.00  0.00    +0.000 A 
ATOM      9  N   UNL     1       1.858   8.873  18.841  0.00  0.00    +0.000 NA
ATOM     10  C   UNL     1       1.990   7.956  19.774  0.00  0.00    +0.000 A 
ATOM     11  N   UNL     1       2.589   6.724  19.815  0.00  0.00    +0.000 N 
ATOM     12  C   UNL     1       3.382   6.202  18.834  0.00  0.00    +0.000 C 
ATOM     13  O   UNL     1       3.721   6.772  17.795  0.00  0.00    +0.000 OA
ATOM     14  S   UNL     1       1.270   8.288  21.276  0.00  0.00    +0.000 S 
ATOM     15  C   UNL     1       0.505   9.642  20.580  0.00  0.00    +0.000 A 
ATOM     16  C   UNL     1      -0.475  10.429  21.152  0.00  0.00    +0.000 A 
ATOM     17  C   UNL     1      -0.898  11.566  20.500  0.00  0.00    +0.000 A 
ATOM     18  S   UNL     1      -2.101  12.677  20.997  0.00  0.00    +0.000 S 
ATOM     19  H   UNL     1      -2.456  15.199  20.962  0.00  0.00    +0.000 HD
ATOM     20  H   UNL     1       2.479   6.217  20.682  0.00  0.00    +0.000 HD
ENDROOT
BRANCH   2  21
ATOM     21  C   UNL     1      -0.041  16.054  18.758  0.00  0.00    +0.000 C 
BRANCH  21  22
ATOM     22  N   UNL     1       1.244  15.766  19.421  0.00  0.00    +0.000 NA
ATOM     23  H   UNL     1       1.095  15.007  20.088  0.00  0.00    +0.000 HD
BRANCH  22  24
ATOM     24  C   UNL     1       2.335  15.420  18.505  0.00  0.00    +0.000 C 
ATOM     25  C   UNL     1       3.737  15.215  19.005  0.00  0.00    +0.000 C 
ATOM     26  C   UNL     1       2.920  14.035  18.571  0.00  0.00    +0.000 C 
ENDBRANCH  22  24
ENDBRANCH  21  22
ENDBRANCH   2  21
BRANCH  12  27
ATOM     27  C   UNL     1       3.893   4.794  19.161  0.00  0.00    +0.000 C 
BRANCH  27  28
ATOM     28  N   UNL     1       3.049   3.750  18.559  0.00  0.00    +0.000 NA
ATOM     29  H   UNL     1       3.655   3.071  18.092  0.00  0.00    +0.000 HD
BRANCH  28  30
ATOM     30  C   UNL     1       2.139   3.074  19.485  0.00  0.00    +0.000 C 
ATOM     31  C   UNL     1       0.689   2.896  19.129  0.00  0.00    +0.000 C 
ATOM     32  C   UNL     1       1.617   1.716  19.108  0.00  0.00    +0.000 C 
ENDBRANCH  28  30
ENDBRANCH  27  28
ENDBRANCH  12  27
TORSDOF 6
ENDMDL
MODEL 9
REMARK VINA RESULT:      -6.2      3.051      3.957
REMARK  Name = 
REMARK  6 active torsions:
REMARK  status: ('A' for Active; 'I' for Inactive)
REMARK    1  A    between atoms: C_2  and  C_3
REMARK    2  A    between atoms: C_3  and  N_4
REMARK    3  A    between atoms: N_4  and  C_5
REMARK    4  A    between atoms: C_17  and  C_19
REMARK    5  A    between atoms: C_19  and  N_20
REMARK    6  A    between atoms: N_20  and  C_21
REMARK                            x       y       z     vdW  Elec       q    Type
REMARK                         _______ _______ _______ _____ _____    ______ ____
ROOT
ATOM      1  O   UNL     1      -1.719  17.008  20.472  0.00  0.00    +0.000 OA
ATOM      2  C   UNL     1      -1.299  15.943  20.010  0.00  0.00    +0.000 C 
ATOM      3  N   UNL     1      -1.808  14.781  20.517  0.00  0.00    +0.000 N 
ATOM      4  C   UNL     1      -1.462  13.514  20.143  0.00  0.00    +0.000 A 
ATOM      5  N   UNL     1      -0.766  13.058  19.124  0.00  0.00    +0.000 NA
ATOM      6  C   UNL     1      -0.364  11.743  19.395  0.00  0.00    +0.000 A 
ATOM      7  C   UNL     1       0.480  10.885  18.640  0.00  0.00    +0.000 A 
ATOM      8  C   UNL     1       0.982   9.681  19.205  0.00  0.00    +0.000 A 
ATOM      9  N   UNL     1       1.809   8.696  18.636  0.00  0.00    +0.000 NA
ATOM     10  C   UNL     1       2.050   7.759  19.526  0.00  0.00    +0.000 A 
ATOM     11  N   UNL     1       2.671   6.539  19.474  0.00  0.00    +0.000 N 
ATOM     12  C   UNL     1       3.371   6.058  18.405  0.00  0.00    +0.000 C 
ATOM     13  O   UNL     1       3.595   6.660  17.353  0.00  0.00    +0.000 OA
ATOM     14  S   UNL     1       1.478   8.039  21.101  0.00  0.00    +0.000 S 
ATOM     15  C   UNL     1       0.623   9.393  20.521  0.00  0.00    +0.000 A 
ATOM     16  C   UNL     1      -0.308  10.146  21.208  0.00  0.00    +0.000 A 
ATOM     17  C   UNL     1      -0.815  11.291  20.633  0.00  0.00    +0.000 A 
ATOM     18  S   UNL     1      -1.981  12.364  21.277  0.00  0.00    +0.000 S 
ATOM     19  H   UNL     1      -2.382  14.879  21.346  0.00  0.00    +0.000 HD
ATOM     20  H   UNL     1       2.658   6.007  20.333  0.00  0.00    +0.000 HD
ENDROOT
BRANCH   2  21
ATOM     21  C   UNL     1      -0.214  15.837  18.936  0.00  0.00    +0.000 C 
BRANCH  21  22
ATOM     22  N   UNL     1       1.152  15.671  19.465  0.00  0.00    +0.000 NA
ATOM     23  H   UNL     1       1.101  15.080  20.297  0.00  0.00    +0.000 HD
BRANCH  22  24
ATOM     24  C   UNL     1       2.109  15.107  18.509  0.00  0.00    +0.000 C 
ATOM     25  C   UNL     1       3.435  15.765  18.254  0.00  0.00    +0.000 C 
ATOM     26  C   UNL     1       3.374  14.488  19.037  0.00  0.00    +0.000 C 
ENDBRANCH  22  24
ENDBRANCH  21  22
ENDBRANCH   2  21
BRANCH  12  27
ATOM     27  C   UNL     1       3.937   4.652  18.641  0.00  0.00    +0.000 C 
BRANCH  27  28
ATOM     28  N   UNL     1       5.145   4.404  17.838  0.00  0.00    +0.000 NA
ATOM     29  H   UNL     1       5.011   4.820  16.914  0.00  0.00    +0.000 HD
BRANCH  28  30
ATOM     30  C   UNL     1       6.396   4.871  18.436  0.00  0.00    +0.000 C 
ATOM     31  C   UNL     1       7.705   4.645  17.732  0.00  0.00    +0.000 C 
ATOM     32  C   UNL     1       7.111   6.022  17.787  0.00  0.00    +0.000 C 
ENDBRANCH  28  30
ENDBRANCH  27  28
ENDBRANCH  12  27
TORSDOF 6
ENDMDL
