MODEL 1
REMARK VINA RESULT:      -7.2      0.000      0.000
REMARK  Name = 
REMARK  13 active torsions:
REMARK  status: ('A' for Active; 'I' for Inactive)
REMARK    1  A    between atoms: C_1  and  C_2
REMARK    2  A    between atoms: C_2  and  N_3
REMARK    3  A    between atoms: N_3  and  C_4
REMARK    4  A    between atoms: N_3  and  C_6
REMARK    5  A    between atoms: C_4  and  C_5
REMARK    6  A    between atoms: C_6  and  C_7
REMARK    7  A    between atoms: C_7  and  C_8
REMARK    8  A    between atoms: C_8  and  N_9
REMARK    9  A    between atoms: C_10  and  S_11
REMARK   10  A    between atoms: S_11  and  C_12
REMARK   11  A    between atoms: C_12  and  C_13
REMARK   12  A    between atoms: N_15  and  C_16
REMARK   13  A    between atoms: C_16  and  C_17
REMARK                            x       y       z     vdW  Elec       q    Type
REMARK                         _______ _______ _______ _____ _____    ______ ____
ROOT
ATOM      1  N   UNL     1       4.482   5.682  18.234  0.00  0.00    +0.000 N 
ATOM      2  C   UNL     1       3.379   6.509  18.447  0.00  0.00    +0.000 A 
ATOM      3  N   UNL     1       2.428   6.250  19.278  0.00  0.00    +0.000 NA
ATOM      4  C   UNL     1       2.411   5.005  19.911  0.00  0.00    +0.000 A 
ATOM      5  C   UNL     1       1.254   4.618  20.593  0.00  0.00    +0.000 A 
ATOM      6  C   UNL     1       1.130   3.323  21.106  0.00  0.00    +0.000 A 
ATOM      7  C   UNL     1       2.179   2.416  20.969  0.00  0.00    +0.000 A 
ATOM      8  C   UNL     1       3.348   2.802  20.313  0.00  0.00    +0.000 A 
ATOM      9  C   UNL     1       3.449   4.092  19.775  0.00  0.00    +0.000 A 
ATOM     10  C   UNL     1       4.605   4.494  18.957  0.00  0.00    +0.000 A 
ATOM     11  O   UNL     1       5.582   3.747  18.917  0.00  0.00    +0.000 OA
ENDROOT
BRANCH   1  12
ATOM     12  C   UNL     1       5.503   5.906  17.189  0.00  0.00    +0.000 C 
BRANCH  12  13
ATOM     13  C   UNL     1       5.136   5.381  15.797  0.00  0.00    +0.000 C 
BRANCH  13  14
ATOM     14  C   UNL     1       5.809   4.036  15.482  0.00  0.00    +0.000 C 
BRANCH  14  15
ATOM     15  N   UNL     1       6.423   3.925  14.143  0.00  0.00    +0.000 NA
BRANCH  15  17
ATOM     16  C   UNL     1       5.654   2.740  12.044  0.00  0.00    +0.000 C 
ATOM     17  C   UNL     1       5.426   3.862  13.060  0.00  0.00    +0.000 C 
ENDBRANCH  15  17
BRANCH  15  18
ATOM     18  C   UNL     1       7.449   4.966  13.941  0.00  0.00    +0.000 C 
ATOM     19  C   UNL     1       7.748   5.339  12.491  0.00  0.00    +0.000 C 
ENDBRANCH  15  18
ENDBRANCH  14  15
ENDBRANCH  13  14
ENDBRANCH  12  13
ENDBRANCH   1  12
BRANCH   2  20
ATOM     20  S   UNL     1       3.252   7.984  17.508  0.00  0.00    +0.000 S 
BRANCH  20  21
ATOM     21  C   UNL     1       1.506   8.427  17.676  0.00  0.00    +0.000 C 
BRANCH  21  22
ATOM     22  C   UNL     1       1.271   9.779  18.332  0.00  0.00    +0.000 C 
ATOM     23  O   UNL     1       2.061  10.710  18.175  0.00  0.00    +0.000 OA
ATOM     24  N   UNL     1       0.081   9.922  19.009  0.00  0.00    +0.000 N 
ATOM     25  H   UNL     1      -0.473   9.091  19.190  0.00  0.00    +0.000 HD
BRANCH  24  26
ATOM     26  C   UNL     1      -0.303  11.137  19.708  0.00  0.00    +0.000 C 
BRANCH  26  27
ATOM     27  C   UNL     1      -0.011  11.065  21.211  0.00  0.00    +0.000 C 
ATOM     28  C   UNL     1      -0.171   9.683  21.822  0.00  0.00    +0.000 C 
ATOM     29  C   UNL     1      -0.550   9.998  23.246  0.00  0.00    +0.000 C 
ATOM     30  C   UNL     1      -1.389  11.245  23.091  0.00  0.00    +0.000 C 
ATOM     31  O   UNL     1      -0.911  11.937  21.930  0.00  0.00    +0.000 OA
ENDBRANCH  26  27
ENDBRANCH  24  26
ENDBRANCH  21  22
ENDBRANCH  20  21
ENDBRANCH   2  20
TORSDOF 11
ENDMDL
MODEL 2
REMARK VINA RESULT:      -6.8      4.576      7.953
REMARK  Name = 
REMARK  13 active torsions:
REMARK  status: ('A' for Active; 'I' for Inactive)
REMARK    1  A    between atoms: C_1  and  C_2
REMARK    2  A    between atoms: C_2  and  N_3
REMARK    3  A    between atoms: N_3  and  C_4
REMARK    4  A    between atoms: N_3  and  C_6
REMARK    5  A    between atoms: C_4  and  C_5
REMARK    6  A    between atoms: C_6  and  C_7
REMARK    7  A    between atoms: C_7  and  C_8
REMARK    8  A    between atoms: C_8  and  N_9
REMARK    9  A    between atoms: C_10  and  S_11
REMARK   10  A    between atoms: S_11  and  C_12
REMARK   11  A    between atoms: C_12  and  C_13
REMARK   12  A    between atoms: N_15  and  C_16
REMARK   13  A    between atoms: C_16  and  C_17
REMARK                            x       y       z     vdW  Elec       q    Type
REMARK                         _______ _______ _______ _____ _____    ______ ____
ROOT
ATOM      1  N   UNL     1       6.105   4.840  17.207  0.00  0.00    +0.000 N 
ATOM      2  C   UNL     1       7.053   5.806  16.873  0.00  0.00    +0.000 A 
ATOM      3  N   UNL     1       7.437   6.060  15.670  0.00  0.00    +0.000 NA
ATOM      4  C   UNL     1       6.996   5.232  14.636  0.00  0.00    +0.000 A 
ATOM      5  C   UNL     1       7.617   5.331  13.387  0.00  0.00    +0.000 A 
ATOM      6  C   UNL     1       7.320   4.419  12.370  0.00  0.00    +0.000 A 
ATOM      7  C   UNL     1       6.372   3.421  12.585  0.00  0.00    +0.000 A 
ATOM      8  C   UNL     1       5.728   3.329  13.819  0.00  0.00    +0.000 A 
ATOM      9  C   UNL     1       6.056   4.229  14.841  0.00  0.00    +0.000 A 
ATOM     10  C   UNL     1       5.504   4.083  16.198  0.00  0.00    +0.000 A 
ATOM     11  O   UNL     1       4.590   3.278  16.375  0.00  0.00    +0.000 OA
ENDROOT
BRANCH   1  12
ATOM     12  C   UNL     1       5.759   4.452  18.590  0.00  0.00    +0.000 C 
BRANCH  12  13
ATOM     13  C   UNL     1       4.613   5.250  19.224  0.00  0.00    +0.000 C 
BRANCH  13  14
ATOM     14  C   UNL     1       3.283   4.481  19.205  0.00  0.00    +0.000 C 
BRANCH  14  15
ATOM     15  N   UNL     1       2.079   5.278  19.514  0.00  0.00    +0.000 NA
BRANCH  15  17
ATOM     16  C   UNL     1       2.010   3.714  21.502  0.00  0.00    +0.000 C 
ATOM     17  C   UNL     1       1.260   4.684  20.585  0.00  0.00    +0.000 C 
ENDBRANCH  15  17
BRANCH  15  18
ATOM     18  C   UNL     1       2.424   6.693  19.750  0.00  0.00    +0.000 C 
ATOM     19  C   UNL     1       2.277   7.626  18.550  0.00  0.00    +0.000 C 
ENDBRANCH  15  18
ENDBRANCH  14  15
ENDBRANCH  13  14
ENDBRANCH  12  13
ENDBRANCH   1  12
BRANCH   2  20
ATOM     20  S   UNL     1       7.796   6.724  18.169  0.00  0.00    +0.000 S 
BRANCH  20  21
ATOM     21  C   UNL     1       7.768   8.420  17.539  0.00  0.00    +0.000 C 
BRANCH  21  22
ATOM     22  C   UNL     1       8.551   9.408  18.389  0.00  0.00    +0.000 C 
ATOM     23  O   UNL     1       9.161   9.043  19.394  0.00  0.00    +0.000 OA
ATOM     24  N   UNL     1       8.623  10.694  17.904  0.00  0.00    +0.000 N 
ATOM     25  H   UNL     1       8.015  10.954  17.133  0.00  0.00    +0.000 HD
BRANCH  24  26
ATOM     26  C   UNL     1       9.315  11.773  18.591  0.00  0.00    +0.000 C 
BRANCH  26  27
ATOM     27  C   UNL     1       9.191  13.110  17.853  0.00  0.00    +0.000 C 
ATOM     28  C   UNL     1      10.490  13.889  17.728  0.00  0.00    +0.000 C 
ATOM     29  C   UNL     1      10.010  15.317  17.678  0.00  0.00    +0.000 C 
ATOM     30  C   UNL     1       8.816  15.292  18.605  0.00  0.00    +0.000 C 
ATOM     31  O   UNL     1       8.262  13.971  18.547  0.00  0.00    +0.000 OA
ENDBRANCH  26  27
ENDBRANCH  24  26
ENDBRANCH  21  22
ENDBRANCH  20  21
ENDBRANCH   2  20
TORSDOF 11
ENDMDL
MODEL 3
REMARK VINA RESULT:      -6.8      4.240      7.546
REMARK  Name = 
REMARK  13 active torsions:
REMARK  status: ('A' for Active; 'I' for Inactive)
REMARK    1  A    between atoms: C_1  and  C_2
REMARK    2  A    between atoms: C_2  and  N_3
REMARK    3  A    between atoms: N_3  and  C_4
REMARK    4  A    between atoms: N_3  and  C_6
REMARK    5  A    between atoms: C_4  and  C_5
REMARK    6  A    between atoms: C_6  and  C_7
REMARK    7  A    between atoms: C_7  and  C_8
REMARK    8  A    between atoms: C_8  and  N_9
REMARK    9  A    between atoms: C_10  and  S_11
REMARK   10  A    between atoms: S_11  and  C_12
REMARK   11  A    between atoms: C_12  and  C_13
REMARK   12  A    between atoms: N_15  and  C_16
REMARK   13  A    between atoms: C_16  and  C_17
REMARK                            x       y       z     vdW  Elec       q    Type
REMARK                         _______ _______ _______ _____ _____    ______ ____
ROOT
ATOM      1  N   UNL     1       5.642   5.234  17.116  0.00  0.00    +0.000 N 
ATOM      2  C   UNL     1       6.796   5.959  16.818  0.00  0.00    +0.000 A 
ATOM      3  N   UNL     1       7.328   6.025  15.647  0.00  0.00    +0.000 NA
ATOM      4  C   UNL     1       6.815   5.218  14.630  0.00  0.00    +0.000 A 
ATOM      5  C   UNL     1       7.549   5.082  13.447  0.00  0.00    +0.000 A 
ATOM      6  C   UNL     1       7.157   4.166  12.468  0.00  0.00    +0.000 A 
ATOM      7  C   UNL     1       6.007   3.400  12.649  0.00  0.00    +0.000 A 
ATOM      8  C   UNL     1       5.254   3.546  13.814  0.00  0.00    +0.000 A 
ATOM      9  C   UNL     1       5.673   4.446  14.804  0.00  0.00    +0.000 A 
ATOM     10  C   UNL     1       4.987   4.531  16.103  0.00  0.00    +0.000 A 
ATOM     11  O   UNL     1       3.914   3.944  16.238  0.00  0.00    +0.000 OA
ENDROOT
BRANCH   1  12
ATOM     12  C   UNL     1       5.104   5.045  18.480  0.00  0.00    +0.000 C 
BRANCH  12  13
ATOM     13  C   UNL     1       5.573   3.772  19.194  0.00  0.00    +0.000 C 
BRANCH  13  14
ATOM     14  C   UNL     1       4.458   3.126  20.030  0.00  0.00    +0.000 C 
BRANCH  14  15
ATOM     15  N   UNL     1       3.078   3.453  19.620  0.00  0.00    +0.000 NA
BRANCH  15  17
ATOM     16  C   UNL     1       0.935   2.600  18.579  0.00  0.00    +0.000 C 
ATOM     17  C   UNL     1       2.371   2.307  19.022  0.00  0.00    +0.000 C 
ENDBRANCH  15  17
BRANCH  15  18
ATOM     18  C   UNL     1       2.335   4.096  20.722  0.00  0.00    +0.000 C 
ATOM     19  C   UNL     1       1.922   5.548  20.493  0.00  0.00    +0.000 C 
ENDBRANCH  15  18
ENDBRANCH  14  15
ENDBRANCH  13  14
ENDBRANCH  12  13
ENDBRANCH   1  12
BRANCH   2  20
ATOM     20  S   UNL     1       7.599   6.815  18.120  0.00  0.00    +0.000 S 
BRANCH  20  21
ATOM     21  C   UNL     1       7.523   8.541  17.583  0.00  0.00    +0.000 C 
BRANCH  21  22
ATOM     22  C   UNL     1       8.503   9.456  18.301  0.00  0.00    +0.000 C 
ATOM     23  O   UNL     1       9.128   9.072  19.289  0.00  0.00    +0.000 OA
ATOM     24  N   UNL     1       8.721  10.682  17.716  0.00  0.00    +0.000 N 
ATOM     25  H   UNL     1       8.100  10.978  16.969  0.00  0.00    +0.000 HD
BRANCH  24  26
ATOM     26  C   UNL     1       9.612  11.689  18.271  0.00  0.00    +0.000 C 
BRANCH  26  27
ATOM     27  C   UNL     1       9.107  13.115  18.027  0.00  0.00    +0.000 C 
ATOM     28  C   UNL     1       8.717  13.873  19.284  0.00  0.00    +0.000 C 
ATOM     29  C   UNL     1       7.657  14.818  18.780  0.00  0.00    +0.000 C 
ATOM     30  C   UNL     1       6.960  13.992  17.723  0.00  0.00    +0.000 C 
ATOM     31  O   UNL     1       7.931  13.084  17.187  0.00  0.00    +0.000 OA
ENDBRANCH  26  27
ENDBRANCH  24  26
ENDBRANCH  21  22
ENDBRANCH  20  21
ENDBRANCH   2  20
TORSDOF 11
ENDMDL
MODEL 4
REMARK VINA RESULT:      -6.7      4.110      6.030
REMARK  Name = 
REMARK  13 active torsions:
REMARK  status: ('A' for Active; 'I' for Inactive)
REMARK    1  A    between atoms: C_1  and  C_2
REMARK    2  A    between atoms: C_2  and  N_3
REMARK    3  A    between atoms: N_3  and  C_4
REMARK    4  A    between atoms: N_3  and  C_6
REMARK    5  A    between atoms: C_4  and  C_5
REMARK    6  A    between atoms: C_6  and  C_7
REMARK    7  A    between atoms: C_7  and  C_8
REMARK    8  A    between atoms: C_8  and  N_9
REMARK    9  A    between atoms: C_10  and  S_11
REMARK   10  A    between atoms: S_11  and  C_12
REMARK   11  A    between atoms: C_12  and  C_13
REMARK   12  A    between atoms: N_15  and  C_16
REMARK   13  A    between atoms: C_16  and  C_17
REMARK                            x       y       z     vdW  Elec       q    Type
REMARK                         _______ _______ _______ _____ _____    ______ ____
ROOT
ATOM      1  N   UNL     1       5.146   3.761  16.971  0.00  0.00    +0.000 N 
ATOM      2  C   UNL     1       5.836   4.567  17.876  0.00  0.00    +0.000 A 
ATOM      3  N   UNL     1       5.323   5.047  18.957  0.00  0.00    +0.000 NA
ATOM      4  C   UNL     1       3.955   4.880  19.182  0.00  0.00    +0.000 A 
ATOM      5  C   UNL     1       3.348   5.623  20.199  0.00  0.00    +0.000 A 
ATOM      6  C   UNL     1       1.960   5.609  20.360  0.00  0.00    +0.000 A 
ATOM      7  C   UNL     1       1.170   4.823  19.523  0.00  0.00    +0.000 A 
ATOM      8  C   UNL     1       1.768   4.058  18.522  0.00  0.00    +0.000 A 
ATOM      9  C   UNL     1       3.158   4.104  18.350  0.00  0.00    +0.000 A 
ATOM     10  C   UNL     1       3.814   3.423  17.222  0.00  0.00    +0.000 A 
ATOM     11  O   UNL     1       3.149   2.643  16.541  0.00  0.00    +0.000 OA
ENDROOT
BRANCH   1  12
ATOM     12  C   UNL     1       5.685   3.319  15.668  0.00  0.00    +0.000 C 
BRANCH  12  13
ATOM     13  C   UNL     1       5.447   4.286  14.502  0.00  0.00    +0.000 C 
BRANCH  13  14
ATOM     14  C   UNL     1       6.558   4.211  13.444  0.00  0.00    +0.000 C 
BRANCH  14  15
ATOM     15  N   UNL     1       6.171   3.610  12.151  0.00  0.00    +0.000 NA
BRANCH  15  17
ATOM     16  C   UNL     1       6.509   1.358  11.048  0.00  0.00    +0.000 C 
ATOM     17  C   UNL     1       7.137   2.605  11.676  0.00  0.00    +0.000 C 
ENDBRANCH  15  17
BRANCH  15  18
ATOM     18  C   UNL     1       4.779   3.121  12.189  0.00  0.00    +0.000 C 
ATOM     19  C   UNL     1       3.891   3.539  11.019  0.00  0.00    +0.000 C 
ENDBRANCH  15  18
ENDBRANCH  14  15
ENDBRANCH  13  14
ENDBRANCH  12  13
ENDBRANCH   1  12
BRANCH   2  20
ATOM     20  S   UNL     1       7.501   4.983  17.518  0.00  0.00    +0.000 S 
BRANCH  20  21
ATOM     21  C   UNL     1       7.824   6.373  18.630  0.00  0.00    +0.000 C 
BRANCH  21  22
ATOM     22  C   UNL     1       7.852   7.726  17.937  0.00  0.00    +0.000 C 
ATOM     23  O   UNL     1       7.190   7.936  16.921  0.00  0.00    +0.000 OA
ATOM     24  N   UNL     1       8.569   8.714  18.573  0.00  0.00    +0.000 N 
ATOM     25  H   UNL     1       9.175   8.450  19.344  0.00  0.00    +0.000 HD
BRANCH  24  26
ATOM     26  C   UNL     1       8.717  10.062  18.049  0.00  0.00    +0.000 C 
BRANCH  26  27
ATOM     27  C   UNL     1       9.091  11.074  19.136  0.00  0.00    +0.000 C 
ATOM     28  C   UNL     1       9.317  12.490  18.634  0.00  0.00    +0.000 C 
ATOM     29  C   UNL     1      10.308  13.035  19.631  0.00  0.00    +0.000 C 
ATOM     30  C   UNL     1      11.152  11.822  19.948  0.00  0.00    +0.000 C 
ATOM     31  O   UNL     1      10.315  10.669  19.787  0.00  0.00    +0.000 OA
ENDBRANCH  26  27
ENDBRANCH  24  26
ENDBRANCH  21  22
ENDBRANCH  20  21
ENDBRANCH   2  20
TORSDOF 11
ENDMDL
MODEL 5
REMARK VINA RESULT:      -6.7      0.744      1.321
REMARK  Name = 
REMARK  13 active torsions:
REMARK  status: ('A' for Active; 'I' for Inactive)
REMARK    1  A    between atoms: C_1  and  C_2
REMARK    2  A    between atoms: C_2  and  N_3
REMARK    3  A    between atoms: N_3  and  C_4
REMARK    4  A    between atoms: N_3  and  C_6
REMARK    5  A    between atoms: C_4  and  C_5
REMARK    6  A    between atoms: C_6  and  C_7
REMARK    7  A    between atoms: C_7  and  C_8
REMARK    8  A    between atoms: C_8  and  N_9
REMARK    9  A    between atoms: C_10  and  S_11
REMARK   10  A    between atoms: S_11  and  C_12
REMARK   11  A    between atoms: C_12  and  C_13
REMARK   12  A    between atoms: N_15  and  C_16
REMARK   13  A    between atoms: C_16  and  C_17
REMARK                            x       y       z     vdW  Elec       q    Type
REMARK                         _______ _______ _______ _____ _____    ______ ____
ROOT
ATOM      1  N   UNL     1       4.076   5.471  17.517  0.00  0.00    +0.000 N 
ATOM      2  C   UNL     1       3.392   6.463  18.218  0.00  0.00    +0.000 A 
ATOM      3  N   UNL     1       2.694   6.250  19.280  0.00  0.00    +0.000 NA
ATOM      4  C   UNL     1       2.480   4.932  19.689  0.00  0.00    +0.000 A 
ATOM      5  C   UNL     1       1.510   4.684  20.666  0.00  0.00    +0.000 A 
ATOM      6  C   UNL     1       1.150   3.374  20.993  0.00  0.00    +0.000 A 
ATOM      7  C   UNL     1       1.781   2.300  20.369  0.00  0.00    +0.000 A 
ATOM      8  C   UNL     1       2.768   2.538  19.411  0.00  0.00    +0.000 A 
ATOM      9  C   UNL     1       3.099   3.855  19.068  0.00  0.00    +0.000 A 
ATOM     10  C   UNL     1       4.032   4.150  17.969  0.00  0.00    +0.000 A 
ATOM     11  O   UNL     1       4.676   3.221  17.482  0.00  0.00    +0.000 OA
ENDROOT
BRANCH   1  12
ATOM     12  C   UNL     1       4.765   5.685  16.227  0.00  0.00    +0.000 C 
BRANCH  12  13
ATOM     13  C   UNL     1       6.280   5.901  16.326  0.00  0.00    +0.000 C 
BRANCH  13  14
ATOM     14  C   UNL     1       7.069   4.937  15.427  0.00  0.00    +0.000 C 
BRANCH  14  15
ATOM     15  N   UNL     1       6.772   5.020  13.982  0.00  0.00    +0.000 NA
BRANCH  15  17
ATOM     16  C   UNL     1       8.113   6.128  12.145  0.00  0.00    +0.000 C 
ATOM     17  C   UNL     1       7.984   4.977  13.146  0.00  0.00    +0.000 C 
ENDBRANCH  15  17
BRANCH  15  18
ATOM     18  C   UNL     1       5.749   4.031  13.593  0.00  0.00    +0.000 C 
ATOM     19  C   UNL     1       6.029   3.248  12.312  0.00  0.00    +0.000 C 
ENDBRANCH  15  18
ENDBRANCH  14  15
ENDBRANCH  13  14
ENDBRANCH  12  13
ENDBRANCH   1  12
BRANCH   2  20
ATOM     20  S   UNL     1       3.458   8.106  17.611  0.00  0.00    +0.000 S 
BRANCH  20  21
ATOM     21  C   UNL     1       1.720   8.610  17.603  0.00  0.00    +0.000 C 
BRANCH  21  22
ATOM     22  C   UNL     1       1.454   9.926  18.316  0.00  0.00    +0.000 C 
ATOM     23  O   UNL     1       2.197  10.896  18.163  0.00  0.00    +0.000 OA
ATOM     24  N   UNL     1       0.287   9.993  19.042  0.00  0.00    +0.000 N 
ATOM     25  H   UNL     1      -0.224   9.133  19.214  0.00  0.00    +0.000 HD
BRANCH  24  26
ATOM     26  C   UNL     1      -0.121  11.166  19.800  0.00  0.00    +0.000 C 
BRANCH  26  27
ATOM     27  C   UNL     1       0.135  11.009  21.302  0.00  0.00    +0.000 C 
ATOM     28  C   UNL     1       0.055   9.581  21.814  0.00  0.00    +0.000 C 
ATOM     29  C   UNL     1      -0.384   9.770  23.243  0.00  0.00    +0.000 C 
ATOM     30  C   UNL     1      -1.303  10.967  23.146  0.00  0.00    +0.000 C 
ATOM     31  O   UNL     1      -0.842  11.768  22.050  0.00  0.00    +0.000 OA
ENDBRANCH  26  27
ENDBRANCH  24  26
ENDBRANCH  21  22
ENDBRANCH  20  21
ENDBRANCH   2  20
TORSDOF 11
ENDMDL
MODEL 6
REMARK VINA RESULT:      -6.6      4.519      8.136
REMARK  Name = 
REMARK  13 active torsions:
REMARK  status: ('A' for Active; 'I' for Inactive)
REMARK    1  A    between atoms: C_1  and  C_2
REMARK    2  A    between atoms: C_2  and  N_3
REMARK    3  A    between atoms: N_3  and  C_4
REMARK    4  A    between atoms: N_3  and  C_6
REMARK    5  A    between atoms: C_4  and  C_5
REMARK    6  A    between atoms: C_6  and  C_7
REMARK    7  A    between atoms: C_7  and  C_8
REMARK    8  A    between atoms: C_8  and  N_9
REMARK    9  A    between atoms: C_10  and  S_11
REMARK   10  A    between atoms: S_11  and  C_12
REMARK   11  A    between atoms: C_12  and  C_13
REMARK   12  A    between atoms: N_15  and  C_16
REMARK   13  A    between atoms: C_16  and  C_17
REMARK                            x       y       z     vdW  Elec       q    Type
REMARK                         _______ _______ _______ _____ _____    ______ ____
ROOT
ATOM      1  N   UNL     1       5.798   4.913  16.841  0.00  0.00    +0.000 N 
ATOM      2  C   UNL     1       6.908   5.719  16.590  0.00  0.00    +0.000 A 
ATOM      3  N   UNL     1       7.423   5.901  15.422  0.00  0.00    +0.000 NA
ATOM      4  C   UNL     1       6.943   5.143  14.352  0.00  0.00    +0.000 A 
ATOM      5  C   UNL     1       7.670   5.135  13.158  0.00  0.00    +0.000 A 
ATOM      6  C   UNL     1       7.317   4.273  12.115  0.00  0.00    +0.000 A 
ATOM      7  C   UNL     1       6.212   3.435  12.248  0.00  0.00    +0.000 A 
ATOM      8  C   UNL     1       5.465   3.454  13.426  0.00  0.00    +0.000 A 
ATOM      9  C   UNL     1       5.846   4.300  14.476  0.00  0.00    +0.000 A 
ATOM     10  C   UNL     1       5.171   4.252  15.783  0.00  0.00    +0.000 A 
ATOM     11  O   UNL     1       4.132   3.599  15.882  0.00  0.00    +0.000 OA
ENDROOT
BRANCH   1  12
ATOM     12  C   UNL     1       5.287   4.595  18.190  0.00  0.00    +0.000 C 
BRANCH  12  13
ATOM     13  C   UNL     1       4.299   5.613  18.770  0.00  0.00    +0.000 C 
BRANCH  13  14
ATOM     14  C   UNL     1       3.683   5.142  20.097  0.00  0.00    +0.000 C 
BRANCH  14  15
ATOM     15  N   UNL     1       2.270   5.510  20.313  0.00  0.00    +0.000 NA
BRANCH  15  17
ATOM     16  C   UNL     1       1.347   7.772  20.970  0.00  0.00    +0.000 C 
ATOM     17  C   UNL     1       1.964   6.886  19.886  0.00  0.00    +0.000 C 
ENDBRANCH  15  17
BRANCH  15  18
ATOM     18  C   UNL     1       1.363   4.497  19.737  0.00  0.00    +0.000 C 
ATOM     19  C   UNL     1       1.043   3.301  20.630  0.00  0.00    +0.000 C 
ENDBRANCH  15  18
ENDBRANCH  14  15
ENDBRANCH  13  14
ENDBRANCH  12  13
ENDBRANCH   1  12
BRANCH   2  20
ATOM     20  S   UNL     1       7.679   6.520  17.946  0.00  0.00    +0.000 S 
BRANCH  20  21
ATOM     21  C   UNL     1       7.529   8.273  17.525  0.00  0.00    +0.000 C 
BRANCH  21  22
ATOM     22  C   UNL     1       8.473   9.178  18.301  0.00  0.00    +0.000 C 
ATOM     23  O   UNL     1       9.034   8.788  19.325  0.00  0.00    +0.000 OA
ATOM     24  N   UNL     1       8.739  10.402  17.730  0.00  0.00    +0.000 N 
ATOM     25  H   UNL     1       8.167  10.703  16.947  0.00  0.00    +0.000 HD
BRANCH  24  26
ATOM     26  C   UNL     1       9.605  11.399  18.338  0.00  0.00    +0.000 C 
BRANCH  26  27
ATOM     27  C   UNL     1       9.146  12.831  18.040  0.00  0.00    +0.000 C 
ATOM     28  C   UNL     1      10.233  13.747  17.505  0.00  0.00    +0.000 C 
ATOM     29  C   UNL     1       9.782  15.103  17.983  0.00  0.00    +0.000 C 
ATOM     30  C   UNL     1       9.160  14.786  19.323  0.00  0.00    +0.000 C 
ATOM     31  O   UNL     1       8.647  13.449  19.247  0.00  0.00    +0.000 OA
ENDBRANCH  26  27
ENDBRANCH  24  26
ENDBRANCH  21  22
ENDBRANCH  20  21
ENDBRANCH   2  20
TORSDOF 11
ENDMDL
MODEL 7
REMARK VINA RESULT:      -6.6      2.102      8.733
REMARK  Name = 
REMARK  13 active torsions:
REMARK  status: ('A' for Active; 'I' for Inactive)
REMARK    1  A    between atoms: C_1  and  C_2
REMARK    2  A    between atoms: C_2  and  N_3
REMARK    3  A    between atoms: N_3  and  C_4
REMARK    4  A    between atoms: N_3  and  C_6
REMARK    5  A    between atoms: C_4  and  C_5
REMARK    6  A    between atoms: C_6  and  C_7
REMARK    7  A    between atoms: C_7  and  C_8
REMARK    8  A    between atoms: C_8  and  N_9
REMARK    9  A    between atoms: C_10  and  S_11
REMARK   10  A    between atoms: S_11  and  C_12
REMARK   11  A    between atoms: C_12  and  C_13
REMARK   12  A    between atoms: N_15  and  C_16
REMARK   13  A    between atoms: C_16  and  C_17
REMARK                            x       y       z     vdW  Elec       q    Type
REMARK                         _______ _______ _______ _____ _____    ______ ____
ROOT
ATOM      1  N   UNL     1       3.026   6.922  18.621  0.00  0.00    +0.000 N 
ATOM      2  C   UNL     1       3.844   6.104  17.842  0.00  0.00    +0.000 A 
ATOM      3  N   UNL     1       3.979   4.835  18.020  0.00  0.00    +0.000 NA
ATOM      4  C   UNL     1       3.391   4.248  19.142  0.00  0.00    +0.000 A 
ATOM      5  C   UNL     1       3.757   2.943  19.484  0.00  0.00    +0.000 A 
ATOM      6  C   UNL     1       3.318   2.371  20.682  0.00  0.00    +0.000 A 
ATOM      7  C   UNL     1       2.479   3.090  21.531  0.00  0.00    +0.000 A 
ATOM      8  C   UNL     1       2.087   4.384  21.186  0.00  0.00    +0.000 A 
ATOM      9  C   UNL     1       2.559   4.959  19.998  0.00  0.00    +0.000 A 
ATOM     10  C   UNL     1       2.283   6.365  19.664  0.00  0.00    +0.000 A 
ATOM     11  O   UNL     1       1.461   6.978  20.345  0.00  0.00    +0.000 OA
ENDROOT
BRANCH   1  12
ATOM     12  C   UNL     1       2.970   8.395  18.508  0.00  0.00    +0.000 C 
BRANCH  12  13
ATOM     13  C   UNL     1       1.667   8.955  17.926  0.00  0.00    +0.000 C 
BRANCH  13  14
ATOM     14  C   UNL     1       1.372  10.381  18.416  0.00  0.00    +0.000 C 
BRANCH  14  15
ATOM     15  N   UNL     1       0.620  10.480  19.683  0.00  0.00    +0.000 NA
BRANCH  15  17
ATOM     16  C   UNL     1       1.351  12.889  19.428  0.00  0.00    +0.000 C 
ATOM     17  C   UNL     1       0.744  11.802  20.320  0.00  0.00    +0.000 C 
ENDBRANCH  15  17
BRANCH  15  18
ATOM     18  C   UNL     1      -0.777  10.037  19.507  0.00  0.00    +0.000 C 
ATOM     19  C   UNL     1      -1.543  10.682  18.355  0.00  0.00    +0.000 C 
ENDBRANCH  15  18
ENDBRANCH  14  15
ENDBRANCH  13  14
ENDBRANCH  12  13
ENDBRANCH   1  12
BRANCH   2  20
ATOM     20  S   UNL     1       4.773   6.843  16.552  0.00  0.00    +0.000 S 
BRANCH  20  21
ATOM     21  C   UNL     1       6.476   6.389  16.963  0.00  0.00    +0.000 C 
BRANCH  21  22
ATOM     22  C   UNL     1       6.978   5.151  16.236  0.00  0.00    +0.000 C 
ATOM     23  O   UNL     1       7.949   4.518  16.649  0.00  0.00    +0.000 OA
ATOM     24  N   UNL     1       6.219   4.730  15.168  0.00  0.00    +0.000 N 
ATOM     25  H   UNL     1       5.496   5.351  14.815  0.00  0.00    +0.000 HD
BRANCH  24  26
ATOM     26  C   UNL     1       6.555   3.577  14.349  0.00  0.00    +0.000 C 
BRANCH  26  27
ATOM     27  C   UNL     1       6.073   3.727  12.902  0.00  0.00    +0.000 C 
ATOM     28  C   UNL     1       4.565   3.672  12.726  0.00  0.00    +0.000 C 
ATOM     29  C   UNL     1       4.419   3.120  11.332  0.00  0.00    +0.000 C 
ATOM     30  C   UNL     1       5.582   2.160  11.237  0.00  0.00    +0.000 C 
ATOM     31  O   UNL     1       6.620   2.666  12.088  0.00  0.00    +0.000 OA
ENDBRANCH  26  27
ENDBRANCH  24  26
ENDBRANCH  21  22
ENDBRANCH  20  21
ENDBRANCH   2  20
TORSDOF 11
ENDMDL
MODEL 8
REMARK VINA RESULT:      -6.6      2.149      8.669
REMARK  Name = 
REMARK  13 active torsions:
REMARK  status: ('A' for Active; 'I' for Inactive)
REMARK    1  A    between atoms: C_1  and  C_2
REMARK    2  A    between atoms: C_2  and  N_3
REMARK    3  A    between atoms: N_3  and  C_4
REMARK    4  A    between atoms: N_3  and  C_6
REMARK    5  A    between atoms: C_4  and  C_5
REMARK    6  A    between atoms: C_6  and  C_7
REMARK    7  A    between atoms: C_7  and  C_8
REMARK    8  A    between atoms: C_8  and  N_9
REMARK    9  A    between atoms: C_10  and  S_11
REMARK   10  A    between atoms: S_11  and  C_12
REMARK   11  A    between atoms: C_12  and  C_13
REMARK   12  A    between atoms: N_15  and  C_16
REMARK   13  A    between atoms: C_16  and  C_17
REMARK                            x       y       z     vdW  Elec       q    Type
REMARK                         _______ _______ _______ _____ _____    ______ ____
ROOT
ATOM      1  N   UNL     1       2.920   6.384  18.388  0.00  0.00    +0.000 N 
ATOM      2  C   UNL     1       3.791   5.908  17.409  0.00  0.00    +0.000 A 
ATOM      3  N   UNL     1       3.952   4.661  17.127  0.00  0.00    +0.000 NA
ATOM      4  C   UNL     1       3.331   3.705  17.933  0.00  0.00    +0.000 A 
ATOM      5  C   UNL     1       3.716   2.367  17.803  0.00  0.00    +0.000 A 
ATOM      6  C   UNL     1       3.240   1.400  18.692  0.00  0.00    +0.000 A 
ATOM      7  C   UNL     1       2.346   1.759  19.700  0.00  0.00    +0.000 A 
ATOM      8  C   UNL     1       1.936   3.086  19.822  0.00  0.00    +0.000 A 
ATOM      9  C   UNL     1       2.444   4.053  18.944  0.00  0.00    +0.000 A 
ATOM     10  C   UNL     1       2.147   5.484  19.123  0.00  0.00    +0.000 A 
ATOM     11  O   UNL     1       1.280   5.804  19.937  0.00  0.00    +0.000 OA
ENDROOT
BRANCH   1  12
ATOM     12  C   UNL     1       2.830   7.799  18.808  0.00  0.00    +0.000 C 
BRANCH  12  13
ATOM     13  C   UNL     1       1.829   8.651  18.020  0.00  0.00    +0.000 C 
BRANCH  13  14
ATOM     14  C   UNL     1       1.328   9.860  18.824  0.00  0.00    +0.000 C 
BRANCH  14  15
ATOM     15  N   UNL     1       0.326   9.565  19.867  0.00  0.00    +0.000 NA
BRANCH  15  17
ATOM     16  C   UNL     1      -0.128   9.363  22.348  0.00  0.00    +0.000 C 
ATOM     17  C   UNL     1       0.860   9.712  21.232  0.00  0.00    +0.000 C 
ENDBRANCH  15  17
BRANCH  15  18
ATOM     18  C   UNL     1      -0.920  10.321  19.636  0.00  0.00    +0.000 C 
ATOM     19  C   UNL     1      -1.076  10.946  18.251  0.00  0.00    +0.000 C 
ENDBRANCH  15  18
ENDBRANCH  14  15
ENDBRANCH  13  14
ENDBRANCH  12  13
ENDBRANCH   1  12
BRANCH   2  20
ATOM     20  S   UNL     1       4.757   7.069  16.518  0.00  0.00    +0.000 S 
BRANCH  20  21
ATOM     21  C   UNL     1       6.448   6.660  17.013  0.00  0.00    +0.000 C 
BRANCH  21  22
ATOM     22  C   UNL     1       7.014   5.430  16.321  0.00  0.00    +0.000 C 
ATOM     23  O   UNL     1       7.805   4.681  16.895  0.00  0.00    +0.000 OA
ATOM     24  N   UNL     1       6.506   5.154  15.072  0.00  0.00    +0.000 N 
ATOM     25  H   UNL     1       5.941   5.862  14.614  0.00  0.00    +0.000 HD
BRANCH  24  26
ATOM     26  C   UNL     1       6.941   4.029  14.259  0.00  0.00    +0.000 C 
BRANCH  26  27
ATOM     27  C   UNL     1       6.268   4.009  12.882  0.00  0.00    +0.000 C 
ATOM     28  C   UNL     1       4.758   3.848  12.916  0.00  0.00    +0.000 C 
ATOM     29  C   UNL     1       4.474   3.156  11.608  0.00  0.00    +0.000 C 
ATOM     30  C   UNL     1       5.681   2.261  11.444  0.00  0.00    +0.000 C 
ATOM     31  O   UNL     1       6.780   2.907  12.100  0.00  0.00    +0.000 OA
ENDBRANCH  26  27
ENDBRANCH  24  26
ENDBRANCH  21  22
ENDBRANCH  20  21
ENDBRANCH   2  20
TORSDOF 11
ENDMDL
MODEL 9
REMARK VINA RESULT:      -6.6      1.929      2.876
REMARK  Name = 
REMARK  13 active torsions:
REMARK  status: ('A' for Active; 'I' for Inactive)
REMARK    1  A    between atoms: C_1  and  C_2
REMARK    2  A    between atoms: C_2  and  N_3
REMARK    3  A    between atoms: N_3  and  C_4
REMARK    4  A    between atoms: N_3  and  C_6
REMARK    5  A    between atoms: C_4  and  C_5
REMARK    6  A    between atoms: C_6  and  C_7
REMARK    7  A    between atoms: C_7  and  C_8
REMARK    8  A    between atoms: C_8  and  N_9
REMARK    9  A    between atoms: C_10  and  S_11
REMARK   10  A    between atoms: S_11  and  C_12
REMARK   11  A    between atoms: C_12  and  C_13
REMARK   12  A    between atoms: N_15  and  C_16
REMARK   13  A    between atoms: C_16  and  C_17
REMARK                            x       y       z     vdW  Elec       q    Type
REMARK                         _______ _______ _______ _____ _____    ______ ____
ROOT
ATOM      1  N   UNL     1       4.473   5.994  18.431  0.00  0.00    +0.000 N 
ATOM      2  C   UNL     1       3.296   6.718  18.620  0.00  0.00    +0.000 A 
ATOM      3  N   UNL     1       2.317   6.329  19.363  0.00  0.00    +0.000 NA
ATOM      4  C   UNL     1       2.357   5.044  19.907  0.00  0.00    +0.000 A 
ATOM      5  C   UNL     1       1.192   4.523  20.478  0.00  0.00    +0.000 A 
ATOM      6  C   UNL     1       1.138   3.189  20.892  0.00  0.00    +0.000 A 
ATOM      7  C   UNL     1       2.262   2.375  20.769  0.00  0.00    +0.000 A 
ATOM      8  C   UNL     1       3.437   2.893  20.224  0.00  0.00    +0.000 A 
ATOM      9  C   UNL     1       3.471   4.223  19.784  0.00  0.00    +0.000 A 
ATOM     10  C   UNL     1       4.642   4.768  19.079  0.00  0.00    +0.000 A 
ATOM     11  O   UNL     1       5.675   4.101  19.057  0.00  0.00    +0.000 OA
ENDROOT
BRANCH   1  12
ATOM     12  C   UNL     1       5.539   6.368  17.478  0.00  0.00    +0.000 C 
BRANCH  12  13
ATOM     13  C   UNL     1       5.193   6.164  15.999  0.00  0.00    +0.000 C 
BRANCH  13  14
ATOM     14  C   UNL     1       5.479   4.732  15.523  0.00  0.00    +0.000 C 
BRANCH  14  15
ATOM     15  N   UNL     1       6.016   4.608  14.152  0.00  0.00    +0.000 NA
BRANCH  15  17
ATOM     16  C   UNL     1       8.036   5.639  13.030  0.00  0.00    +0.000 C 
ATOM     17  C   UNL     1       7.486   4.696  14.104  0.00  0.00    +0.000 C 
ENDBRANCH  15  17
BRANCH  15  18
ATOM     18  C   UNL     1       5.472   3.416  13.475  0.00  0.00    +0.000 C 
ATOM     19  C   UNL     1       5.684   3.349  11.964  0.00  0.00    +0.000 C 
ENDBRANCH  15  18
ENDBRANCH  14  15
ENDBRANCH  13  14
ENDBRANCH  12  13
ENDBRANCH   1  12
BRANCH   2  20
ATOM     20  S   UNL     1       3.114   8.244  17.777  0.00  0.00    +0.000 S 
BRANCH  20  21
ATOM     21  C   UNL     1       1.319   8.431  17.651  0.00  0.00    +0.000 C 
BRANCH  21  22
ATOM     22  C   UNL     1       0.792   9.738  18.225  0.00  0.00    +0.000 C 
ATOM     23  O   UNL     1       1.494  10.448  18.944  0.00  0.00    +0.000 OA
ATOM     24  N   UNL     1      -0.461  10.119  17.802  0.00  0.00    +0.000 N 
ATOM     25  H   UNL     1      -1.026   9.442  17.297  0.00  0.00    +0.000 HD
BRANCH  24  26
ATOM     26  C   UNL     1      -1.128  11.328  18.257  0.00  0.00    +0.000 C 
BRANCH  26  27
ATOM     27  C   UNL     1      -2.495  11.526  17.592  0.00  0.00    +0.000 C 
ATOM     28  C   UNL     1      -3.472  10.381  17.796  0.00  0.00    +0.000 C 
ATOM     29  C   UNL     1      -4.326  10.456  16.556  0.00  0.00    +0.000 C 
ATOM     30  C   UNL     1      -3.335  10.895  15.503  0.00  0.00    +0.000 C 
ATOM     31  O   UNL     1      -2.331  11.677  16.165  0.00  0.00    +0.000 OA
ENDBRANCH  26  27
ENDBRANCH  24  26
ENDBRANCH  21  22
ENDBRANCH  20  21
ENDBRANCH   2  20
TORSDOF 11
ENDMDL
