MODEL 1
REMARK VINA RESULT:      -7.5      0.000      0.000
REMARK  Name = 
REMARK  4 active torsions:
REMARK  status: ('A' for Active; 'I' for Inactive)
REMARK    1  A    between atoms: C_2  and  C_3
REMARK    2  A    between atoms: C_3  and  N_4
REMARK    3  A    between atoms: C_10  and  C_11
REMARK    4  A    between atoms: C_14  and  C_15
REMARK                            x       y       z     vdW  Elec       q    Type
REMARK                         _______ _______ _______ _____ _____    ______ ____
ROOT
ATOM      1  N   UNL     1       5.779   4.580  15.836  0.00  0.00    +0.000 N 
ATOM      2  C   UNL     1       6.709   5.630  15.899  0.00  0.00    +0.000 A 
ATOM      3  O   UNL     1       7.730   5.690  15.216  0.00  0.00    +0.000 OA
ATOM      4  C   UNL     1       6.442   6.745  16.857  0.00  0.00    +0.000 A 
ATOM      5  C   UNL     1       5.337   6.764  17.611  0.00  0.00    +0.000 A 
ATOM      6  C   UNL     1       4.404   5.700  17.535  0.00  0.00    +0.000 A 
ATOM      7  C   UNL     1       3.188   5.360  18.173  0.00  0.00    +0.000 A 
ATOM      8  N   UNL     1       2.709   4.195  17.705  0.00  0.00    +0.000 NA
ATOM      9  N   UNL     1       3.639   3.791  16.809  0.00  0.00    +0.000 N 
ATOM     10  C   UNL     1       4.668   4.673  16.669  0.00  0.00    +0.000 A 
ATOM     11  H   UNL     1       3.505   2.903  16.342  0.00  0.00    +0.000 HD
ENDROOT
BRANCH   7  12
ATOM     12  C   UNL     1       2.489   6.137  19.234  0.00  0.00    +0.000 A 
ATOM     13  C   UNL     1       1.983   5.651  20.420  0.00  0.00    +0.000 A 
ATOM     14  N   UNL     1       1.337   6.590  21.221  0.00  0.00    +0.000 NA
ATOM     15  C   UNL     1       1.329   7.758  20.609  0.00  0.00    +0.000 A 
ATOM     16  S   UNL     1       2.217   7.812  19.155  0.00  0.00    +0.000 S 
BRANCH  15  17
ATOM     17  C   UNL     1       0.638   8.962  21.052  0.00  0.00    +0.000 A 
ATOM     18  C   UNL     1       0.024   9.817  20.137  0.00  0.00    +0.000 A 
ATOM     19  C   UNL     1      -0.543  11.010  20.586  0.00  0.00    +0.000 A 
ATOM     20  C   UNL     1      -0.482  11.300  21.938  0.00  0.00    +0.000 A 
ATOM     21  N   UNL     1       0.057  10.483  22.867  0.00  0.00    +0.000 NA
ATOM     22  C   UNL     1       0.603   9.338  22.398  0.00  0.00    +0.000 A 
ENDBRANCH  15  17
ENDBRANCH   7  12
BRANCH   1  23
ATOM     23  C   UNL     1       6.021   3.494  14.906  0.00  0.00    +0.000 C 
BRANCH  23  25
ATOM     24  C   UNL     1       6.327   3.752  12.426  0.00  0.00    +0.000 C 
ATOM     25  C   UNL     1       5.582   3.893  13.525  0.00  0.00    +0.000 C 
ENDBRANCH  23  25
ENDBRANCH   1  23
TORSDOF 4
ENDMDL
MODEL 2
REMARK VINA RESULT:      -7.5      2.195      2.965
REMARK  Name = 
REMARK  4 active torsions:
REMARK  status: ('A' for Active; 'I' for Inactive)
REMARK    1  A    between atoms: C_2  and  C_3
REMARK    2  A    between atoms: C_3  and  N_4
REMARK    3  A    between atoms: C_10  and  C_11
REMARK    4  A    between atoms: C_14  and  C_15
REMARK                            x       y       z     vdW  Elec       q    Type
REMARK                         _______ _______ _______ _____ _____    ______ ____
ROOT
ATOM      1  N   UNL     1       4.442   4.195  17.181  0.00  0.00    +0.000 N 
ATOM      2  C   UNL     1       3.534   3.215  17.613  0.00  0.00    +0.000 A 
ATOM      3  O   UNL     1       3.718   2.004  17.496  0.00  0.00    +0.000 OA
ATOM      4  C   UNL     1       2.266   3.671  18.257  0.00  0.00    +0.000 A 
ATOM      5  C   UNL     1       2.011   4.970  18.447  0.00  0.00    +0.000 A 
ATOM      6  C   UNL     1       2.937   5.950  18.010  0.00  0.00    +0.000 A 
ATOM      7  C   UNL     1       3.001   7.363  18.001  0.00  0.00    +0.000 A 
ATOM      8  N   UNL     1       4.147   7.788  17.442  0.00  0.00    +0.000 NA
ATOM      9  N   UNL     1       4.776   6.649  17.069  0.00  0.00    +0.000 N 
ATOM     10  C   UNL     1       4.087   5.522  17.403  0.00  0.00    +0.000 A 
ATOM     11  H   UNL     1       5.664   6.725  16.588  0.00  0.00    +0.000 HD
ENDROOT
BRANCH   7  12
ATOM     12  C   UNL     1       1.970   8.307  18.514  0.00  0.00    +0.000 A 
ATOM     13  C   UNL     1       1.279   9.254  17.789  0.00  0.00    +0.000 A 
ATOM     14  N   UNL     1       0.393  10.037  18.525  0.00  0.00    +0.000 NA
ATOM     15  C   UNL     1       0.460   9.698  19.797  0.00  0.00    +0.000 A 
ATOM     16  S   UNL     1       1.446   8.349  20.129  0.00  0.00    +0.000 S 
BRANCH  15  17
ATOM     17  C   UNL     1      -0.208  10.367  20.907  0.00  0.00    +0.000 A 
ATOM     18  C   UNL     1      -1.070  11.440  20.685  0.00  0.00    +0.000 A 
ATOM     19  C   UNL     1      -1.615  12.119  21.775  0.00  0.00    +0.000 A 
ATOM     20  C   UNL     1      -1.283  11.693  23.050  0.00  0.00    +0.000 A 
ATOM     21  N   UNL     1      -0.493  10.632  23.314  0.00  0.00    +0.000 NA
ATOM     22  C   UNL     1       0.024   9.999  22.235  0.00  0.00    +0.000 A 
ENDBRANCH  15  17
ENDBRANCH   7  12
BRANCH   1  23
ATOM     23  C   UNL     1       5.681   3.767  16.561  0.00  0.00    +0.000 C 
BRANCH  23  25
ATOM     24  C   UNL     1       6.619   4.602  14.385  0.00  0.00    +0.000 C 
ATOM     25  C   UNL     1       5.634   4.031  15.082  0.00  0.00    +0.000 C 
ENDBRANCH  23  25
ENDBRANCH   1  23
TORSDOF 4
ENDMDL
MODEL 3
REMARK VINA RESULT:      -7.2      2.811      8.733
REMARK  Name = 
REMARK  4 active torsions:
REMARK  status: ('A' for Active; 'I' for Inactive)
REMARK    1  A    between atoms: C_2  and  C_3
REMARK    2  A    between atoms: C_3  and  N_4
REMARK    3  A    between atoms: C_10  and  C_11
REMARK    4  A    between atoms: C_14  and  C_15
REMARK                            x       y       z     vdW  Elec       q    Type
REMARK                         _______ _______ _______ _____ _____    ______ ____
ROOT
ATOM      1  N   UNL     1       1.136   8.210  20.184  0.00  0.00    +0.000 N 
ATOM      2  C   UNL     1       0.818   9.298  19.356  0.00  0.00    +0.000 A 
ATOM      3  O   UNL     1      -0.054  10.128  19.611  0.00  0.00    +0.000 OA
ATOM      4  C   UNL     1       1.587   9.459  18.085  0.00  0.00    +0.000 A 
ATOM      5  C   UNL     1       2.570   8.614  17.757  0.00  0.00    +0.000 A 
ATOM      6  C   UNL     1       2.884   7.522  18.603  0.00  0.00    +0.000 A 
ATOM      7  C   UNL     1       3.794   6.439  18.579  0.00  0.00    +0.000 A 
ATOM      8  N   UNL     1       3.659   5.673  19.674  0.00  0.00    +0.000 NA
ATOM      9  N   UNL     1       2.645   6.251  20.359  0.00  0.00    +0.000 N 
ATOM     10  C   UNL     1       2.159   7.372  19.755  0.00  0.00    +0.000 A 
ATOM     11  H   UNL     1       2.339   5.819  21.223  0.00  0.00    +0.000 HD
ENDROOT
BRANCH   7  12
ATOM     12  C   UNL     1       4.783   6.128  17.509  0.00  0.00    +0.000 A 
ATOM     13  C   UNL     1       6.001   6.740  17.304  0.00  0.00    +0.000 A 
ATOM     14  N   UNL     1       6.719   6.281  16.202  0.00  0.00    +0.000 NA
ATOM     15  C   UNL     1       6.014   5.363  15.570  0.00  0.00    +0.000 A 
ATOM     16  S   UNL     1       4.568   4.908  16.348  0.00  0.00    +0.000 S 
BRANCH  15  17
ATOM     17  C   UNL     1       6.354   4.734  14.300  0.00  0.00    +0.000 A 
ATOM     18  C   UNL     1       7.485   5.123  13.585  0.00  0.00    +0.000 A 
ATOM     19  C   UNL     1       7.726   4.570  12.327  0.00  0.00    +0.000 A 
ATOM     20  C   UNL     1       6.827   3.639  11.833  0.00  0.00    +0.000 A 
ATOM     21  N   UNL     1       5.747   3.196  12.508  0.00  0.00    +0.000 NA
ATOM     22  C   UNL     1       5.539   3.756  13.721  0.00  0.00    +0.000 A 
ENDBRANCH  15  17
ENDBRANCH   7  12
BRANCH   1  23
ATOM     23  C   UNL     1       0.402   8.045  21.424  0.00  0.00    +0.000 C 
BRANCH  23  25
ATOM     24  C   UNL     1      -0.062   9.632  23.315  0.00  0.00    +0.000 C 
ATOM     25  C   UNL     1       0.762   9.144  22.384  0.00  0.00    +0.000 C 
ENDBRANCH  23  25
ENDBRANCH   1  23
TORSDOF 4
ENDMDL
MODEL 4
REMARK VINA RESULT:      -7.2      3.289      8.932
REMARK  Name = 
REMARK  4 active torsions:
REMARK  status: ('A' for Active; 'I' for Inactive)
REMARK    1  A    between atoms: C_2  and  C_3
REMARK    2  A    between atoms: C_3  and  N_4
REMARK    3  A    between atoms: C_10  and  C_11
REMARK    4  A    between atoms: C_14  and  C_15
REMARK                            x       y       z     vdW  Elec       q    Type
REMARK                         _______ _______ _______ _____ _____    ______ ____
ROOT
ATOM      1  N   UNL     1      -0.668  11.146  21.249  0.00  0.00    +0.000 N 
ATOM      2  C   UNL     1      -0.578  10.633  22.552  0.00  0.00    +0.000 A 
ATOM      3  O   UNL     1      -1.146  11.122  23.528  0.00  0.00    +0.000 OA
ATOM      4  C   UNL     1       0.261   9.415  22.769  0.00  0.00    +0.000 A 
ATOM      5  C   UNL     1       0.883   8.810  21.751  0.00  0.00    +0.000 A 
ATOM      6  C   UNL     1       0.781   9.336  20.439  0.00  0.00    +0.000 A 
ATOM      7  C   UNL     1       1.302   9.011  19.165  0.00  0.00    +0.000 A 
ATOM      8  N   UNL     1       0.869   9.877  18.233  0.00  0.00    +0.000 NA
ATOM      9  N   UNL     1       0.114  10.760  18.928  0.00  0.00    +0.000 N 
ATOM     10  C   UNL     1       0.026  10.464  20.255  0.00  0.00    +0.000 A 
ATOM     11  H   UNL     1      -0.299  11.538  18.428  0.00  0.00    +0.000 HD
ENDROOT
BRANCH   7  12
ATOM     12  C   UNL     1       2.219   7.884  18.836  0.00  0.00    +0.000 A 
ATOM     13  C   UNL     1       2.474   6.771  19.609  0.00  0.00    +0.000 A 
ATOM     14  N   UNL     1       3.408   5.882  19.081  0.00  0.00    +0.000 NA
ATOM     15  C   UNL     1       3.873   6.359  17.943  0.00  0.00    +0.000 A 
ATOM     16  S   UNL     1       3.107   7.778  17.393  0.00  0.00    +0.000 S 
BRANCH  15  17
ATOM     17  C   UNL     1       4.959   5.796  17.149  0.00  0.00    +0.000 A 
ATOM     18  C   UNL     1       4.845   4.535  16.566  0.00  0.00    +0.000 A 
ATOM     19  C   UNL     1       5.939   3.987  15.895  0.00  0.00    +0.000 A 
ATOM     20  C   UNL     1       7.107   4.727  15.826  0.00  0.00    +0.000 A 
ATOM     21  N   UNL     1       7.250   5.970  16.332  0.00  0.00    +0.000 NA
ATOM     22  C   UNL     1       6.172   6.469  16.980  0.00  0.00    +0.000 A 
ENDBRANCH  15  17
ENDBRANCH   7  12
BRANCH   1  23
ATOM     23  C   UNL     1      -1.485  12.323  21.021  0.00  0.00    +0.000 C 
BRANCH  23  25
ATOM     24  C   UNL     1       0.383  13.852  21.717  0.00  0.00    +0.000 C 
ATOM     25  C   UNL     1      -0.610  13.536  20.882  0.00  0.00    +0.000 C 
ENDBRANCH  23  25
ENDBRANCH   1  23
TORSDOF 4
ENDMDL
MODEL 5
REMARK VINA RESULT:      -7.1      2.582      4.107
REMARK  Name = 
REMARK  4 active torsions:
REMARK  status: ('A' for Active; 'I' for Inactive)
REMARK    1  A    between atoms: C_2  and  C_3
REMARK    2  A    between atoms: C_3  and  N_4
REMARK    3  A    between atoms: C_10  and  C_11
REMARK    4  A    between atoms: C_14  and  C_15
REMARK                            x       y       z     vdW  Elec       q    Type
REMARK                         _______ _______ _______ _____ _____    ______ ____
ROOT
ATOM      1  N   UNL     1       2.670   4.226  18.420  0.00  0.00    +0.000 N 
ATOM      2  C   UNL     1       2.227   3.328  19.404  0.00  0.00    +0.000 A 
ATOM      3  O   UNL     1       2.324   2.104  19.315  0.00  0.00    +0.000 OA
ATOM      4  C   UNL     1       1.598   3.893  20.635  0.00  0.00    +0.000 A 
ATOM      5  C   UNL     1       1.486   5.213  20.815  0.00  0.00    +0.000 A 
ATOM      6  C   UNL     1       1.942   6.110  19.817  0.00  0.00    +0.000 A 
ATOM      7  C   UNL     1       1.961   7.512  19.635  0.00  0.00    +0.000 A 
ATOM      8  N   UNL     1       2.527   7.837  18.461  0.00  0.00    +0.000 NA
ATOM      9  N   UNL     1       2.823   6.645  17.895  0.00  0.00    +0.000 N 
ATOM     10  C   UNL     1       2.498   5.581  18.682  0.00  0.00    +0.000 A 
ATOM     11  H   UNL     1       3.238   6.639  16.971  0.00  0.00    +0.000 HD
ENDROOT
BRANCH   7  12
ATOM     12  C   UNL     1       1.433   8.542  20.574  0.00  0.00    +0.000 A 
ATOM     13  C   UNL     1       1.658   8.618  21.932  0.00  0.00    +0.000 A 
ATOM     14  N   UNL     1       1.010   9.665  22.584  0.00  0.00    +0.000 NA
ATOM     15  C   UNL     1       0.275  10.334  21.718  0.00  0.00    +0.000 A 
ATOM     16  S   UNL     1       0.456   9.845  20.095  0.00  0.00    +0.000 S 
BRANCH  15  17
ATOM     17  C   UNL     1      -0.655  11.413  22.024  0.00  0.00    +0.000 A 
ATOM     18  C   UNL     1      -1.571  11.298  23.069  0.00  0.00    +0.000 A 
ATOM     19  C   UNL     1      -2.512  12.308  23.272  0.00  0.00    +0.000 A 
ATOM     20  C   UNL     1      -2.495  13.403  22.425  0.00  0.00    +0.000 A 
ATOM     21  N   UNL     1      -1.599  13.582  21.433  0.00  0.00    +0.000 NA
ATOM     22  C   UNL     1      -0.705  12.582  21.259  0.00  0.00    +0.000 A 
ENDBRANCH  15  17
ENDBRANCH   7  12
BRANCH   1  23
ATOM     23  C   UNL     1       3.289   3.693  17.222  0.00  0.00    +0.000 C 
BRANCH  23  25
ATOM     24  C   UNL     1       5.514   4.587  16.472  0.00  0.00    +0.000 C 
ATOM     25  C   UNL     1       4.782   3.842  17.304  0.00  0.00    +0.000 C 
ENDBRANCH  23  25
ENDBRANCH   1  23
TORSDOF 4
ENDMDL
MODEL 6
REMARK VINA RESULT:      -7.1      3.322      8.876
REMARK  Name = 
REMARK  4 active torsions:
REMARK  status: ('A' for Active; 'I' for Inactive)
REMARK    1  A    between atoms: C_2  and  C_3
REMARK    2  A    between atoms: C_3  and  N_4
REMARK    3  A    between atoms: C_10  and  C_11
REMARK    4  A    between atoms: C_14  and  C_15
REMARK                            x       y       z     vdW  Elec       q    Type
REMARK                         _______ _______ _______ _____ _____    ______ ____
ROOT
ATOM      1  N   UNL     1      -0.509  11.346  21.178  0.00  0.00    +0.000 N 
ATOM      2  C   UNL     1      -0.539  10.817  22.478  0.00  0.00    +0.000 A 
ATOM      3  O   UNL     1      -1.128  11.340  23.423  0.00  0.00    +0.000 OA
ATOM      4  C   UNL     1       0.192   9.538  22.730  0.00  0.00    +0.000 A 
ATOM      5  C   UNL     1       0.829   8.897  21.745  0.00  0.00    +0.000 A 
ATOM      6  C   UNL     1       0.848   9.439  20.436  0.00  0.00    +0.000 A 
ATOM      7  C   UNL     1       1.422   9.087  19.192  0.00  0.00    +0.000 A 
ATOM      8  N   UNL     1       1.115   9.991  18.247  0.00  0.00    +0.000 NA
ATOM      9  N   UNL     1       0.386  10.922  18.905  0.00  0.00    +0.000 N 
ATOM     10  C   UNL     1       0.193  10.622  20.220  0.00  0.00    +0.000 A 
ATOM     11  H   UNL     1       0.063  11.733  18.391  0.00  0.00    +0.000 HD
ENDROOT
BRANCH   7  12
ATOM     12  C   UNL     1       2.272   7.897  18.906  0.00  0.00    +0.000 A 
ATOM     13  C   UNL     1       2.392   6.760  19.676  0.00  0.00    +0.000 A 
ATOM     14  N   UNL     1       3.289   5.809  19.196  0.00  0.00    +0.000 NA
ATOM     15  C   UNL     1       3.861   6.260  18.097  0.00  0.00    +0.000 A 
ATOM     16  S   UNL     1       3.240   7.738  17.520  0.00  0.00    +0.000 S 
BRANCH  15  17
ATOM     17  C   UNL     1       4.950   5.625  17.365  0.00  0.00    +0.000 A 
ATOM     18  C   UNL     1       4.707   4.570  16.486  0.00  0.00    +0.000 A 
ATOM     19  C   UNL     1       5.783   3.922  15.878  0.00  0.00    +0.000 A 
ATOM     20  C   UNL     1       7.064   4.360  16.166  0.00  0.00    +0.000 A 
ATOM     21  N   UNL     1       7.346   5.405  16.970  0.00  0.00    +0.000 NA
ATOM     22  C   UNL     1       6.282   6.008  17.548  0.00  0.00    +0.000 A 
ENDBRANCH  15  17
ENDBRANCH   7  12
BRANCH   1  23
ATOM     23  C   UNL     1      -1.220  12.584  20.916  0.00  0.00    +0.000 C 
BRANCH  23  25
ATOM     24  C   UNL     1      -2.988  12.116  19.195  0.00  0.00    +0.000 C 
ATOM     25  C   UNL     1      -2.622  12.286  20.468  0.00  0.00    +0.000 C 
ENDBRANCH  23  25
ENDBRANCH   1  23
TORSDOF 4
ENDMDL
MODEL 7
REMARK VINA RESULT:      -7.1      3.801      8.678
REMARK  Name = 
REMARK  4 active torsions:
REMARK  status: ('A' for Active; 'I' for Inactive)
REMARK    1  A    between atoms: C_2  and  C_3
REMARK    2  A    between atoms: C_3  and  N_4
REMARK    3  A    between atoms: C_10  and  C_11
REMARK    4  A    between atoms: C_14  and  C_15
REMARK                            x       y       z     vdW  Elec       q    Type
REMARK                         _______ _______ _______ _____ _____    ______ ____
ROOT
ATOM      1  N   UNL     1      -0.260  11.195  20.701  0.00  0.00    +0.000 N 
ATOM      2  C   UNL     1      -0.423  10.619  21.971  0.00  0.00    +0.000 A 
ATOM      3  O   UNL     1      -1.058  11.137  22.889  0.00  0.00    +0.000 OA
ATOM      4  C   UNL     1       0.215   9.292  22.224  0.00  0.00    +0.000 A 
ATOM      5  C   UNL     1       0.895   8.654  21.265  0.00  0.00    +0.000 A 
ATOM      6  C   UNL     1       1.048   9.245  19.986  0.00  0.00    +0.000 A 
ATOM      7  C   UNL     1       1.701   8.909  18.777  0.00  0.00    +0.000 A 
ATOM      8  N   UNL     1       1.519   9.865  17.851  0.00  0.00    +0.000 NA
ATOM      9  N   UNL     1       0.790  10.809  18.489  0.00  0.00    +0.000 N 
ATOM     10  C   UNL     1       0.477  10.470  19.771  0.00  0.00    +0.000 A 
ATOM     11  H   UNL     1       0.554  11.657  17.987  0.00  0.00    +0.000 HD
ENDROOT
BRANCH   7  12
ATOM     12  C   UNL     1       2.505   7.684  18.507  0.00  0.00    +0.000 A 
ATOM     13  C   UNL     1       3.449   7.514  17.516  0.00  0.00    +0.000 A 
ATOM     14  N   UNL     1       4.030   6.250  17.459  0.00  0.00    +0.000 NA
ATOM     15  C   UNL     1       3.487   5.475  18.378  0.00  0.00    +0.000 A 
ATOM     16  S   UNL     1       2.399   6.261  19.428  0.00  0.00    +0.000 S 
BRANCH  15  17
ATOM     17  C   UNL     1       3.724   4.048  18.556  0.00  0.00    +0.000 A 
ATOM     18  C   UNL     1       3.115   3.109  17.724  0.00  0.00    +0.000 A 
ATOM     19  C   UNL     1       3.286   1.749  17.984  0.00  0.00    +0.000 A 
ATOM     20  C   UNL     1       4.069   1.378  19.065  0.00  0.00    +0.000 A 
ATOM     21  N   UNL     1       4.716   2.247  19.867  0.00  0.00    +0.000 NA
ATOM     22  C   UNL     1       4.525   3.558  19.591  0.00  0.00    +0.000 A 
ENDBRANCH  15  17
ENDBRANCH   7  12
BRANCH   1  23
ATOM     23  C   UNL     1      -0.881  12.480  20.439  0.00  0.00    +0.000 C 
BRANCH  23  25
ATOM     24  C   UNL     1      -3.381  12.722  20.399  0.00  0.00    +0.000 C 
ATOM     25  C   UNL     1      -2.247  12.280  19.847  0.00  0.00    +0.000 C 
ENDBRANCH  23  25
ENDBRANCH   1  23
TORSDOF 4
ENDMDL
MODEL 8
REMARK VINA RESULT:      -7.1      2.502      3.979
REMARK  Name = 
REMARK  4 active torsions:
REMARK  status: ('A' for Active; 'I' for Inactive)
REMARK    1  A    between atoms: C_2  and  C_3
REMARK    2  A    between atoms: C_3  and  N_4
REMARK    3  A    between atoms: C_10  and  C_11
REMARK    4  A    between atoms: C_14  and  C_15
REMARK                            x       y       z     vdW  Elec       q    Type
REMARK                         _______ _______ _______ _____ _____    ______ ____
ROOT
ATOM      1  N   UNL     1       3.100   4.486  18.527  0.00  0.00    +0.000 N 
ATOM      2  C   UNL     1       2.709   3.561  19.507  0.00  0.00    +0.000 A 
ATOM      3  O   UNL     1       2.940   2.353  19.447  0.00  0.00    +0.000 OA
ATOM      4  C   UNL     1       1.966   4.073  20.697  0.00  0.00    +0.000 A 
ATOM      5  C   UNL     1       1.706   5.376  20.846  0.00  0.00    +0.000 A 
ATOM      6  C   UNL     1       2.110   6.301  19.851  0.00  0.00    +0.000 A 
ATOM      7  C   UNL     1       1.988   7.695  19.643  0.00  0.00    +0.000 A 
ATOM      8  N   UNL     1       2.571   8.062  18.489  0.00  0.00    +0.000 NA
ATOM      9  N   UNL     1       3.019   6.899  17.962  0.00  0.00    +0.000 N 
ATOM     10  C   UNL     1       2.772   5.819  18.754  0.00  0.00    +0.000 A 
ATOM     11  H   UNL     1       3.476   6.924  17.057  0.00  0.00    +0.000 HD
ENDROOT
BRANCH   7  12
ATOM     12  C   UNL     1       1.310   8.676  20.536  0.00  0.00    +0.000 A 
ATOM     13  C   UNL     1       1.452   8.789  21.902  0.00  0.00    +0.000 A 
ATOM     14  N   UNL     1       0.668   9.772  22.503  0.00  0.00    +0.000 NA
ATOM     15  C   UNL     1      -0.083  10.353  21.588  0.00  0.00    +0.000 A 
ATOM     16  S   UNL     1       0.233   9.868  19.985  0.00  0.00    +0.000 S 
BRANCH  15  17
ATOM     17  C   UNL     1      -1.133  11.336  21.828  0.00  0.00    +0.000 A 
ATOM     18  C   UNL     1      -1.585  12.169  20.806  0.00  0.00    +0.000 A 
ATOM     19  C   UNL     1      -2.520  13.163  21.093  0.00  0.00    +0.000 A 
ATOM     20  C   UNL     1      -2.975  13.283  22.396  0.00  0.00    +0.000 A 
ATOM     21  N   UNL     1      -2.604  12.470  23.407  0.00  0.00    +0.000 NA
ATOM     22  C   UNL     1      -1.693  11.521  23.095  0.00  0.00    +0.000 A 
ENDBRANCH  15  17
ENDBRANCH   7  12
BRANCH   1  23
ATOM     23  C   UNL     1       3.829   4.005  17.369  0.00  0.00    +0.000 C 
BRANCH  23  25
ATOM     24  C   UNL     1       6.177   4.359  16.548  0.00  0.00    +0.000 C 
ATOM     25  C   UNL     1       5.301   4.248  17.550  0.00  0.00    +0.000 C 
ENDBRANCH  23  25
ENDBRANCH   1  23
TORSDOF 4
ENDMDL
MODEL 9
REMARK VINA RESULT:      -7.0      2.623      3.708
REMARK  Name = 
REMARK  4 active torsions:
REMARK  status: ('A' for Active; 'I' for Inactive)
REMARK    1  A    between atoms: C_2  and  C_3
REMARK    2  A    between atoms: C_3  and  N_4
REMARK    3  A    between atoms: C_10  and  C_11
REMARK    4  A    between atoms: C_14  and  C_15
REMARK                            x       y       z     vdW  Elec       q    Type
REMARK                         _______ _______ _______ _____ _____    ______ ____
ROOT
ATOM      1  N   UNL     1       4.748   4.924  18.230  0.00  0.00    +0.000 N 
ATOM      2  C   UNL     1       4.309   4.108  19.284  0.00  0.00    +0.000 A 
ATOM      3  O   UNL     1       4.811   3.021  19.570  0.00  0.00    +0.000 OA
ATOM      4  C   UNL     1       3.160   4.587  20.109  0.00  0.00    +0.000 A 
ATOM      5  C   UNL     1       2.584   5.771  19.876  0.00  0.00    +0.000 A 
ATOM      6  C   UNL     1       3.039   6.589  18.812  0.00  0.00    +0.000 A 
ATOM      7  C   UNL     1       2.675   7.837  18.255  0.00  0.00    +0.000 A 
ATOM      8  N   UNL     1       3.468   8.149  17.216  0.00  0.00    +0.000 NA
ATOM      9  N   UNL     1       4.297   7.086  17.102  0.00  0.00    +0.000 N 
ATOM     10  C   UNL     1       4.080   6.131  18.049  0.00  0.00    +0.000 A 
ATOM     11  H   UNL     1       4.977   7.083  16.350  0.00  0.00    +0.000 HD
ENDROOT
BRANCH   7  12
ATOM     12  C   UNL     1       1.567   8.726  18.703  0.00  0.00    +0.000 A 
ATOM     13  C   UNL     1       0.726   9.469  17.903  0.00  0.00    +0.000 A 
ATOM     14  N   UNL     1      -0.206  10.250  18.584  0.00  0.00    +0.000 NA
ATOM     15  C   UNL     1      -0.026  10.116  19.883  0.00  0.00    +0.000 A 
ATOM     16  S   UNL     1       1.135   8.950  20.330  0.00  0.00    +0.000 S 
BRANCH  15  17
ATOM     17  C   UNL     1      -0.706  10.865  20.932  0.00  0.00    +0.000 A 
ATOM     18  C   UNL     1      -0.646  10.453  22.263  0.00  0.00    +0.000 A 
ATOM     19  C   UNL     1      -1.388  11.137  23.227  0.00  0.00    +0.000 A 
ATOM     20  C   UNL     1      -2.159  12.214  22.823  0.00  0.00    +0.000 A 
ATOM     21  N   UNL     1      -2.210  12.679  21.558  0.00  0.00    +0.000 NA
ATOM     22  C   UNL     1      -1.483  11.991  20.648  0.00  0.00    +0.000 A 
ENDBRANCH  15  17
ENDBRANCH   7  12
BRANCH   1  23
ATOM     23  C   UNL     1       5.868   4.476  17.424  0.00  0.00    +0.000 C 
BRANCH  23  25
ATOM     24  C   UNL     1       7.591   6.117  18.229  0.00  0.00    +0.000 C 
ATOM     25  C   UNL     1       7.162   4.861  18.083  0.00  0.00    +0.000 C 
ENDBRANCH  23  25
ENDBRANCH   1  23
TORSDOF 4
ENDMDL
