MODEL 1
REMARK VINA RESULT:      -8.1      0.000      0.000
REMARK  Name = 
REMARK  6 active torsions:
REMARK  status: ('A' for Active; 'I' for Inactive)
REMARK    1  A    between atoms: C_1  and  O_2
REMARK    2  A    between atoms: O_2  and  C_3
REMARK    3  A    between atoms: C_6  and  N_7
REMARK    4  A    between atoms: N_7  and  C_8
REMARK    5  A    between atoms: C_8  and  N_10
REMARK    6  A    between atoms: N_10  and  N_11
REMARK                            x       y       z     vdW  Elec       q    Type
REMARK                         _______ _______ _______ _____ _____    ______ ____
ROOT
ATOM      1  N   UNL     1       4.953   3.339  17.742  0.00  0.00    +0.000 N 
ATOM      2  H   UNL     1       5.793   2.814  17.996  0.00  0.00    +0.000 HD
ENDROOT
BRANCH   1   3
ATOM      3  N   UNL     1       4.759   3.497  16.381  0.00  0.00    +0.000 NA
ATOM      4  C   UNL     1       5.764   4.050  15.768  0.00  0.00    +0.000 C 
ATOM      5  C   UNL     1       6.941   4.797  16.438  0.00  0.00    +0.000 C 
ATOM      6  O   UNL     1       7.258   4.724  17.611  0.00  0.00    +0.000 OA
ATOM      7  N   UNL     1       7.578   5.465  15.432  0.00  0.00    +0.000 N 
ATOM      8  C   UNL     1       7.170   4.963  14.198  0.00  0.00    +0.000 A 
ATOM      9  C   UNL     1       7.837   5.114  13.002  0.00  0.00    +0.000 A 
ATOM     10  C   UNL     1       7.352   4.400  11.905  0.00  0.00    +0.000 A 
ATOM     11  C   UNL     1       6.186   3.607  12.020  0.00  0.00    +0.000 A 
ATOM     12  C   UNL     1       5.516   3.477  13.240  0.00  0.00    +0.000 A 
ATOM     13  C   UNL     1       6.043   4.138  14.331  0.00  0.00    +0.000 A 
ATOM     14  H   UNL     1       8.363   6.075  15.589  0.00  0.00    +0.000 HD
ENDBRANCH   1   3
BRANCH   1  15
ATOM     15  C   UNL     1       3.920   3.228  18.657  0.00  0.00    +0.000 C 
ATOM     16  S   UNL     1       4.219   2.358  20.051  0.00  0.00    +0.000 S 
BRANCH  15  17
ATOM     17  N   UNL     1       2.841   4.030  18.342  0.00  0.00    +0.000 N 
ATOM     18  H   UNL     1       2.442   3.748  17.454  0.00  0.00    +0.000 HD
BRANCH  17  22
ATOM     19  C   UNL     1       1.833   7.823  19.937  0.00  0.00    +0.000 A 
ATOM     20  C   UNL     1       1.646   6.647  20.659  0.00  0.00    +0.000 A 
ATOM     21  C   UNL     1       1.996   5.409  20.108  0.00  0.00    +0.000 A 
ATOM     22  C   UNL     1       2.492   5.319  18.804  0.00  0.00    +0.000 A 
ATOM     23  C   UNL     1       2.648   6.498  18.070  0.00  0.00    +0.000 A 
ATOM     24  C   UNL     1       2.328   7.748  18.637  0.00  0.00    +0.000 A 
BRANCH  19  26
ATOM     25  C   UNL     1       1.287   8.851  22.002  0.00  0.00    +0.000 C 
ATOM     26  O   UNL     1       1.458   8.961  20.594  0.00  0.00    +0.000 OA
ENDBRANCH  19  26
ENDBRANCH  17  22
ENDBRANCH  15  17
ENDBRANCH   1  15
TORSDOF 5
ENDMDL
MODEL 2
REMARK VINA RESULT:      -8.1      0.604      1.247
REMARK  Name = 
REMARK  6 active torsions:
REMARK  status: ('A' for Active; 'I' for Inactive)
REMARK    1  A    between atoms: C_1  and  O_2
REMARK    2  A    between atoms: O_2  and  C_3
REMARK    3  A    between atoms: C_6  and  N_7
REMARK    4  A    between atoms: N_7  and  C_8
REMARK    5  A    between atoms: C_8  and  N_10
REMARK    6  A    between atoms: N_10  and  N_11
REMARK                            x       y       z     vdW  Elec       q    Type
REMARK                         _______ _______ _______ _____ _____    ______ ____
ROOT
ATOM      1  N   UNL     1       4.952   3.541  17.889  0.00  0.00    +0.000 N 
ATOM      2  H   UNL     1       5.873   3.172  18.138  0.00  0.00    +0.000 HD
ENDROOT
BRANCH   1   3
ATOM      3  N   UNL     1       4.724   3.660  16.529  0.00  0.00    +0.000 NA
ATOM      4  C   UNL     1       5.731   4.155  15.871  0.00  0.00    +0.000 C 
ATOM      5  C   UNL     1       6.952   4.882  16.482  0.00  0.00    +0.000 C 
ATOM      6  O   UNL     1       7.300   4.837  17.647  0.00  0.00    +0.000 OA
ATOM      7  N   UNL     1       7.583   5.491  15.435  0.00  0.00    +0.000 N 
ATOM      8  C   UNL     1       7.123   4.963  14.231  0.00  0.00    +0.000 A 
ATOM      9  C   UNL     1       7.761   5.050  13.013  0.00  0.00    +0.000 A 
ATOM     10  C   UNL     1       7.220   4.317  11.955  0.00  0.00    +0.000 A 
ATOM     11  C   UNL     1       6.030   3.571  12.130  0.00  0.00    +0.000 A 
ATOM     12  C   UNL     1       5.391   3.507  13.372  0.00  0.00    +0.000 A 
ATOM     13  C   UNL     1       5.972   4.184  14.423  0.00  0.00    +0.000 A 
ATOM     14  H   UNL     1       8.394   6.077  15.550  0.00  0.00    +0.000 HD
ENDBRANCH   1   3
BRANCH   1  15
ATOM     15  C   UNL     1       3.960   3.252  18.810  0.00  0.00    +0.000 C 
ATOM     16  S   UNL     1       4.367   2.260  20.091  0.00  0.00    +0.000 S 
BRANCH  15  17
ATOM     17  N   UNL     1       2.815   3.998  18.613  0.00  0.00    +0.000 N 
ATOM     18  H   UNL     1       2.297   3.642  17.820  0.00  0.00    +0.000 HD
BRANCH  17  22
ATOM     19  C   UNL     1       1.804   7.978  19.661  0.00  0.00    +0.000 A 
ATOM     20  C   UNL     1       2.345   7.657  18.418  0.00  0.00    +0.000 A 
ATOM     21  C   UNL     1       2.662   6.332  18.099  0.00  0.00    +0.000 A 
ATOM     22  C   UNL     1       2.492   5.308  19.035  0.00  0.00    +0.000 A 
ATOM     23  C   UNL     1       1.978   5.637  20.293  0.00  0.00    +0.000 A 
ATOM     24  C   UNL     1       1.627   6.966  20.603  0.00  0.00    +0.000 A 
BRANCH  19  26
ATOM     25  C   UNL     1       0.756   9.934  18.829  0.00  0.00    +0.000 C 
ATOM     26  O   UNL     1       1.533   9.305  19.841  0.00  0.00    +0.000 OA
ENDBRANCH  19  26
ENDBRANCH  17  22
ENDBRANCH  15  17
ENDBRANCH   1  15
TORSDOF 5
ENDMDL
MODEL 3
REMARK VINA RESULT:      -8.0      1.034      1.139
REMARK  Name = 
REMARK  6 active torsions:
REMARK  status: ('A' for Active; 'I' for Inactive)
REMARK    1  A    between atoms: C_1  and  O_2
REMARK    2  A    between atoms: O_2  and  C_3
REMARK    3  A    between atoms: C_6  and  N_7
REMARK    4  A    between atoms: N_7  and  C_8
REMARK    5  A    between atoms: C_8  and  N_10
REMARK    6  A    between atoms: N_10  and  N_11
REMARK                            x       y       z     vdW  Elec       q    Type
REMARK                         _______ _______ _______ _____ _____    ______ ____
ROOT
ATOM      1  N   UNL     1       4.959   3.666  17.881  0.00  0.00    +0.000 N 
ATOM      2  H   UNL     1       5.745   3.069  18.148  0.00  0.00    +0.000 HD
ENDROOT
BRANCH   1   3
ATOM      3  N   UNL     1       4.730   3.748  16.520  0.00  0.00    +0.000 NA
ATOM      4  C   UNL     1       5.737   4.222  15.847  0.00  0.00    +0.000 C 
ATOM      5  C   UNL     1       6.960   4.962  16.436  0.00  0.00    +0.000 C 
ATOM      6  O   UNL     1       7.309   4.949  17.602  0.00  0.00    +0.000 OA
ATOM      7  N   UNL     1       7.592   5.542  15.373  0.00  0.00    +0.000 N 
ATOM      8  C   UNL     1       7.129   4.982  14.184  0.00  0.00    +0.000 A 
ATOM      9  C   UNL     1       7.766   5.033  12.964  0.00  0.00    +0.000 A 
ATOM     10  C   UNL     1       7.222   4.273  11.927  0.00  0.00    +0.000 A 
ATOM     11  C   UNL     1       6.031   3.535  12.123  0.00  0.00    +0.000 A 
ATOM     12  C   UNL     1       5.393   3.506  13.367  0.00  0.00    +0.000 A 
ATOM     13  C   UNL     1       5.976   4.211  14.399  0.00  0.00    +0.000 A 
ATOM     14  H   UNL     1       8.404   6.128  15.471  0.00  0.00    +0.000 HD
ENDBRANCH   1   3
BRANCH   1  15
ATOM     15  C   UNL     1       3.956   3.738  18.834  0.00  0.00    +0.000 C 
ATOM     16  S   UNL     1       3.149   2.324  19.208  0.00  0.00    +0.000 S 
BRANCH  15  17
ATOM     17  N   UNL     1       3.908   4.965  19.466  0.00  0.00    +0.000 N 
ATOM     18  H   UNL     1       4.131   4.861  20.449  0.00  0.00    +0.000 HD
BRANCH  17  22
ATOM     19  C   UNL     1       1.932   8.605  18.575  0.00  0.00    +0.000 A 
ATOM     20  C   UNL     1       1.695   7.907  19.756  0.00  0.00    +0.000 A 
ATOM     21  C   UNL     1       2.369   6.711  20.026  0.00  0.00    +0.000 A 
ATOM     22  C   UNL     1       3.256   6.162  19.096  0.00  0.00    +0.000 A 
ATOM     23  C   UNL     1       3.469   6.848  17.896  0.00  0.00    +0.000 A 
ATOM     24  C   UNL     1       2.816   8.070  17.639  0.00  0.00    +0.000 A 
BRANCH  19  26
ATOM     25  C   UNL     1       0.927  10.469  19.640  0.00  0.00    +0.000 C 
ATOM     26  O   UNL     1       1.216   9.761  18.440  0.00  0.00    +0.000 OA
ENDBRANCH  19  26
ENDBRANCH  17  22
ENDBRANCH  15  17
ENDBRANCH   1  15
TORSDOF 5
ENDMDL
MODEL 4
REMARK VINA RESULT:      -7.5      1.834      2.350
REMARK  Name = 
REMARK  6 active torsions:
REMARK  status: ('A' for Active; 'I' for Inactive)
REMARK    1  A    between atoms: C_1  and  O_2
REMARK    2  A    between atoms: O_2  and  C_3
REMARK    3  A    between atoms: C_6  and  N_7
REMARK    4  A    between atoms: N_7  and  C_8
REMARK    5  A    between atoms: C_8  and  N_10
REMARK    6  A    between atoms: N_10  and  N_11
REMARK                            x       y       z     vdW  Elec       q    Type
REMARK                         _______ _______ _______ _____ _____    ______ ____
ROOT
ATOM      1  N   UNL     1       3.550   3.906  19.265  0.00  0.00    +0.000 N 
ATOM      2  H   UNL     1       3.706   2.931  19.535  0.00  0.00    +0.000 HD
ENDROOT
BRANCH   1   3
ATOM      3  N   UNL     1       3.627   4.150  17.906  0.00  0.00    +0.000 NA
ATOM      4  C   UNL     1       4.822   4.461  17.496  0.00  0.00    +0.000 C 
ATOM      5  C   UNL     1       6.012   4.878  18.391  0.00  0.00    +0.000 C 
ATOM      6  O   UNL     1       6.105   4.692  19.590  0.00  0.00    +0.000 OA
ATOM      7  N   UNL     1       6.947   5.403  17.544  0.00  0.00    +0.000 N 
ATOM      8  C   UNL     1       6.644   5.055  16.229  0.00  0.00    +0.000 A 
ATOM      9  C   UNL     1       7.518   5.078  15.164  0.00  0.00    +0.000 A 
ATOM     10  C   UNL     1       7.068   4.538  13.958  0.00  0.00    +0.000 A 
ATOM     11  C   UNL     1       5.746   4.050  13.835  0.00  0.00    +0.000 A 
ATOM     12  C   UNL     1       4.871   4.047  14.926  0.00  0.00    +0.000 A 
ATOM     13  C   UNL     1       5.349   4.525  16.128  0.00  0.00    +0.000 A 
ATOM     14  H   UNL     1       7.816   5.798  17.863  0.00  0.00    +0.000 HD
ENDBRANCH   1   3
BRANCH   1  15
ATOM     15  C   UNL     1       2.717   4.602  20.124  0.00  0.00    +0.000 C 
ATOM     16  S   UNL     1       1.640   3.712  21.040  0.00  0.00    +0.000 S 
BRANCH  15  17
ATOM     17  N   UNL     1       3.047   5.940  20.219  0.00  0.00    +0.000 N 
ATOM     18  H   UNL     1       3.651   6.096  21.016  0.00  0.00    +0.000 HD
BRANCH  17  22
ATOM     19  C   UNL     1       1.135   9.456  18.828  0.00  0.00    +0.000 A 
ATOM     20  C   UNL     1       1.011   9.021  20.145  0.00  0.00    +0.000 A 
ATOM     21  C   UNL     1       1.661   7.860  20.577  0.00  0.00    +0.000 A 
ATOM     22  C   UNL     1       2.406   7.082  19.686  0.00  0.00    +0.000 A 
ATOM     23  C   UNL     1       2.503   7.503  18.357  0.00  0.00    +0.000 A 
ATOM     24  C   UNL     1       1.876   8.691  17.930  0.00  0.00    +0.000 A 
BRANCH  19  26
ATOM     25  C   UNL     1      -0.941  10.478  18.315  0.00  0.00    +0.000 C 
ATOM     26  O   UNL     1       0.457  10.607  18.541  0.00  0.00    +0.000 OA
ENDBRANCH  19  26
ENDBRANCH  17  22
ENDBRANCH  15  17
ENDBRANCH   1  15
TORSDOF 5
ENDMDL
MODEL 5
REMARK VINA RESULT:      -7.5      2.840      6.243
REMARK  Name = 
REMARK  6 active torsions:
REMARK  status: ('A' for Active; 'I' for Inactive)
REMARK    1  A    between atoms: C_1  and  O_2
REMARK    2  A    between atoms: O_2  and  C_3
REMARK    3  A    between atoms: C_6  and  N_7
REMARK    4  A    between atoms: N_7  and  C_8
REMARK    5  A    between atoms: C_8  and  N_10
REMARK    6  A    between atoms: N_10  and  N_11
REMARK                            x       y       z     vdW  Elec       q    Type
REMARK                         _______ _______ _______ _____ _____    ______ ____
ROOT
ATOM      1  N   UNL     1       5.140   6.056  17.027  0.00  0.00    +0.000 N 
ATOM      2  H   UNL     1       5.990   6.544  17.319  0.00  0.00    +0.000 HD
ENDROOT
BRANCH   1   3
ATOM      3  N   UNL     1       4.016   6.858  16.933  0.00  0.00    +0.000 NA
ATOM      4  C   UNL     1       3.424   7.064  18.073  0.00  0.00    +0.000 C 
ATOM      5  C   UNL     1       3.661   6.273  19.380  0.00  0.00    +0.000 C 
ATOM      6  O   UNL     1       4.620   5.564  19.622  0.00  0.00    +0.000 OA
ATOM      7  N   UNL     1       2.631   6.611  20.211  0.00  0.00    +0.000 N 
ATOM      8  C   UNL     1       1.990   7.751  19.731  0.00  0.00    +0.000 A 
ATOM      9  C   UNL     1       1.172   8.587  20.459  0.00  0.00    +0.000 A 
ATOM     10  C   UNL     1       0.753   9.768  19.843  0.00  0.00    +0.000 A 
ATOM     11  C   UNL     1       1.112  10.047  18.503  0.00  0.00    +0.000 A 
ATOM     12  C   UNL     1       1.933   9.179  17.777  0.00  0.00    +0.000 A 
ATOM     13  C   UNL     1       2.391   8.048  18.419  0.00  0.00    +0.000 A 
ATOM     14  H   UNL     1       2.508   6.207  21.124  0.00  0.00    +0.000 HD
ENDBRANCH   1   3
BRANCH   1  15
ATOM     15  C   UNL     1       5.370   4.960  16.213  0.00  0.00    +0.000 C 
ATOM     16  S   UNL     1       6.928   4.730  15.655  0.00  0.00    +0.000 S 
BRANCH  15  17
ATOM     17  N   UNL     1       4.283   4.111  16.142  0.00  0.00    +0.000 N 
ATOM     18  H   UNL     1       3.880   4.134  15.214  0.00  0.00    +0.000 HD
BRANCH  17  22
ATOM     19  C   UNL     1       2.011   2.521  19.346  0.00  0.00    +0.000 A 
ATOM     20  C   UNL     1       3.365   2.234  19.189  0.00  0.00    +0.000 A 
ATOM     21  C   UNL     1       4.090   2.781  18.124  0.00  0.00    +0.000 A 
ATOM     22  C   UNL     1       3.464   3.584  17.167  0.00  0.00    +0.000 A 
ATOM     23  C   UNL     1       2.098   3.845  17.309  0.00  0.00    +0.000 A 
ATOM     24  C   UNL     1       1.375   3.322  18.400  0.00  0.00    +0.000 A 
BRANCH  19  26
ATOM     25  C   UNL     1       1.410   2.691  21.633  0.00  0.00    +0.000 C 
ATOM     26  O   UNL     1       1.425   1.931  20.430  0.00  0.00    +0.000 OA
ENDBRANCH  19  26
ENDBRANCH  17  22
ENDBRANCH  15  17
ENDBRANCH   1  15
TORSDOF 5
ENDMDL
MODEL 6
REMARK VINA RESULT:      -7.5      1.852      2.543
REMARK  Name = 
REMARK  6 active torsions:
REMARK  status: ('A' for Active; 'I' for Inactive)
REMARK    1  A    between atoms: C_1  and  O_2
REMARK    2  A    between atoms: O_2  and  C_3
REMARK    3  A    between atoms: C_6  and  N_7
REMARK    4  A    between atoms: N_7  and  C_8
REMARK    5  A    between atoms: C_8  and  N_10
REMARK    6  A    between atoms: N_10  and  N_11
REMARK                            x       y       z     vdW  Elec       q    Type
REMARK                         _______ _______ _______ _____ _____    ______ ____
ROOT
ATOM      1  N   UNL     1       3.552   3.925  19.246  0.00  0.00    +0.000 N 
ATOM      2  H   UNL     1       3.778   2.971  19.539  0.00  0.00    +0.000 HD
ENDROOT
BRANCH   1   3
ATOM      3  N   UNL     1       3.650   4.152  17.885  0.00  0.00    +0.000 NA
ATOM      4  C   UNL     1       4.839   4.513  17.499  0.00  0.00    +0.000 C 
ATOM      5  C   UNL     1       5.986   4.999  18.414  0.00  0.00    +0.000 C 
ATOM      6  O   UNL     1       6.058   4.836  19.618  0.00  0.00    +0.000 OA
ATOM      7  N   UNL     1       6.916   5.555  17.582  0.00  0.00    +0.000 N 
ATOM      8  C   UNL     1       6.662   5.173  16.266  0.00  0.00    +0.000 A 
ATOM      9  C   UNL     1       7.559   5.222  15.222  0.00  0.00    +0.000 A 
ATOM     10  C   UNL     1       7.165   4.644  14.014  0.00  0.00    +0.000 A 
ATOM     11  C   UNL     1       5.870   4.092  13.868  0.00  0.00    +0.000 A 
ATOM     12  C   UNL     1       4.970   4.064  14.937  0.00  0.00    +0.000 A 
ATOM     13  C   UNL     1       5.395   4.581  16.143  0.00  0.00    +0.000 A 
ATOM     14  H   UNL     1       7.757   5.995  17.915  0.00  0.00    +0.000 HD
ENDBRANCH   1   3
BRANCH   1  15
ATOM     15  C   UNL     1       2.638   4.565  20.067  0.00  0.00    +0.000 C 
ATOM     16  S   UNL     1       1.446   3.626  20.767  0.00  0.00    +0.000 S 
BRANCH  15  17
ATOM     17  N   UNL     1       2.980   5.877  20.323  0.00  0.00    +0.000 N 
ATOM     18  H   UNL     1       3.584   5.930  21.134  0.00  0.00    +0.000 HD
BRANCH  17  22
ATOM     19  C   UNL     1       1.077   9.404  18.944  0.00  0.00    +0.000 A 
ATOM     20  C   UNL     1       1.858   8.611  18.106  0.00  0.00    +0.000 A 
ATOM     21  C   UNL     1       2.467   7.448  18.589  0.00  0.00    +0.000 A 
ATOM     22  C   UNL     1       2.351   7.081  19.933  0.00  0.00    +0.000 A 
ATOM     23  C   UNL     1       1.593   7.895  20.780  0.00  0.00    +0.000 A 
ATOM     24  C   UNL     1       0.951   9.049  20.286  0.00  0.00    +0.000 A 
BRANCH  19  26
ATOM     25  C   UNL     1      -0.872  10.476  18.126  0.00  0.00    +0.000 C 
ATOM     26  O   UNL     1       0.534  10.505  18.345  0.00  0.00    +0.000 OA
ENDBRANCH  19  26
ENDBRANCH  17  22
ENDBRANCH  15  17
ENDBRANCH   1  15
TORSDOF 5
ENDMDL
MODEL 7
REMARK VINA RESULT:      -7.4      2.857      8.667
REMARK  Name = 
REMARK  6 active torsions:
REMARK  status: ('A' for Active; 'I' for Inactive)
REMARK    1  A    between atoms: C_1  and  O_2
REMARK    2  A    between atoms: O_2  and  C_3
REMARK    3  A    between atoms: C_6  and  N_7
REMARK    4  A    between atoms: N_7  and  C_8
REMARK    5  A    between atoms: C_8  and  N_10
REMARK    6  A    between atoms: N_10  and  N_11
REMARK                            x       y       z     vdW  Elec       q    Type
REMARK                         _______ _______ _______ _____ _____    ______ ____
ROOT
ATOM      1  N   UNL     1       2.151   6.890  19.891  0.00  0.00    +0.000 N 
ATOM      2  H   UNL     1       1.628   7.085  19.035  0.00  0.00    +0.000 HD
ENDROOT
BRANCH   1   3
ATOM      3  N   UNL     1       1.755   7.626  20.993  0.00  0.00    +0.000 NA
ATOM      4  C   UNL     1       1.186   8.757  20.691  0.00  0.00    +0.000 C 
ATOM      5  C   UNL     1       1.215   9.451  19.309  0.00  0.00    +0.000 C 
ATOM      6  O   UNL     1       1.501   8.923  18.251  0.00  0.00    +0.000 OA
ATOM      7  N   UNL     1       0.773  10.725  19.525  0.00  0.00    +0.000 N 
ATOM      8  C   UNL     1       0.155  10.808  20.771  0.00  0.00    +0.000 A 
ATOM      9  C   UNL     1      -0.716  11.794  21.178  0.00  0.00    +0.000 A 
ATOM     10  C   UNL     1      -1.356  11.615  22.406  0.00  0.00    +0.000 A 
ATOM     11  C   UNL     1      -1.062  10.490  23.214  0.00  0.00    +0.000 A 
ATOM     12  C   UNL     1      -0.165   9.506  22.787  0.00  0.00    +0.000 A 
ATOM     13  C   UNL     1       0.412   9.665  21.544  0.00  0.00    +0.000 A 
ATOM     14  H   UNL     1       0.729  11.420  18.799  0.00  0.00    +0.000 HD
ENDBRANCH   1   3
BRANCH   1  15
ATOM     15  C   UNL     1       2.644   5.598  19.969  0.00  0.00    +0.000 C 
ATOM     16  S   UNL     1       1.531   4.352  20.016  0.00  0.00    +0.000 S 
BRANCH  15  17
ATOM     17  N   UNL     1       4.014   5.539  19.806  0.00  0.00    +0.000 N 
ATOM     18  H   UNL     1       4.481   5.770  20.675  0.00  0.00    +0.000 HD
BRANCH  17  22
ATOM     19  C   UNL     1       6.488   5.579  16.366  0.00  0.00    +0.000 A 
ATOM     20  C   UNL     1       6.930   5.074  17.586  0.00  0.00    +0.000 A 
ATOM     21  C   UNL     1       6.087   5.067  18.703  0.00  0.00    +0.000 A 
ATOM     22  C   UNL     1       4.802   5.613  18.634  0.00  0.00    +0.000 A 
ATOM     23  C   UNL     1       4.371   6.149  17.417  0.00  0.00    +0.000 A 
ATOM     24  C   UNL     1       5.208   6.124  16.283  0.00  0.00    +0.000 A 
BRANCH  19  26
ATOM     25  C   UNL     1       7.026   4.783  14.199  0.00  0.00    +0.000 C 
ATOM     26  O   UNL     1       7.406   5.518  15.356  0.00  0.00    +0.000 OA
ENDBRANCH  19  26
ENDBRANCH  17  22
ENDBRANCH  15  17
ENDBRANCH   1  15
TORSDOF 5
ENDMDL
MODEL 8
REMARK VINA RESULT:      -7.4      1.207      1.705
REMARK  Name = 
REMARK  6 active torsions:
REMARK  status: ('A' for Active; 'I' for Inactive)
REMARK    1  A    between atoms: C_1  and  O_2
REMARK    2  A    between atoms: O_2  and  C_3
REMARK    3  A    between atoms: C_6  and  N_7
REMARK    4  A    between atoms: N_7  and  C_8
REMARK    5  A    between atoms: C_8  and  N_10
REMARK    6  A    between atoms: N_10  and  N_11
REMARK                            x       y       z     vdW  Elec       q    Type
REMARK                         _______ _______ _______ _____ _____    ______ ____
ROOT
ATOM      1  N   UNL     1       4.414   3.976  17.774  0.00  0.00    +0.000 N 
ATOM      2  H   UNL     1       4.721   3.085  18.171  0.00  0.00    +0.000 HD
ENDROOT
BRANCH   1   3
ATOM      3  N   UNL     1       4.314   3.992  16.395  0.00  0.00    +0.000 NA
ATOM      4  C   UNL     1       5.402   4.379  15.795  0.00  0.00    +0.000 C 
ATOM      5  C   UNL     1       6.603   5.092  16.457  0.00  0.00    +0.000 C 
ATOM      6  O   UNL     1       6.845   5.127  17.649  0.00  0.00    +0.000 OA
ATOM      7  N   UNL     1       7.359   5.579  15.428  0.00  0.00    +0.000 N 
ATOM      8  C   UNL     1       6.976   4.975  14.232  0.00  0.00    +0.000 A 
ATOM      9  C   UNL     1       7.723   4.927  13.075  0.00  0.00    +0.000 A 
ATOM     10  C   UNL     1       7.236   4.137  12.033  0.00  0.00    +0.000 A 
ATOM     11  C   UNL     1       5.994   3.469  12.155  0.00  0.00    +0.000 A 
ATOM     12  C   UNL     1       5.246   3.541  13.334  0.00  0.00    +0.000 A 
ATOM     13  C   UNL     1       5.770   4.275  14.378  0.00  0.00    +0.000 A 
ATOM     14  H   UNL     1       8.188   6.131  15.571  0.00  0.00    +0.000 HD
ENDBRANCH   1   3
BRANCH   1  15
ATOM     15  C   UNL     1       3.594   4.714  18.611  0.00  0.00    +0.000 C 
ATOM     16  S   UNL     1       2.793   3.891  19.824  0.00  0.00    +0.000 S 
BRANCH  15  17
ATOM     17  N   UNL     1       3.718   6.075  18.415  0.00  0.00    +0.000 N 
ATOM     18  H   UNL     1       4.687   6.318  18.245  0.00  0.00    +0.000 HD
BRANCH  17  22
ATOM     19  C   UNL     1       1.104   9.284  19.321  0.00  0.00    +0.000 A 
ATOM     20  C   UNL     1       1.758   9.190  18.095  0.00  0.00    +0.000 A 
ATOM     21  C   UNL     1       2.610   8.114  17.823  0.00  0.00    +0.000 A 
ATOM     22  C   UNL     1       2.864   7.137  18.790  0.00  0.00    +0.000 A 
ATOM     23  C   UNL     1       2.231   7.251  20.031  0.00  0.00    +0.000 A 
ATOM     24  C   UNL     1       1.347   8.316  20.294  0.00  0.00    +0.000 A 
BRANCH  19  26
ATOM     25  C   UNL     1      -0.231  10.620  20.754  0.00  0.00    +0.000 C 
ATOM     26  O   UNL     1       0.296  10.378  19.454  0.00  0.00    +0.000 OA
ENDBRANCH  19  26
ENDBRANCH  17  22
ENDBRANCH  15  17
ENDBRANCH   1  15
TORSDOF 5
ENDMDL
MODEL 9
REMARK VINA RESULT:      -7.4      3.284      5.380
REMARK  Name = 
REMARK  6 active torsions:
REMARK  status: ('A' for Active; 'I' for Inactive)
REMARK    1  A    between atoms: C_1  and  O_2
REMARK    2  A    between atoms: O_2  and  C_3
REMARK    3  A    between atoms: C_6  and  N_7
REMARK    4  A    between atoms: N_7  and  C_8
REMARK    5  A    between atoms: C_8  and  N_10
REMARK    6  A    between atoms: N_10  and  N_11
REMARK                            x       y       z     vdW  Elec       q    Type
REMARK                         _______ _______ _______ _____ _____    ______ ____
ROOT
ATOM      1  N   UNL     1       4.636   5.263  16.901  0.00  0.00    +0.000 N 
ATOM      2  H   UNL     1       5.488   4.697  16.902  0.00  0.00    +0.000 HD
ENDROOT
BRANCH   1   3
ATOM      3  N   UNL     1       3.505   4.608  17.353  0.00  0.00    +0.000 NA
ATOM      4  C   UNL     1       3.672   3.997  18.490  0.00  0.00    +0.000 C 
ATOM      5  C   UNL     1       5.027   3.685  19.166  0.00  0.00    +0.000 C 
ATOM      6  O   UNL     1       6.093   4.209  18.905  0.00  0.00    +0.000 OA
ATOM      7  N   UNL     1       4.750   2.783  20.154  0.00  0.00    +0.000 N 
ATOM      8  C   UNL     1       3.379   2.759  20.403  0.00  0.00    +0.000 A 
ATOM      9  C   UNL     1       2.771   2.272  21.539  0.00  0.00    +0.000 A 
ATOM     10  C   UNL     1       1.397   2.484  21.670  0.00  0.00    +0.000 A 
ATOM     11  C   UNL     1       0.666   3.120  20.639  0.00  0.00    +0.000 A 
ATOM     12  C   UNL     1       1.300   3.596  19.488  0.00  0.00    +0.000 A 
ATOM     13  C   UNL     1       2.667   3.436  19.401  0.00  0.00    +0.000 A 
ATOM     14  H   UNL     1       5.461   2.368  20.733  0.00  0.00    +0.000 HD
ENDBRANCH   1   3
BRANCH   1  15
ATOM     15  C   UNL     1       4.859   6.618  17.077  0.00  0.00    +0.000 C 
ATOM     16  S   UNL     1       6.445   7.122  17.234  0.00  0.00    +0.000 S 
BRANCH  15  17
ATOM     17  N   UNL     1       3.716   7.373  16.906  0.00  0.00    +0.000 N 
ATOM     18  H   UNL     1       3.711   7.798  15.986  0.00  0.00    +0.000 HD
BRANCH  17  22
ATOM     19  C   UNL     1       1.212   8.968  19.929  0.00  0.00    +0.000 A 
ATOM     20  C   UNL     1       1.914   7.778  20.104  0.00  0.00    +0.000 A 
ATOM     21  C   UNL     1       2.739   7.281  19.090  0.00  0.00    +0.000 A 
ATOM     22  C   UNL     1       2.839   7.937  17.860  0.00  0.00    +0.000 A 
ATOM     23  C   UNL     1       2.109   9.114  17.674  0.00  0.00    +0.000 A 
ATOM     24  C   UNL     1       1.304   9.634  18.708  0.00  0.00    +0.000 A 
BRANCH  19  26
ATOM     25  C   UNL     1       1.009   9.112  22.286  0.00  0.00    +0.000 C 
ATOM     26  O   UNL     1       0.450   9.346  20.999  0.00  0.00    +0.000 OA
ENDBRANCH  19  26
ENDBRANCH  17  22
ENDBRANCH  15  17
ENDBRANCH   1  15
TORSDOF 5
ENDMDL
