MODEL 1
REMARK VINA RESULT:      -8.6      0.000      0.000
REMARK  Name = 
REMARK  6 active torsions:
REMARK  status: ('A' for Active; 'I' for Inactive)
REMARK    1  A    between atoms: N_3  and  C_4
REMARK    2  A    between atoms: C_4  and  C_5
REMARK    3  A    between atoms: C_5  and  C_6
REMARK    4  A    between atoms: C_6  and  C_7
REMARK    5  A    between atoms: C_7  and  C_8
REMARK    6  A    between atoms: C_12  and  C_14
REMARK                            x       y       z     vdW  Elec       q    Type
REMARK                         _______ _______ _______ _____ _____    ______ ____
ROOT
ATOM      1  C   UNL     1       7.936   8.756  17.741  0.00  0.00    +0.000 C 
ENDROOT
BRANCH   1   2
ATOM      2  C   UNL     1       8.826   9.509  18.730  0.00  0.00    +0.000 C 
BRANCH   2   5
ATOM      3  O   UNL     1       9.369  11.484  20.468  0.00  0.00    +0.000 OA
ATOM      4  C   UNL     1       9.564  11.730  19.278  0.00  0.00    +0.000 C 
ATOM      5  N   UNL     1       9.281  10.814  18.288  0.00  0.00    +0.000 N 
ATOM      6  N   UNL     1      10.052  12.940  18.874  0.00  0.00    +0.000 N 
ATOM      7  C   UNL     1      10.251  13.446  17.512  0.00  0.00    +0.000 C 
ATOM      8  C   UNL     1      10.716  14.855  17.730  0.00  0.00    +0.000 A 
ATOM      9  C   UNL     1      11.088  15.820  16.813  0.00  0.00    +0.000 A 
ATOM     10  C   UNL     1      11.468  17.053  17.331  0.00  0.00    +0.000 A 
ATOM     11  N   UNL     1      11.496  17.359  18.655  0.00  0.00    +0.000 NA
ATOM     12  C   UNL     1      11.124  16.390  19.524  0.00  0.00    +0.000 A 
ATOM     13  C   UNL     1      10.729  15.147  19.094  0.00  0.00    +0.000 A 
ATOM     14  C   UNL     1      10.286  13.971  19.885  0.00  0.00    +0.000 C 
ATOM     15  H   UNL     1       9.895  10.847  17.490  0.00  0.00    +0.000 HD
ENDBRANCH   2   5
ENDBRANCH   1   2
BRANCH   1  16
ATOM     16  C   UNL     1       7.953   7.256  18.098  0.00  0.00    +0.000 C 
BRANCH  16  17
ATOM     17  C   UNL     1       7.092   6.403  17.173  0.00  0.00    +0.000 C 
BRANCH  17  18
ATOM     18  C   UNL     1       6.216   5.327  17.869  0.00  0.00    +0.000 C 
ATOM     19  C   UNL     1       5.752   4.193  16.931  0.00  0.00    +0.000 C 
ATOM     20  C   UNL     1       4.316   4.303  16.427  0.00  0.00    +0.000 C 
ATOM     21  N   UNL     1       3.404   4.632  17.510  0.00  0.00    +0.000 N 
ATOM     22  C   UNL     1       2.434   3.711  17.900  0.00  0.00    +0.000 C 
ATOM     23  O   UNL     1       2.329   2.618  17.335  0.00  0.00    +0.000 OA
ATOM     24  C   UNL     1       3.689   5.909  18.147  0.00  0.00    +0.000 C 
ATOM     25  C   UNL     1       5.091   5.908  18.758  0.00  0.00    +0.000 C 
BRANCH  22  26
ATOM     26  C   UNL     1       1.437   4.111  19.024  0.00  0.00    +0.000 C 
ATOM     27  C   UNL     1       0.705   2.908  19.614  0.00  0.00    +0.000 C 
ATOM     28  C   UNL     1       1.623   2.500  20.740  0.00  0.00    +0.000 C 
ATOM     29  C   UNL     1       2.100   3.840  21.249  0.00  0.00    +0.000 C 
ATOM     30  O   UNL     1       2.091   4.745  20.136  0.00  0.00    +0.000 OA
ENDBRANCH  22  26
ENDBRANCH  17  18
ENDBRANCH  16  17
ENDBRANCH   1  16
TORSDOF 6
ENDMDL
MODEL 2
REMARK VINA RESULT:      -8.4      2.185     12.092
REMARK  Name = 
REMARK  6 active torsions:
REMARK  status: ('A' for Active; 'I' for Inactive)
REMARK    1  A    between atoms: N_3  and  C_4
REMARK    2  A    between atoms: C_4  and  C_5
REMARK    3  A    between atoms: C_5  and  C_6
REMARK    4  A    between atoms: C_6  and  C_7
REMARK    5  A    between atoms: C_7  and  C_8
REMARK    6  A    between atoms: C_12  and  C_14
REMARK                            x       y       z     vdW  Elec       q    Type
REMARK                         _______ _______ _______ _____ _____    ______ ____
ROOT
ATOM      1  C   UNL     1       7.792   8.059  17.271  0.00  0.00    +0.000 C 
ENDROOT
BRANCH   1   2
ATOM      2  C   UNL     1       7.835   6.942  18.314  0.00  0.00    +0.000 C 
BRANCH   2   5
ATOM      3  O   UNL     1       6.783   4.803  17.076  0.00  0.00    +0.000 OA
ATOM      4  C   UNL     1       6.133   5.272  18.010  0.00  0.00    +0.000 C 
ATOM      5  N   UNL     1       6.546   6.396  18.694  0.00  0.00    +0.000 N 
ATOM      6  N   UNL     1       4.951   4.715  18.403  0.00  0.00    +0.000 N 
ATOM      7  C   UNL     1       3.998   5.188  19.412  0.00  0.00    +0.000 C 
ATOM      8  C   UNL     1       2.868   4.208  19.310  0.00  0.00    +0.000 A 
ATOM      9  C   UNL     1       1.694   4.125  20.035  0.00  0.00    +0.000 A 
ATOM     10  C   UNL     1       0.827   3.094  19.694  0.00  0.00    +0.000 A 
ATOM     11  N   UNL     1       1.059   2.182  18.713  0.00  0.00    +0.000 NA
ATOM     12  C   UNL     1       2.217   2.294  18.023  0.00  0.00    +0.000 A 
ATOM     13  C   UNL     1       3.126   3.287  18.294  0.00  0.00    +0.000 A 
ATOM     14  C   UNL     1       4.433   3.573  17.649  0.00  0.00    +0.000 C 
ATOM     15  H   UNL     1       6.304   6.412  19.671  0.00  0.00    +0.000 HD
ENDBRANCH   2   5
ENDBRANCH   1   2
BRANCH   1  16
ATOM     16  C   UNL     1       7.979   9.414  17.983  0.00  0.00    +0.000 C 
BRANCH  16  17
ATOM     17  C   UNL     1       9.007   9.371  19.109  0.00  0.00    +0.000 C 
BRANCH  17  18
ATOM     18  C   UNL     1       9.960  10.593  19.198  0.00  0.00    +0.000 C 
ATOM     19  C   UNL     1       9.819  11.405  20.503  0.00  0.00    +0.000 C 
ATOM     20  C   UNL     1       9.006  12.692  20.393  0.00  0.00    +0.000 C 
ATOM     21  N   UNL     1       9.393  13.457  19.219  0.00  0.00    +0.000 N 
ATOM     22  C   UNL     1       9.996  14.703  19.374  0.00  0.00    +0.000 C 
ATOM     23  O   UNL     1      10.204  15.174  20.497  0.00  0.00    +0.000 OA
ATOM     24  C   UNL     1       9.174  12.752  17.964  0.00  0.00    +0.000 C 
ATOM     25  C   UNL     1       9.993  11.462  17.918  0.00  0.00    +0.000 C 
BRANCH  22  26
ATOM     26  C   UNL     1      10.349  15.522  18.102  0.00  0.00    +0.000 C 
ATOM     27  C   UNL     1       9.207  16.432  17.654  0.00  0.00    +0.000 C 
ATOM     28  C   UNL     1       9.503  17.704  18.409  0.00  0.00    +0.000 C 
ATOM     29  C   UNL     1      11.012  17.749  18.358  0.00  0.00    +0.000 C 
ATOM     30  O   UNL     1      11.476  16.392  18.304  0.00  0.00    +0.000 OA
ENDBRANCH  22  26
ENDBRANCH  17  18
ENDBRANCH  16  17
ENDBRANCH   1  16
TORSDOF 6
ENDMDL
MODEL 3
REMARK VINA RESULT:      -8.4      6.905      8.662
REMARK  Name = 
REMARK  6 active torsions:
REMARK  status: ('A' for Active; 'I' for Inactive)
REMARK    1  A    between atoms: N_3  and  C_4
REMARK    2  A    between atoms: C_4  and  C_5
REMARK    3  A    between atoms: C_5  and  C_6
REMARK    4  A    between atoms: C_6  and  C_7
REMARK    5  A    between atoms: C_7  and  C_8
REMARK    6  A    between atoms: C_12  and  C_14
REMARK                            x       y       z     vdW  Elec       q    Type
REMARK                         _______ _______ _______ _____ _____    ______ ____
ROOT
ATOM      1  C   UNL     1       0.927   4.486  20.495  0.00  0.00    +0.000 C 
ENDROOT
BRANCH   1   2
ATOM      2  C   UNL     1       1.913   5.613  20.799  0.00  0.00    +0.000 C 
BRANCH   2   5
ATOM      3  O   UNL     1       2.100   7.901  19.404  0.00  0.00    +0.000 OA
ATOM      4  C   UNL     1       1.449   7.946  20.447  0.00  0.00    +0.000 C 
ATOM      5  N   UNL     1       1.318   6.849  21.272  0.00  0.00    +0.000 N 
ATOM      6  N   UNL     1       0.839   9.097  20.855  0.00  0.00    +0.000 N 
ATOM      7  C   UNL     1       0.116   9.366  22.102  0.00  0.00    +0.000 C 
ATOM      8  C   UNL     1      -0.227  10.822  21.998  0.00  0.00    +0.000 A 
ATOM      9  C   UNL     1      -0.933  11.634  22.866  0.00  0.00    +0.000 A 
ATOM     10  C   UNL     1      -1.078  12.964  22.489  0.00  0.00    +0.000 A 
ATOM     11  N   UNL     1      -0.580  13.502  21.345  0.00  0.00    +0.000 NA
ATOM     12  C   UNL     1       0.107  12.679  20.520  0.00  0.00    +0.000 A 
ATOM     13  C   UNL     1       0.301  11.353  20.820  0.00  0.00    +0.000 A 
ATOM     14  C   UNL     1       1.024  10.307  20.053  0.00  0.00    +0.000 C 
ATOM     15  H   UNL     1       0.438   6.785  21.758  0.00  0.00    +0.000 HD
ENDBRANCH   2   5
ENDBRANCH   1   2
BRANCH   1  16
ATOM     16  C   UNL     1       1.647   3.134  20.666  0.00  0.00    +0.000 C 
BRANCH  16  17
ATOM     17  C   UNL     1       1.628   2.273  19.408  0.00  0.00    +0.000 C 
BRANCH  17  18
ATOM     18  C   UNL     1       2.908   2.332  18.531  0.00  0.00    +0.000 C 
ATOM     19  C   UNL     1       4.223   2.344  19.340  0.00  0.00    +0.000 C 
ATOM     20  C   UNL     1       4.884   3.710  19.499  0.00  0.00    +0.000 C 
ATOM     21  N   UNL     1       4.921   4.426  18.234  0.00  0.00    +0.000 N 
ATOM     22  C   UNL     1       6.146   4.704  17.633  0.00  0.00    +0.000 C 
ATOM     23  O   UNL     1       7.208   4.358  18.162  0.00  0.00    +0.000 OA
ATOM     24  C   UNL     1       3.604   4.697  17.678  0.00  0.00    +0.000 C 
ATOM     25  C   UNL     1       2.852   3.392  17.405  0.00  0.00    +0.000 C 
BRANCH  22  26
ATOM     26  C   UNL     1       6.158   5.518  16.309  0.00  0.00    +0.000 C 
ATOM     27  C   UNL     1       7.324   5.140  15.398  0.00  0.00    +0.000 C 
ATOM     28  C   UNL     1       6.730   4.029  14.569  0.00  0.00    +0.000 C 
ATOM     29  C   UNL     1       5.312   4.513  14.375  0.00  0.00    +0.000 C 
ATOM     30  O   UNL     1       4.974   5.305  15.524  0.00  0.00    +0.000 OA
ENDBRANCH  22  26
ENDBRANCH  17  18
ENDBRANCH  16  17
ENDBRANCH   1  16
TORSDOF 6
ENDMDL
MODEL 4
REMARK VINA RESULT:      -8.3      1.448      1.973
REMARK  Name = 
REMARK  6 active torsions:
REMARK  status: ('A' for Active; 'I' for Inactive)
REMARK    1  A    between atoms: N_3  and  C_4
REMARK    2  A    between atoms: C_4  and  C_5
REMARK    3  A    between atoms: C_5  and  C_6
REMARK    4  A    between atoms: C_6  and  C_7
REMARK    5  A    between atoms: C_7  and  C_8
REMARK    6  A    between atoms: C_12  and  C_14
REMARK                            x       y       z     vdW  Elec       q    Type
REMARK                         _______ _______ _______ _____ _____    ______ ____
ROOT
ATOM      1  C   UNL     1       8.187   9.322  17.482  0.00  0.00    +0.000 C 
ENDROOT
BRANCH   1   2
ATOM      2  C   UNL     1       8.881  10.021  18.651  0.00  0.00    +0.000 C 
BRANCH   2   5
ATOM      3  O   UNL     1      10.873  11.485  17.600  0.00  0.00    +0.000 OA
ATOM      4  C   UNL     1       9.899  12.106  18.023  0.00  0.00    +0.000 C 
ATOM      5  N   UNL     1       8.834  11.471  18.626  0.00  0.00    +0.000 N 
ATOM      6  N   UNL     1       9.834  13.467  17.939  0.00  0.00    +0.000 N 
ATOM      7  C   UNL     1       8.815  14.377  18.474  0.00  0.00    +0.000 C 
ATOM      8  C   UNL     1       9.354  15.736  18.141  0.00  0.00    +0.000 A 
ATOM      9  C   UNL     1       8.814  16.988  18.370  0.00  0.00    +0.000 A 
ATOM     10  C   UNL     1       9.568  18.075  17.947  0.00  0.00    +0.000 A 
ATOM     11  N   UNL     1      10.778  17.984  17.333  0.00  0.00    +0.000 NA
ATOM     12  C   UNL     1      11.277  16.744  17.125  0.00  0.00    +0.000 A 
ATOM     13  C   UNL     1      10.597  15.617  17.519  0.00  0.00    +0.000 A 
ATOM     14  C   UNL     1      10.980  14.188  17.385  0.00  0.00    +0.000 C 
ATOM     15  H   UNL     1       7.938  11.905  18.473  0.00  0.00    +0.000 HD
ENDBRANCH   2   5
ENDBRANCH   1   2
BRANCH   1  16
ATOM     16  C   UNL     1       7.496   8.047  18.002  0.00  0.00    +0.000 C 
BRANCH  16  17
ATOM     17  C   UNL     1       7.821   6.803  17.181  0.00  0.00    +0.000 C 
BRANCH  17  18
ATOM     18  C   UNL     1       6.623   5.865  16.875  0.00  0.00    +0.000 C 
ATOM     19  C   UNL     1       5.300   6.609  16.592  0.00  0.00    +0.000 C 
ATOM     20  C   UNL     1       4.310   6.655  17.753  0.00  0.00    +0.000 C 
ATOM     21  N   UNL     1       4.173   5.349  18.376  0.00  0.00    +0.000 N 
ATOM     22  C   UNL     1       2.955   4.676  18.308  0.00  0.00    +0.000 C 
ATOM     23  O   UNL     1       1.983   5.174  17.730  0.00  0.00    +0.000 OA
ATOM     24  C   UNL     1       5.412   4.840  18.945  0.00  0.00    +0.000 C 
ATOM     25  C   UNL     1       6.480   4.682  17.862  0.00  0.00    +0.000 C 
BRANCH  22  26
ATOM     26  C   UNL     1       2.821   3.306  19.031  0.00  0.00    +0.000 C 
ATOM     27  C   UNL     1       2.447   3.454  20.504  0.00  0.00    +0.000 C 
ATOM     28  C   UNL     1       0.939   3.438  20.450  0.00  0.00    +0.000 C 
ATOM     29  C   UNL     1       0.681   2.425  19.360  0.00  0.00    +0.000 C 
ATOM     30  O   UNL     1       1.794   2.481  18.456  0.00  0.00    +0.000 OA
ENDBRANCH  22  26
ENDBRANCH  17  18
ENDBRANCH  16  17
ENDBRANCH   1  16
TORSDOF 6
ENDMDL
MODEL 5
REMARK VINA RESULT:      -8.2      7.047      8.590
REMARK  Name = 
REMARK  6 active torsions:
REMARK  status: ('A' for Active; 'I' for Inactive)
REMARK    1  A    between atoms: N_3  and  C_4
REMARK    2  A    between atoms: C_4  and  C_5
REMARK    3  A    between atoms: C_5  and  C_6
REMARK    4  A    between atoms: C_6  and  C_7
REMARK    5  A    between atoms: C_7  and  C_8
REMARK    6  A    between atoms: C_12  and  C_14
REMARK                            x       y       z     vdW  Elec       q    Type
REMARK                         _______ _______ _______ _____ _____    ______ ____
ROOT
ATOM      1  C   UNL     1       3.837   2.361  20.232  0.00  0.00    +0.000 C 
ENDROOT
BRANCH   1   2
ATOM      2  C   UNL     1       4.958   3.273  19.734  0.00  0.00    +0.000 C 
BRANCH   2   5
ATOM      3  O   UNL     1       6.733   4.917  18.568  0.00  0.00    +0.000 OA
ATOM      4  C   UNL     1       6.110   4.164  17.821  0.00  0.00    +0.000 C 
ATOM      5  N   UNL     1       5.140   3.306  18.295  0.00  0.00    +0.000 N 
ATOM      6  N   UNL     1       6.331   4.156  16.474  0.00  0.00    +0.000 N 
ATOM      7  C   UNL     1       5.623   3.413  15.427  0.00  0.00    +0.000 C 
ATOM      8  C   UNL     1       6.264   3.898  14.162  0.00  0.00    +0.000 A 
ATOM      9  C   UNL     1       6.031   3.532  12.849  0.00  0.00    +0.000 A 
ATOM     10  C   UNL     1       6.791   4.178  11.882  0.00  0.00    +0.000 A 
ATOM     11  N   UNL     1       7.729   5.127  12.143  0.00  0.00    +0.000 NA
ATOM     12  C   UNL     1       7.930   5.461  13.438  0.00  0.00    +0.000 A 
ATOM     13  C   UNL     1       7.217   4.874  14.454  0.00  0.00    +0.000 A 
ATOM     14  C   UNL     1       7.290   5.111  15.919  0.00  0.00    +0.000 C 
ATOM     15  H   UNL     1       5.062   2.435  17.796  0.00  0.00    +0.000 HD
ENDBRANCH   2   5
ENDBRANCH   1   2
BRANCH   1  16
ATOM     16  C   UNL     1       2.917   2.009  19.047  0.00  0.00    +0.000 C 
BRANCH  16  17
ATOM     17  C   UNL     1       1.434   2.179  19.359  0.00  0.00    +0.000 C 
BRANCH  17  18
ATOM     18  C   UNL     1       0.882   3.625  19.240  0.00  0.00    +0.000 C 
ATOM     19  C   UNL     1       1.398   4.394  18.004  0.00  0.00    +0.000 C 
ATOM     20  C   UNL     1       2.522   5.390  18.273  0.00  0.00    +0.000 C 
ATOM     21  N   UNL     1       2.233   6.206  19.441  0.00  0.00    +0.000 N 
ATOM     22  C   UNL     1       2.028   7.576  19.294  0.00  0.00    +0.000 C 
ATOM     23  O   UNL     1       2.095   8.114  18.184  0.00  0.00    +0.000 OA
ATOM     24  C   UNL     1       2.096   5.438  20.670  0.00  0.00    +0.000 C 
ATOM     25  C   UNL     1       0.946   4.436  20.556  0.00  0.00    +0.000 C 
BRANCH  22  26
ATOM     26  C   UNL     1       1.774   8.431  20.567  0.00  0.00    +0.000 C 
ATOM     27  C   UNL     1       1.211   9.813  20.243  0.00  0.00    +0.000 C 
ATOM     28  C   UNL     1      -0.276   9.560  20.263  0.00  0.00    +0.000 C 
ATOM     29  C   UNL     1      -0.405   8.572  21.399  0.00  0.00    +0.000 C 
ATOM     30  O   UNL     1       0.819   7.825  21.453  0.00  0.00    +0.000 OA
ENDBRANCH  22  26
ENDBRANCH  17  18
ENDBRANCH  16  17
ENDBRANCH   1  16
TORSDOF 6
ENDMDL
MODEL 6
REMARK VINA RESULT:      -8.0      2.311     12.427
REMARK  Name = 
REMARK  6 active torsions:
REMARK  status: ('A' for Active; 'I' for Inactive)
REMARK    1  A    between atoms: N_3  and  C_4
REMARK    2  A    between atoms: C_4  and  C_5
REMARK    3  A    between atoms: C_5  and  C_6
REMARK    4  A    between atoms: C_6  and  C_7
REMARK    5  A    between atoms: C_7  and  C_8
REMARK    6  A    between atoms: C_12  and  C_14
REMARK                            x       y       z     vdW  Elec       q    Type
REMARK                         _______ _______ _______ _____ _____    ______ ____
ROOT
ATOM      1  C   UNL     1       7.990   8.512  17.572  0.00  0.00    +0.000 C 
ENDROOT
BRANCH   1   2
ATOM      2  C   UNL     1       7.879   7.105  18.158  0.00  0.00    +0.000 C 
BRANCH   2   5
ATOM      3  O   UNL     1       7.114   5.102  19.777  0.00  0.00    +0.000 OA
ATOM      4  C   UNL     1       6.284   5.493  18.956  0.00  0.00    +0.000 C 
ATOM      5  N   UNL     1       6.573   6.483  18.042  0.00  0.00    +0.000 N 
ATOM      6  N   UNL     1       5.035   4.946  18.894  0.00  0.00    +0.000 N 
ATOM      7  C   UNL     1       3.961   5.207  17.930  0.00  0.00    +0.000 C 
ATOM      8  C   UNL     1       2.890   4.237  18.332  0.00  0.00    +0.000 A 
ATOM      9  C   UNL     1       1.627   4.038  17.806  0.00  0.00    +0.000 A 
ATOM     10  C   UNL     1       0.860   3.041  18.397  0.00  0.00    +0.000 A 
ATOM     11  N   UNL     1       1.267   2.269  19.439  0.00  0.00    +0.000 NA
ATOM     12  C   UNL     1       2.509   2.491  19.928  0.00  0.00    +0.000 A 
ATOM     13  C   UNL     1       3.333   3.452  19.397  0.00  0.00    +0.000 A 
ATOM     14  C   UNL     1       4.714   3.834  19.789  0.00  0.00    +0.000 C 
ATOM     15  H   UNL     1       5.797   7.076  17.796  0.00  0.00    +0.000 HD
ENDBRANCH   2   5
ENDBRANCH   1   2
BRANCH   1  16
ATOM     16  C   UNL     1       8.601   9.448  18.634  0.00  0.00    +0.000 C 
BRANCH  16  17
ATOM     17  C   UNL     1       9.464  10.556  18.041  0.00  0.00    +0.000 C 
BRANCH  17  18
ATOM     18  C   UNL     1       9.297  11.958  18.687  0.00  0.00    +0.000 C 
ATOM     19  C   UNL     1       9.151  13.106  17.666  0.00  0.00    +0.000 C 
ATOM     20  C   UNL     1      10.411  13.931  17.420  0.00  0.00    +0.000 C 
ATOM     21  N   UNL     1      11.059  14.286  18.672  0.00  0.00    +0.000 N 
ATOM     22  C   UNL     1      11.129  15.623  19.059  0.00  0.00    +0.000 C 
ATOM     23  O   UNL     1      10.654  16.517  18.350  0.00  0.00    +0.000 OA
ATOM     24  C   UNL     1      11.496  13.137  19.450  0.00  0.00    +0.000 C 
ATOM     25  C   UNL     1      10.305  12.252  19.824  0.00  0.00    +0.000 C 
BRANCH  22  26
ATOM     26  C   UNL     1      11.874  15.978  20.375  0.00  0.00    +0.000 C 
ATOM     27  C   UNL     1      12.333  17.434  20.415  0.00  0.00    +0.000 C 
ATOM     28  C   UNL     1      11.147  18.122  21.044  0.00  0.00    +0.000 C 
ATOM     29  C   UNL     1      10.697  17.096  22.057  0.00  0.00    +0.000 C 
ATOM     30  O   UNL     1      11.048  15.804  21.538  0.00  0.00    +0.000 OA
ENDBRANCH  22  26
ENDBRANCH  17  18
ENDBRANCH  16  17
ENDBRANCH   1  16
TORSDOF 6
ENDMDL
MODEL 7
REMARK VINA RESULT:      -8.0      1.589      2.206
REMARK  Name = 
REMARK  6 active torsions:
REMARK  status: ('A' for Active; 'I' for Inactive)
REMARK    1  A    between atoms: N_3  and  C_4
REMARK    2  A    between atoms: C_4  and  C_5
REMARK    3  A    between atoms: C_5  and  C_6
REMARK    4  A    between atoms: C_6  and  C_7
REMARK    5  A    between atoms: C_7  and  C_8
REMARK    6  A    between atoms: C_12  and  C_14
REMARK                            x       y       z     vdW  Elec       q    Type
REMARK                         _______ _______ _______ _____ _____    ______ ____
ROOT
ATOM      1  C   UNL     1       8.383   7.891  18.473  0.00  0.00    +0.000 C 
ENDROOT
BRANCH   1   2
ATOM      2  C   UNL     1       8.448   9.316  17.923  0.00  0.00    +0.000 C 
BRANCH   2   5
ATOM      3  O   UNL     1      10.180  11.338  17.569  0.00  0.00    +0.000 OA
ATOM      4  C   UNL     1       9.510  11.363  18.601  0.00  0.00    +0.000 C 
ATOM      5  N   UNL     1       8.620  10.359  18.917  0.00  0.00    +0.000 N 
ATOM      6  N   UNL     1       9.631  12.381  19.503  0.00  0.00    +0.000 N 
ATOM      7  C   UNL     1       9.001  12.528  20.819  0.00  0.00    +0.000 C 
ATOM      8  C   UNL     1       9.602  13.795  21.352  0.00  0.00    +0.000 A 
ATOM      9  C   UNL     1       9.368  14.457  22.543  0.00  0.00    +0.000 A 
ATOM     10  C   UNL     1      10.099  15.620  22.758  0.00  0.00    +0.000 A 
ATOM     11  N   UNL     1      11.007  16.134  21.887  0.00  0.00    +0.000 NA
ATOM     12  C   UNL     1      11.211  15.459  20.732  0.00  0.00    +0.000 A 
ATOM     13  C   UNL     1      10.535  14.299  20.445  0.00  0.00    +0.000 A 
ATOM     14  C   UNL     1      10.626  13.424  19.249  0.00  0.00    +0.000 C 
ATOM     15  H   UNL     1       7.802  10.658  19.423  0.00  0.00    +0.000 HD
ENDBRANCH   2   5
ENDBRANCH   1   2
BRANCH   1  16
ATOM     16  C   UNL     1       7.273   7.121  17.731  0.00  0.00    +0.000 C 
BRANCH  16  17
ATOM     17  C   UNL     1       7.557   5.629  17.596  0.00  0.00    +0.000 C 
BRANCH  17  18
ATOM     18  C   UNL     1       6.432   4.680  18.091  0.00  0.00    +0.000 C 
ATOM     19  C   UNL     1       5.537   4.125  16.963  0.00  0.00    +0.000 C 
ATOM     20  C   UNL     1       4.184   4.813  16.799  0.00  0.00    +0.000 C 
ATOM     21  N   UNL     1       3.530   4.996  18.084  0.00  0.00    +0.000 N 
ATOM     22  C   UNL     1       2.343   4.320  18.358  0.00  0.00    +0.000 C 
ATOM     23  O   UNL     1       1.831   3.569  17.521  0.00  0.00    +0.000 OA
ATOM     24  C   UNL     1       4.281   5.835  19.007  0.00  0.00    +0.000 C 
ATOM     25  C   UNL     1       5.646   5.217  19.311  0.00  0.00    +0.000 C 
BRANCH  22  26
ATOM     26  C   UNL     1       1.638   4.577  19.718  0.00  0.00    +0.000 C 
ATOM     27  C   UNL     1       0.595   3.511  20.049  0.00  0.00    +0.000 C 
ATOM     28  C   UNL     1       1.414   2.492  20.803  0.00  0.00    +0.000 C 
ATOM     29  C   UNL     1       2.354   3.374  21.591  0.00  0.00    +0.000 C 
ATOM     30  O   UNL     1       2.557   4.570  20.823  0.00  0.00    +0.000 OA
ENDBRANCH  22  26
ENDBRANCH  17  18
ENDBRANCH  16  17
ENDBRANCH   1  16
TORSDOF 6
ENDMDL
MODEL 8
REMARK VINA RESULT:      -7.9      1.372      1.587
REMARK  Name = 
REMARK  6 active torsions:
REMARK  status: ('A' for Active; 'I' for Inactive)
REMARK    1  A    between atoms: N_3  and  C_4
REMARK    2  A    between atoms: C_4  and  C_5
REMARK    3  A    between atoms: C_5  and  C_6
REMARK    4  A    between atoms: C_6  and  C_7
REMARK    5  A    between atoms: C_7  and  C_8
REMARK    6  A    between atoms: C_12  and  C_14
REMARK                            x       y       z     vdW  Elec       q    Type
REMARK                         _______ _______ _______ _____ _____    ______ ____
ROOT
ATOM      1  C   UNL     1       7.835   9.389  17.963  0.00  0.00    +0.000 C 
ENDROOT
BRANCH   1   2
ATOM      2  C   UNL     1       9.116  10.041  18.482  0.00  0.00    +0.000 C 
BRANCH   2   5
ATOM      3  O   UNL     1      11.388  11.402  18.927  0.00  0.00    +0.000 OA
ATOM      4  C   UNL     1      10.421  12.059  18.544  0.00  0.00    +0.000 C 
ATOM      5  N   UNL     1       9.188  11.481  18.325  0.00  0.00    +0.000 N 
ATOM      6  N   UNL     1      10.514  13.405  18.338  0.00  0.00    +0.000 N 
ATOM      7  C   UNL     1       9.457  14.359  17.986  0.00  0.00    +0.000 C 
ATOM      8  C   UNL     1      10.164  15.681  17.999  0.00  0.00    +0.000 A 
ATOM      9  C   UNL     1       9.688  16.948  17.715  0.00  0.00    +0.000 A 
ATOM     10  C   UNL     1      10.599  17.991  17.826  0.00  0.00    +0.000 A 
ATOM     11  N   UNL     1      11.901  17.845  18.186  0.00  0.00    +0.000 NA
ATOM     12  C   UNL     1      12.333  16.591  18.457  0.00  0.00    +0.000 A 
ATOM     13  C   UNL     1      11.495  15.506  18.378  0.00  0.00    +0.000 A 
ATOM     14  C   UNL     1      11.780  14.072  18.640  0.00  0.00    +0.000 C 
ATOM     15  H   UNL     1       8.650  11.896  17.581  0.00  0.00    +0.000 HD
ENDBRANCH   2   5
ENDBRANCH   1   2
BRANCH   1  16
ATOM     16  C   UNL     1       8.160   7.959  17.487  0.00  0.00    +0.000 C 
BRANCH  16  17
ATOM     17  C   UNL     1       6.948   7.209  16.947  0.00  0.00    +0.000 C 
BRANCH  17  18
ATOM     18  C   UNL     1       5.956   6.672  18.014  0.00  0.00    +0.000 C 
ATOM     19  C   UNL     1       6.528   5.535  18.887  0.00  0.00    +0.000 C 
ATOM     20  C   UNL     1       6.084   4.126  18.505  0.00  0.00    +0.000 C 
ATOM     21  N   UNL     1       4.650   4.074  18.270  0.00  0.00    +0.000 N 
ATOM     22  C   UNL     1       3.838   3.323  19.117  0.00  0.00    +0.000 C 
ATOM     23  O   UNL     1       4.318   2.691  20.064  0.00  0.00    +0.000 OA
ATOM     24  C   UNL     1       4.206   4.929  17.179  0.00  0.00    +0.000 C 
ATOM     25  C   UNL     1       4.535   6.393  17.471  0.00  0.00    +0.000 C 
BRANCH  22  26
ATOM     26  C   UNL     1       2.317   3.241  18.809  0.00  0.00    +0.000 C 
ATOM     27  C   UNL     1       1.623   2.118  19.577  0.00  0.00    +0.000 C 
ATOM     28  C   UNL     1       1.206   2.815  20.848  0.00  0.00    +0.000 C 
ATOM     29  C   UNL     1       0.819   4.183  20.336  0.00  0.00    +0.000 C 
ATOM     30  O   UNL     1       1.619   4.443  19.173  0.00  0.00    +0.000 OA
ENDBRANCH  22  26
ENDBRANCH  17  18
ENDBRANCH  16  17
ENDBRANCH   1  16
TORSDOF 6
ENDMDL
MODEL 9
REMARK VINA RESULT:      -7.9      2.373     12.494
REMARK  Name = 
REMARK  6 active torsions:
REMARK  status: ('A' for Active; 'I' for Inactive)
REMARK    1  A    between atoms: N_3  and  C_4
REMARK    2  A    between atoms: C_4  and  C_5
REMARK    3  A    between atoms: C_5  and  C_6
REMARK    4  A    between atoms: C_6  and  C_7
REMARK    5  A    between atoms: C_7  and  C_8
REMARK    6  A    between atoms: C_12  and  C_14
REMARK                            x       y       z     vdW  Elec       q    Type
REMARK                         _______ _______ _______ _____ _____    ______ ____
ROOT
ATOM      1  C   UNL     1       8.344   8.115  18.238  0.00  0.00    +0.000 C 
ENDROOT
BRANCH   1   2
ATOM      2  C   UNL     1       7.397   7.394  17.279  0.00  0.00    +0.000 C 
BRANCH   2   5
ATOM      3  O   UNL     1       4.770   7.245  16.740  0.00  0.00    +0.000 OA
ATOM      4  C   UNL     1       5.225   6.387  17.496  0.00  0.00    +0.000 C 
ATOM      5  N   UNL     1       6.549   6.385  17.883  0.00  0.00    +0.000 N 
ATOM      6  N   UNL     1       4.433   5.403  18.012  0.00  0.00    +0.000 N 
ATOM      7  C   UNL     1       4.769   4.369  18.997  0.00  0.00    +0.000 C 
ATOM      8  C   UNL     1       3.465   3.664  19.221  0.00  0.00    +0.000 A 
ATOM      9  C   UNL     1       3.166   2.580  20.024  0.00  0.00    +0.000 A 
ATOM     10  C   UNL     1       1.842   2.157  20.026  0.00  0.00    +0.000 A 
ATOM     11  N   UNL     1       0.846   2.732  19.301  0.00  0.00    +0.000 NA
ATOM     12  C   UNL     1       1.174   3.791  18.526  0.00  0.00    +0.000 A 
ATOM     13  C   UNL     1       2.458   4.276  18.472  0.00  0.00    +0.000 A 
ATOM     14  C   UNL     1       3.005   5.418  17.696  0.00  0.00    +0.000 C 
ATOM     15  H   UNL     1       6.946   5.472  18.033  0.00  0.00    +0.000 HD
ENDBRANCH   2   5
ENDBRANCH   1   2
BRANCH   1  16
ATOM     16  C   UNL     1       8.172   9.636  18.060  0.00  0.00    +0.000 C 
BRANCH  16  17
ATOM     17  C   UNL     1       9.445  10.427  18.340  0.00  0.00    +0.000 C 
BRANCH  17  18
ATOM     18  C   UNL     1       9.448  11.898  17.843  0.00  0.00    +0.000 C 
ATOM     19  C   UNL     1      10.733  12.304  17.091  0.00  0.00    +0.000 C 
ATOM     20  C   UNL     1      11.742  13.112  17.902  0.00  0.00    +0.000 C 
ATOM     21  N   UNL     1      11.087  14.178  18.642  0.00  0.00    +0.000 N 
ATOM     22  C   UNL     1      11.361  15.507  18.327  0.00  0.00    +0.000 C 
ATOM     23  O   UNL     1      12.161  15.797  17.431  0.00  0.00    +0.000 OA
ATOM     24  C   UNL     1      10.107  13.703  19.607  0.00  0.00    +0.000 C 
ATOM     25  C   UNL     1       8.992  12.924  18.907  0.00  0.00    +0.000 C 
BRANCH  22  26
ATOM     26  C   UNL     1      10.688  16.626  19.170  0.00  0.00    +0.000 C 
ATOM     27  C   UNL     1      11.459  17.943  19.120  0.00  0.00    +0.000 C 
ATOM     28  C   UNL     1      10.835  18.630  17.930  0.00  0.00    +0.000 C 
ATOM     29  C   UNL     1       9.386  18.223  18.066  0.00  0.00    +0.000 C 
ATOM     30  O   UNL     1       9.364  16.939  18.707  0.00  0.00    +0.000 OA
ENDBRANCH  22  26
ENDBRANCH  17  18
ENDBRANCH  16  17
ENDBRANCH   1  16
TORSDOF 6
ENDMDL
