MODEL 1
REMARK VINA RESULT:      -8.3      0.000      0.000
REMARK  Name = 
REMARK  7 active torsions:
REMARK  status: ('A' for Active; 'I' for Inactive)
REMARK    1  A    between atoms: C_1  and  O_2
REMARK    2  A    between atoms: O_2  and  C_3
REMARK    3  A    between atoms: C_7  and  C_8
REMARK    4  A    between atoms: C_10  and  C_11
REMARK    5  A    between atoms: C_11  and  O_12
REMARK    6  A    between atoms: O_12  and  C_13
REMARK    7  A    between atoms: C_18  and  C_19
REMARK                            x       y       z     vdW  Elec       q    Type
REMARK                         _______ _______ _______ _____ _____    ______ ____
ROOT
ATOM      1  C   UNL     1       6.478   6.177  16.697  0.00  0.00    +0.000 C 
ENDROOT
BRANCH   1   4
ATOM      2  C   UNL     1       8.408   8.794  18.393  0.00  0.00    +0.000 A 
ATOM      3  C   UNL     1       7.527   8.450  17.393  0.00  0.00    +0.000 A 
ATOM      4  C   UNL     1       7.309   7.065  17.562  0.00  0.00    +0.000 A 
ATOM      5  N   UNL     1       7.984   6.595  18.619  0.00  0.00    +0.000 NA
ATOM      6  O   UNL     1       8.672   7.683  19.136  0.00  0.00    +0.000 OA
BRANCH   2  11
ATOM      7  C   UNL     1      10.303  12.025  18.035  0.00  0.00    +0.000 A 
ATOM      8  C   UNL     1      10.573  12.335  19.366  0.00  0.00    +0.000 A 
ATOM      9  C   UNL     1      10.079  11.527  20.391  0.00  0.00    +0.000 A 
ATOM     10  C   UNL     1       9.341  10.381  20.085  0.00  0.00    +0.000 A 
ATOM     11  C   UNL     1       9.096  10.028  18.752  0.00  0.00    +0.000 A 
ATOM     12  C   UNL     1       9.574  10.874  17.735  0.00  0.00    +0.000 A 
BRANCH   7  14
ATOM     13  C   UNL     1      12.165  13.336  17.398  0.00  0.00    +0.000 C 
ATOM     14  O   UNL     1      10.851  12.866  17.106  0.00  0.00    +0.000 OA
ENDBRANCH   7  14
ENDBRANCH   2  11
ENDBRANCH   1   4
BRANCH   1  15
ATOM     15  O   UNL     1       6.262   4.921  17.352  0.00  0.00    +0.000 OA
BRANCH  15  16
ATOM     16  C   UNL     1       4.993   4.612  17.754  0.00  0.00    +0.000 A 
ATOM     17  C   UNL     1       4.273   3.874  16.808  0.00  0.00    +0.000 A 
ATOM     18  C   UNL     1       2.958   3.493  17.063  0.00  0.00    +0.000 A 
ATOM     19  C   UNL     1       2.356   3.857  18.265  0.00  0.00    +0.000 A 
ATOM     20  F   UNL     1       1.085   3.472  18.460  0.00  0.00    +0.000 F 
ATOM     21  C   UNL     1       3.048   4.596  19.228  0.00  0.00    +0.000 A 
ATOM     22  C   UNL     1       4.375   4.965  18.961  0.00  0.00    +0.000 A 
ATOM     23  F   UNL     1       5.065   5.672  19.868  0.00  0.00    +0.000 F 
BRANCH  21  24
ATOM     24  C   UNL     1       2.417   5.008  20.509  0.00  0.00    +0.000 C 
ATOM     25  N   UNL     1       2.034   6.312  20.651  0.00  0.00    +0.000 N 
ATOM     26  O   UNL     1       2.238   4.229  21.434  0.00  0.00    +0.000 OA
ATOM     27  H   UNL     1       2.144   7.013  19.930  0.00  0.00    +0.000 HD
ATOM     28  H   UNL     1       1.603   6.582  21.524  0.00  0.00    +0.000 HD
ENDBRANCH  21  24
ENDBRANCH  15  16
ENDBRANCH   1  15
TORSDOF 6
ENDMDL
MODEL 2
REMARK VINA RESULT:      -8.3      4.775      7.405
REMARK  Name = 
REMARK  7 active torsions:
REMARK  status: ('A' for Active; 'I' for Inactive)
REMARK    1  A    between atoms: C_1  and  O_2
REMARK    2  A    between atoms: O_2  and  C_3
REMARK    3  A    between atoms: C_7  and  C_8
REMARK    4  A    between atoms: C_10  and  C_11
REMARK    5  A    between atoms: C_11  and  O_12
REMARK    6  A    between atoms: O_12  and  C_13
REMARK    7  A    between atoms: C_18  and  C_19
REMARK                            x       y       z     vdW  Elec       q    Type
REMARK                         _______ _______ _______ _____ _____    ______ ____
ROOT
ATOM      1  C   UNL     1       7.001   5.001  18.116  0.00  0.00    +0.000 C 
ENDROOT
BRANCH   1   4
ATOM      2  C   UNL     1       6.506   4.326  14.545  0.00  0.00    +0.000 A 
ATOM      3  C   UNL     1       6.255   3.970  15.851  0.00  0.00    +0.000 A 
ATOM      4  C   UNL     1       6.907   4.952  16.627  0.00  0.00    +0.000 A 
ATOM      5  N   UNL     1       7.492   5.872  15.850  0.00  0.00    +0.000 NA
ATOM      6  O   UNL     1       7.240   5.475  14.545  0.00  0.00    +0.000 OA
BRANCH   2  11
ATOM      7  C   UNL     1       4.522   3.133  11.580  0.00  0.00    +0.000 A 
ATOM      8  C   UNL     1       5.491   2.436  10.862  0.00  0.00    +0.000 A 
ATOM      9  C   UNL     1       6.813   2.409  11.308  0.00  0.00    +0.000 A 
ATOM     10  C   UNL     1       7.164   3.052  12.497  0.00  0.00    +0.000 A 
ATOM     11  C   UNL     1       6.195   3.721  13.256  0.00  0.00    +0.000 A 
ATOM     12  C   UNL     1       4.875   3.765  12.772  0.00  0.00    +0.000 A 
BRANCH   7  14
ATOM     13  C   UNL     1       3.057   3.742   9.826  0.00  0.00    +0.000 C 
ATOM     14  O   UNL     1       3.252   3.078  11.072  0.00  0.00    +0.000 OA
ENDBRANCH   7  14
ENDBRANCH   2  11
ENDBRANCH   1   4
BRANCH   1  15
ATOM     15  O   UNL     1       6.136   4.014  18.692  0.00  0.00    +0.000 OA
BRANCH  15  16
ATOM     16  C   UNL     1       4.914   4.416  19.153  0.00  0.00    +0.000 A 
ATOM     17  C   UNL     1       4.635   5.763  18.897  0.00  0.00    +0.000 A 
ATOM     18  C   UNL     1       3.434   6.327  19.317  0.00  0.00    +0.000 A 
ATOM     19  C   UNL     1       2.509   5.545  20.004  0.00  0.00    +0.000 A 
ATOM     20  F   UNL     1       1.370   6.138  20.395  0.00  0.00    +0.000 F 
ATOM     21  C   UNL     1       2.759   4.199  20.278  0.00  0.00    +0.000 A 
ATOM     22  C   UNL     1       3.969   3.641  19.840  0.00  0.00    +0.000 A 
ATOM     23  F   UNL     1       4.235   2.350  20.086  0.00  0.00    +0.000 F 
BRANCH  21  24
ATOM     24  C   UNL     1       1.792   3.352  21.025  0.00  0.00    +0.000 C 
ATOM     25  N   UNL     1       0.603   3.047  20.424  0.00  0.00    +0.000 N 
ATOM     26  O   UNL     1       2.019   2.931  22.149  0.00  0.00    +0.000 OA
ATOM     27  H   UNL     1       0.345   3.354  19.495  0.00  0.00    +0.000 HD
ATOM     28  H   UNL     1      -0.048   2.468  20.938  0.00  0.00    +0.000 HD
ENDBRANCH  21  24
ENDBRANCH  15  16
ENDBRANCH   1  15
TORSDOF 6
ENDMDL
MODEL 3
REMARK VINA RESULT:      -8.2      1.811      1.927
REMARK  Name = 
REMARK  7 active torsions:
REMARK  status: ('A' for Active; 'I' for Inactive)
REMARK    1  A    between atoms: C_1  and  O_2
REMARK    2  A    between atoms: O_2  and  C_3
REMARK    3  A    between atoms: C_7  and  C_8
REMARK    4  A    between atoms: C_10  and  C_11
REMARK    5  A    between atoms: C_11  and  O_12
REMARK    6  A    between atoms: O_12  and  C_13
REMARK    7  A    between atoms: C_18  and  C_19
REMARK                            x       y       z     vdW  Elec       q    Type
REMARK                         _______ _______ _______ _____ _____    ______ ____
ROOT
ATOM      1  C   UNL     1       7.143   5.883  18.018  0.00  0.00    +0.000 C 
ENDROOT
BRANCH   1   4
ATOM      2  C   UNL     1       8.656   9.190  18.493  0.00  0.00    +0.000 A 
ATOM      3  C   UNL     1       8.615   7.859  18.841  0.00  0.00    +0.000 A 
ATOM      4  C   UNL     1       7.627   7.295  18.006  0.00  0.00    +0.000 A 
ATOM      5  N   UNL     1       7.117   8.211  17.174  0.00  0.00    +0.000 NA
ATOM      6  O   UNL     1       7.764   9.398  17.484  0.00  0.00    +0.000 OA
BRANCH   2  11
ATOM      7  C   UNL     1      11.003  12.128  18.592  0.00  0.00    +0.000 A 
ATOM      8  C   UNL     1      10.955  12.474  19.940  0.00  0.00    +0.000 A 
ATOM      9  C   UNL     1      10.104  11.793  20.812  0.00  0.00    +0.000 A 
ATOM     10  C   UNL     1       9.322  10.736  20.342  0.00  0.00    +0.000 A 
ATOM     11  C   UNL     1       9.389  10.344  18.999  0.00  0.00    +0.000 A 
ATOM     12  C   UNL     1      10.228  11.065  18.129  0.00  0.00    +0.000 A 
BRANCH   7  14
ATOM     13  C   UNL     1      11.307  13.640  16.800  0.00  0.00    +0.000 C 
ATOM     14  O   UNL     1      11.886  12.840  17.827  0.00  0.00    +0.000 OA
ENDBRANCH   7  14
ENDBRANCH   2  11
ENDBRANCH   1   4
BRANCH   1  15
ATOM     15  O   UNL     1       6.213   5.695  19.093  0.00  0.00    +0.000 OA
BRANCH  15  16
ATOM     16  C   UNL     1       4.946   5.285  18.787  0.00  0.00    +0.000 A 
ATOM     17  C   UNL     1       4.206   6.241  18.082  0.00  0.00    +0.000 A 
ATOM     18  C   UNL     1       2.890   5.979  17.708  0.00  0.00    +0.000 A 
ATOM     19  C   UNL     1       2.308   4.760  18.047  0.00  0.00    +0.000 A 
ATOM     20  F   UNL     1       1.035   4.559  17.672  0.00  0.00    +0.000 F 
ATOM     21  C   UNL     1       3.020   3.788  18.753  0.00  0.00    +0.000 A 
ATOM     22  C   UNL     1       4.347   4.061  19.115  0.00  0.00    +0.000 A 
ATOM     23  F   UNL     1       5.056   3.145  19.790  0.00  0.00    +0.000 F 
BRANCH  21  24
ATOM     24  C   UNL     1       2.410   2.488  19.139  0.00  0.00    +0.000 C 
ATOM     25  N   UNL     1       2.441   1.465  18.233  0.00  0.00    +0.000 N 
ATOM     26  O   UNL     1       1.881   2.307  20.226  0.00  0.00    +0.000 OA
ATOM     27  H   UNL     1       2.865   1.537  17.317  0.00  0.00    +0.000 HD
ATOM     28  H   UNL     1       2.027   0.585  18.505  0.00  0.00    +0.000 HD
ENDBRANCH  21  24
ENDBRANCH  15  16
ENDBRANCH   1  15
TORSDOF 6
ENDMDL
MODEL 4
REMARK VINA RESULT:      -8.2      4.547      6.669
REMARK  Name = 
REMARK  7 active torsions:
REMARK  status: ('A' for Active; 'I' for Inactive)
REMARK    1  A    between atoms: C_1  and  O_2
REMARK    2  A    between atoms: O_2  and  C_3
REMARK    3  A    between atoms: C_7  and  C_8
REMARK    4  A    between atoms: C_10  and  C_11
REMARK    5  A    between atoms: C_11  and  O_12
REMARK    6  A    between atoms: O_12  and  C_13
REMARK    7  A    between atoms: C_18  and  C_19
REMARK                            x       y       z     vdW  Elec       q    Type
REMARK                         _______ _______ _______ _____ _____    ______ ____
ROOT
ATOM      1  C   UNL     1       7.091   4.967  19.214  0.00  0.00    +0.000 C 
ENDROOT
BRANCH   1   4
ATOM      2  C   UNL     1       7.054   5.072  15.548  0.00  0.00    +0.000 A 
ATOM      3  C   UNL     1       6.781   4.375  16.703  0.00  0.00    +0.000 A 
ATOM      4  C   UNL     1       7.134   5.254  17.750  0.00  0.00    +0.000 A 
ATOM      5  N   UNL     1       7.563   6.428  17.270  0.00  0.00    +0.000 NA
ATOM      6  O   UNL     1       7.513   6.309  15.889  0.00  0.00    +0.000 OA
BRANCH   2  11
ATOM      7  C   UNL     1       6.102   3.313  12.361  0.00  0.00    +0.000 A 
ATOM      8  C   UNL     1       6.941   3.937  11.441  0.00  0.00    +0.000 A 
ATOM      9  C   UNL     1       7.774   4.982  11.843  0.00  0.00    +0.000 A 
ATOM     10  C   UNL     1       7.795   5.384  13.181  0.00  0.00    +0.000 A 
ATOM     11  C   UNL     1       6.992   4.740  14.130  0.00  0.00    +0.000 A 
ATOM     12  C   UNL     1       6.135   3.711  13.698  0.00  0.00    +0.000 A 
BRANCH   7  14
ATOM     13  C   UNL     1       6.059   1.264  11.182  0.00  0.00    +0.000 C 
ATOM     14  O   UNL     1       5.344   2.285  11.872  0.00  0.00    +0.000 OA
ENDBRANCH   7  14
ENDBRANCH   2  11
ENDBRANCH   1   4
BRANCH   1  15
ATOM     15  O   UNL     1       5.903   5.526  19.786  0.00  0.00    +0.000 OA
BRANCH  15  16
ATOM     16  C   UNL     1       4.704   5.241  19.195  0.00  0.00    +0.000 A 
ATOM     17  C   UNL     1       4.061   6.364  18.666  0.00  0.00    +0.000 A 
ATOM     18  C   UNL     1       2.822   6.240  18.042  0.00  0.00    +0.000 A 
ATOM     19  C   UNL     1       2.218   4.988  17.954  0.00  0.00    +0.000 A 
ATOM     20  F   UNL     1       1.021   4.922  17.351  0.00  0.00    +0.000 F 
ATOM     21  C   UNL     1       2.833   3.848  18.476  0.00  0.00    +0.000 A 
ATOM     22  C   UNL     1       4.086   3.987  19.093  0.00  0.00    +0.000 A 
ATOM     23  F   UNL     1       4.702   2.909  19.600  0.00  0.00    +0.000 F 
BRANCH  21  24
ATOM     24  C   UNL     1       2.197   2.506  18.407  0.00  0.00    +0.000 C 
ATOM     25  N   UNL     1       1.573   2.029  19.524  0.00  0.00    +0.000 N 
ATOM     26  O   UNL     1       2.220   1.820  17.395  0.00  0.00    +0.000 OA
ATOM     27  H   UNL     1       1.508   2.540  20.395  0.00  0.00    +0.000 HD
ATOM     28  H   UNL     1       1.140   1.117  19.467  0.00  0.00    +0.000 HD
ENDBRANCH  21  24
ENDBRANCH  15  16
ENDBRANCH   1  15
TORSDOF 6
ENDMDL
MODEL 5
REMARK VINA RESULT:      -8.1      2.089      2.499
REMARK  Name = 
REMARK  7 active torsions:
REMARK  status: ('A' for Active; 'I' for Inactive)
REMARK    1  A    between atoms: C_1  and  O_2
REMARK    2  A    between atoms: O_2  and  C_3
REMARK    3  A    between atoms: C_7  and  C_8
REMARK    4  A    between atoms: C_10  and  C_11
REMARK    5  A    between atoms: C_11  and  O_12
REMARK    6  A    between atoms: O_12  and  C_13
REMARK    7  A    between atoms: C_18  and  C_19
REMARK                            x       y       z     vdW  Elec       q    Type
REMARK                         _______ _______ _______ _____ _____    ______ ____
ROOT
ATOM      1  C   UNL     1       7.369   5.063  18.242  0.00  0.00    +0.000 C 
ENDROOT
BRANCH   1   4
ATOM      2  C   UNL     1       8.370   8.591  18.186  0.00  0.00    +0.000 A 
ATOM      3  C   UNL     1       8.350   7.389  18.856  0.00  0.00    +0.000 A 
ATOM      4  C   UNL     1       7.705   6.493  17.977  0.00  0.00    +0.000 A 
ATOM      5  N   UNL     1       7.382   7.095  16.825  0.00  0.00    +0.000 NA
ATOM      6  O   UNL     1       7.798   8.411  16.962  0.00  0.00    +0.000 OA
BRANCH   2  11
ATOM      7  C   UNL     1       9.520  11.515  20.255  0.00  0.00    +0.000 A 
ATOM      8  C   UNL     1       9.522  12.538  19.310  0.00  0.00    +0.000 A 
ATOM      9  C   UNL     1       9.213  12.265  17.976  0.00  0.00    +0.000 A 
ATOM     10  C   UNL     1       8.865  10.968  17.590  0.00  0.00    +0.000 A 
ATOM     11  C   UNL     1       8.815   9.935  18.534  0.00  0.00    +0.000 A 
ATOM     12  C   UNL     1       9.162  10.224  19.867  0.00  0.00    +0.000 A 
BRANCH   7  14
ATOM     13  C   UNL     1       9.676  13.281  21.820  0.00  0.00    +0.000 C 
ATOM     14  O   UNL     1       9.814  11.891  21.537  0.00  0.00    +0.000 OA
ENDBRANCH   7  14
ENDBRANCH   2  11
ENDBRANCH   1   4
BRANCH   1  15
ATOM     15  O   UNL     1       6.407   4.977  19.301  0.00  0.00    +0.000 OA
BRANCH  15  16
ATOM     16  C   UNL     1       5.096   4.780  18.968  0.00  0.00    +0.000 A 
ATOM     17  C   UNL     1       4.572   5.783  18.145  0.00  0.00    +0.000 A 
ATOM     18  C   UNL     1       3.244   5.732  17.730  0.00  0.00    +0.000 A 
ATOM     19  C   UNL     1       2.432   4.680  18.146  0.00  0.00    +0.000 A 
ATOM     20  F   UNL     1       1.157   4.681  17.725  0.00  0.00    +0.000 F 
ATOM     21  C   UNL     1       2.925   3.666  18.970  0.00  0.00    +0.000 A 
ATOM     22  C   UNL     1       4.267   3.724  19.373  0.00  0.00    +0.000 A 
ATOM     23  F   UNL     1       4.768   2.763  20.161  0.00  0.00    +0.000 F 
BRANCH  21  24
ATOM     24  C   UNL     1       2.069   2.544  19.437  0.00  0.00    +0.000 C 
ATOM     25  N   UNL     1       1.989   1.424  18.658  0.00  0.00    +0.000 N 
ATOM     26  O   UNL     1       1.436   2.591  20.482  0.00  0.00    +0.000 OA
ATOM     27  H   UNL     1       2.487   1.308  17.785  0.00  0.00    +0.000 HD
ATOM     28  H   UNL     1       1.407   0.665  18.986  0.00  0.00    +0.000 HD
ENDBRANCH  21  24
ENDBRANCH  15  16
ENDBRANCH   1  15
TORSDOF 6
ENDMDL
MODEL 6
REMARK VINA RESULT:      -8.1      1.654      1.902
REMARK  Name = 
REMARK  7 active torsions:
REMARK  status: ('A' for Active; 'I' for Inactive)
REMARK    1  A    between atoms: C_1  and  O_2
REMARK    2  A    between atoms: O_2  and  C_3
REMARK    3  A    between atoms: C_7  and  C_8
REMARK    4  A    between atoms: C_10  and  C_11
REMARK    5  A    between atoms: C_11  and  O_12
REMARK    6  A    between atoms: O_12  and  C_13
REMARK    7  A    between atoms: C_18  and  C_19
REMARK                            x       y       z     vdW  Elec       q    Type
REMARK                         _______ _______ _______ _____ _____    ______ ____
ROOT
ATOM      1  C   UNL     1       6.838   4.997  18.134  0.00  0.00    +0.000 C 
ENDROOT
BRANCH   1   4
ATOM      2  C   UNL     1       8.244   8.383  18.226  0.00  0.00    +0.000 A 
ATOM      3  C   UNL     1       8.092   7.161  18.839  0.00  0.00    +0.000 A 
ATOM      4  C   UNL     1       7.336   6.389  17.930  0.00  0.00    +0.000 A 
ATOM      5  N   UNL     1       7.072   7.080  16.814  0.00  0.00    +0.000 NA
ATOM      6  O   UNL     1       7.641   8.331  17.005  0.00  0.00    +0.000 OA
BRANCH   2  11
ATOM      7  C   UNL     1       9.855  11.775  17.985  0.00  0.00    +0.000 A 
ATOM      8  C   UNL     1      10.161  12.030  19.320  0.00  0.00    +0.000 A 
ATOM      9  C   UNL     1       9.782  11.127  20.314  0.00  0.00    +0.000 A 
ATOM     10  C   UNL     1       9.124   9.943  19.970  0.00  0.00    +0.000 A 
ATOM     11  C   UNL     1       8.847   9.648  18.629  0.00  0.00    +0.000 A 
ATOM     12  C   UNL     1       9.208  10.587  17.646  0.00  0.00    +0.000 A 
BRANCH   7  14
ATOM     13  C   UNL     1      11.155  13.714  17.611  0.00  0.00    +0.000 C 
ATOM     14  O   UNL     1      10.291  12.710  17.087  0.00  0.00    +0.000 OA
ENDBRANCH   7  14
ENDBRANCH   2  11
ENDBRANCH   1   4
BRANCH   1  15
ATOM     15  O   UNL     1       5.525   4.863  17.576  0.00  0.00    +0.000 OA
BRANCH  15  16
ATOM     16  C   UNL     1       4.452   4.975  18.415  0.00  0.00    +0.000 A 
ATOM     17  C   UNL     1       3.860   6.243  18.397  0.00  0.00    +0.000 A 
ATOM     18  C   UNL     1       2.763   6.521  19.209  0.00  0.00    +0.000 A 
ATOM     19  C   UNL     1       2.260   5.531  20.048  0.00  0.00    +0.000 A 
ATOM     20  F   UNL     1       1.206   5.852  20.817  0.00  0.00    +0.000 F 
ATOM     21  C   UNL     1       2.831   4.257  20.092  0.00  0.00    +0.000 A 
ATOM     22  C   UNL     1       3.929   3.988  19.262  0.00  0.00    +0.000 A 
ATOM     23  F   UNL     1       4.496   2.773  19.280  0.00  0.00    +0.000 F 
BRANCH  21  24
ATOM     24  C   UNL     1       2.318   3.193  20.994  0.00  0.00    +0.000 C 
ATOM     25  N   UNL     1       1.016   2.801  20.856  0.00  0.00    +0.000 N 
ATOM     26  O   UNL     1       3.013   2.667  21.851  0.00  0.00    +0.000 OA
ATOM     27  H   UNL     1       0.382   3.185  20.168  0.00  0.00    +0.000 HD
ATOM     28  H   UNL     1       0.677   2.075  21.472  0.00  0.00    +0.000 HD
ENDBRANCH  21  24
ENDBRANCH  15  16
ENDBRANCH   1  15
TORSDOF 6
ENDMDL
MODEL 7
REMARK VINA RESULT:      -8.0      5.163      7.044
REMARK  Name = 
REMARK  7 active torsions:
REMARK  status: ('A' for Active; 'I' for Inactive)
REMARK    1  A    between atoms: C_1  and  O_2
REMARK    2  A    between atoms: O_2  and  C_3
REMARK    3  A    between atoms: C_7  and  C_8
REMARK    4  A    between atoms: C_10  and  C_11
REMARK    5  A    between atoms: C_11  and  O_12
REMARK    6  A    between atoms: O_12  and  C_13
REMARK    7  A    between atoms: C_18  and  C_19
REMARK                            x       y       z     vdW  Elec       q    Type
REMARK                         _______ _______ _______ _____ _____    ______ ____
ROOT
ATOM      1  C   UNL     1       4.666   5.245  19.211  0.00  0.00    +0.000 C 
ENDROOT
BRANCH   1   4
ATOM      2  C   UNL     1       6.230   4.731  15.934  0.00  0.00    +0.000 A 
ATOM      3  C   UNL     1       5.130   5.132  16.658  0.00  0.00    +0.000 A 
ATOM      4  C   UNL     1       5.515   4.997  18.009  0.00  0.00    +0.000 A 
ATOM      5  N   UNL     1       6.781   4.574  18.111  0.00  0.00    +0.000 NA
ATOM      6  O   UNL     1       7.225   4.406  16.807  0.00  0.00    +0.000 OA
BRANCH   2  11
ATOM      7  C   UNL     1       5.997   3.384  12.429  0.00  0.00    +0.000 A 
ATOM      8  C   UNL     1       7.053   4.047  11.809  0.00  0.00    +0.000 A 
ATOM      9  C   UNL     1       7.805   4.989  12.513  0.00  0.00    +0.000 A 
ATOM     10  C   UNL     1       7.523   5.244  13.857  0.00  0.00    +0.000 A 
ATOM     11  C   UNL     1       6.494   4.556  14.511  0.00  0.00    +0.000 A 
ATOM     12  C   UNL     1       5.727   3.635  13.774  0.00  0.00    +0.000 A 
BRANCH   7  14
ATOM     13  C   UNL     1       6.113   1.345  11.237  0.00  0.00    +0.000 C 
ATOM     14  O   UNL     1       5.339   2.464  11.659  0.00  0.00    +0.000 OA
ENDBRANCH   7  14
ENDBRANCH   2  11
ENDBRANCH   1   4
BRANCH   1  15
ATOM     15  O   UNL     1       3.291   5.355  18.823  0.00  0.00    +0.000 OA
BRANCH  15  16
ATOM     16  C   UNL     1       2.646   6.536  19.058  0.00  0.00    +0.000 A 
ATOM     17  C   UNL     1       2.794   7.468  18.024  0.00  0.00    +0.000 A 
ATOM     18  C   UNL     1       2.207   8.727  18.120  0.00  0.00    +0.000 A 
ATOM     19  C   UNL     1       1.475   9.061  19.256  0.00  0.00    +0.000 A 
ATOM     20  F   UNL     1       0.935  10.289  19.304  0.00  0.00    +0.000 F 
ATOM     21  C   UNL     1       1.311   8.154  20.306  0.00  0.00    +0.000 A 
ATOM     22  C   UNL     1       1.900   6.886  20.192  0.00  0.00    +0.000 A 
ATOM     23  F   UNL     1       1.757   5.994  21.183  0.00  0.00    +0.000 F 
BRANCH  21  24
ATOM     24  C   UNL     1       0.547   8.498  21.534  0.00  0.00    +0.000 C 
ATOM     25  N   UNL     1       1.176   9.229  22.502  0.00  0.00    +0.000 N 
ATOM     26  O   UNL     1      -0.610   8.146  21.708  0.00  0.00    +0.000 OA
ATOM     27  H   UNL     1       2.129   9.561  22.428  0.00  0.00    +0.000 HD
ATOM     28  H   UNL     1       0.647   9.461  23.332  0.00  0.00    +0.000 HD
ENDBRANCH  21  24
ENDBRANCH  15  16
ENDBRANCH   1  15
TORSDOF 6
ENDMDL
MODEL 8
REMARK VINA RESULT:      -8.0      4.692      7.589
REMARK  Name = 
REMARK  7 active torsions:
REMARK  status: ('A' for Active; 'I' for Inactive)
REMARK    1  A    between atoms: C_1  and  O_2
REMARK    2  A    between atoms: O_2  and  C_3
REMARK    3  A    between atoms: C_7  and  C_8
REMARK    4  A    between atoms: C_10  and  C_11
REMARK    5  A    between atoms: C_11  and  O_12
REMARK    6  A    between atoms: O_12  and  C_13
REMARK    7  A    between atoms: C_18  and  C_19
REMARK                            x       y       z     vdW  Elec       q    Type
REMARK                         _______ _______ _______ _____ _____    ______ ____
ROOT
ATOM      1  C   UNL     1       7.261   5.012  17.621  0.00  0.00    +0.000 C 
ENDROOT
BRANCH   1   4
ATOM      2  C   UNL     1       6.502   4.138  14.142  0.00  0.00    +0.000 A 
ATOM      3  C   UNL     1       6.335   3.868  15.481  0.00  0.00    +0.000 A 
ATOM      4  C   UNL     1       7.063   4.876  16.148  0.00  0.00    +0.000 A 
ATOM      5  N   UNL     1       7.611   5.733  15.277  0.00  0.00    +0.000 NA
ATOM      6  O   UNL     1       7.259   5.265  14.020  0.00  0.00    +0.000 OA
BRANCH   2  11
ATOM      7  C   UNL     1       4.343   3.029  11.266  0.00  0.00    +0.000 A 
ATOM      8  C   UNL     1       5.163   2.083  10.656  0.00  0.00    +0.000 A 
ATOM      9  C   UNL     1       6.451   1.850  11.139  0.00  0.00    +0.000 A 
ATOM     10  C   UNL     1       6.912   2.541  12.262  0.00  0.00    +0.000 A 
ATOM     11  C   UNL     1       6.088   3.465  12.916  0.00  0.00    +0.000 A 
ATOM     12  C   UNL     1       4.805   3.710  12.393  0.00  0.00    +0.000 A 
BRANCH   7  14
ATOM     13  C   UNL     1       2.947   4.191   9.752  0.00  0.00    +0.000 C 
ATOM     14  O   UNL     1       3.092   3.166  10.731  0.00  0.00    +0.000 OA
ENDBRANCH   7  14
ENDBRANCH   2  11
ENDBRANCH   1   4
BRANCH   1  15
ATOM     15  O   UNL     1       6.255   5.870  18.173  0.00  0.00    +0.000 OA
BRANCH  15  16
ATOM     16  C   UNL     1       4.971   5.407  18.229  0.00  0.00    +0.000 A 
ATOM     17  C   UNL     1       4.025   6.324  17.758  0.00  0.00    +0.000 A 
ATOM     18  C   UNL     1       2.670   6.005  17.763  0.00  0.00    +0.000 A 
ATOM     19  C   UNL     1       2.255   4.768  18.249  0.00  0.00    +0.000 A 
ATOM     20  F   UNL     1       0.937   4.512  18.240  0.00  0.00    +0.000 F 
ATOM     21  C   UNL     1       3.174   3.832  18.729  0.00  0.00    +0.000 A 
ATOM     22  C   UNL     1       4.537   4.163  18.709  0.00  0.00    +0.000 A 
ATOM     23  F   UNL     1       5.443   3.283  19.160  0.00  0.00    +0.000 F 
BRANCH  21  24
ATOM     24  C   UNL     1       2.750   2.513  19.267  0.00  0.00    +0.000 C 
ATOM     25  N   UNL     1       2.784   1.433  18.431  0.00  0.00    +0.000 N 
ATOM     26  O   UNL     1       2.368   2.365  20.419  0.00  0.00    +0.000 OA
ATOM     27  H   UNL     1       3.093   1.475  17.468  0.00  0.00    +0.000 HD
ATOM     28  H   UNL     1       2.497   0.539  18.806  0.00  0.00    +0.000 HD
ENDBRANCH  21  24
ENDBRANCH  15  16
ENDBRANCH   1  15
TORSDOF 6
ENDMDL
MODEL 9
REMARK VINA RESULT:      -8.0      4.834      7.746
REMARK  Name = 
REMARK  7 active torsions:
REMARK  status: ('A' for Active; 'I' for Inactive)
REMARK    1  A    between atoms: C_1  and  O_2
REMARK    2  A    between atoms: O_2  and  C_3
REMARK    3  A    between atoms: C_7  and  C_8
REMARK    4  A    between atoms: C_10  and  C_11
REMARK    5  A    between atoms: C_11  and  O_12
REMARK    6  A    between atoms: O_12  and  C_13
REMARK    7  A    between atoms: C_18  and  C_19
REMARK                            x       y       z     vdW  Elec       q    Type
REMARK                         _______ _______ _______ _____ _____    ______ ____
ROOT
ATOM      1  C   UNL     1       6.861   5.071  17.751  0.00  0.00    +0.000 C 
ENDROOT
BRANCH   1   4
ATOM      2  C   UNL     1       6.075   4.170  14.283  0.00  0.00    +0.000 A 
ATOM      3  C   UNL     1       5.808   4.012  15.625  0.00  0.00    +0.000 A 
ATOM      4  C   UNL     1       6.694   4.895  16.278  0.00  0.00    +0.000 A 
ATOM      5  N   UNL     1       7.433   5.579  15.395  0.00  0.00    +0.000 NA
ATOM      6  O   UNL     1       7.042   5.120  14.146  0.00  0.00    +0.000 OA
BRANCH   2  11
ATOM      7  C   UNL     1       5.859   1.792  11.376  0.00  0.00    +0.000 A 
ATOM      8  C   UNL     1       4.791   2.328  10.661  0.00  0.00    +0.000 A 
ATOM      9  C   UNL     1       4.091   3.428  11.158  0.00  0.00    +0.000 A 
ATOM     10  C   UNL     1       4.483   4.021  12.361  0.00  0.00    +0.000 A 
ATOM     11  C   UNL     1       5.582   3.524  13.073  0.00  0.00    +0.000 A 
ATOM     12  C   UNL     1       6.253   2.393  12.572  0.00  0.00    +0.000 A 
BRANCH   7  14
ATOM     13  C   UNL     1       6.112  -0.557  11.273  0.00  0.00    +0.000 C 
ATOM     14  O   UNL     1       6.492   0.730  10.791  0.00  0.00    +0.000 OA
ENDBRANCH   7  14
ENDBRANCH   2  11
ENDBRANCH   1   4
BRANCH   1  15
ATOM     15  O   UNL     1       6.114   4.067  18.449  0.00  0.00    +0.000 OA
BRANCH  15  16
ATOM     16  C   UNL     1       4.920   4.423  19.010  0.00  0.00    +0.000 A 
ATOM     17  C   UNL     1       4.595   5.771  18.823  0.00  0.00    +0.000 A 
ATOM     18  C   UNL     1       3.415   6.291  19.348  0.00  0.00    +0.000 A 
ATOM     19  C   UNL     1       2.559   5.465  20.071  0.00  0.00    +0.000 A 
ATOM     20  F   UNL     1       1.439   6.016  20.563  0.00  0.00    +0.000 F 
ATOM     21  C   UNL     1       2.857   4.116  20.278  0.00  0.00    +0.000 A 
ATOM     22  C   UNL     1       4.045   3.602  19.735  0.00  0.00    +0.000 A 
ATOM     23  F   UNL     1       4.355   2.311  19.915  0.00  0.00    +0.000 F 
BRANCH  21  24
ATOM     24  C   UNL     1       1.965   3.222  21.061  0.00  0.00    +0.000 C 
ATOM     25  N   UNL     1       0.755   2.884  20.523  0.00  0.00    +0.000 N 
ATOM     26  O   UNL     1       2.271   2.788  22.163  0.00  0.00    +0.000 OA
ATOM     27  H   UNL     1       0.434   3.198  19.617  0.00  0.00    +0.000 HD
ATOM     28  H   UNL     1       0.156   2.273  21.062  0.00  0.00    +0.000 HD
ENDBRANCH  21  24
ENDBRANCH  15  16
ENDBRANCH   1  15
TORSDOF 6
ENDMDL
