MODEL 1
REMARK VINA RESULT:      -6.9      0.000      0.000
REMARK  Name = 
REMARK  17 active torsions:
REMARK  status: ('A' for Active; 'I' for Inactive)
REMARK    1  A    between atoms: C_1  and  C_2
REMARK    2  A    between atoms: C_2  and  C_3
REMARK    3  A    between atoms: C_3  and  C_4
REMARK    4  A    between atoms: C_4  and  C_5
REMARK    5  A    between atoms: C_5  and  C_6
REMARK    6  A    between atoms: C_6  and  O_7
REMARK    7  A    between atoms: C_6  and  C_8
REMARK    8  A    between atoms: C_8  and  C_9
REMARK    9  A    between atoms: C_9  and  C_10
REMARK   10  A    between atoms: N_11  and  C_12
REMARK   11  A    between atoms: C_12  and  C_13
REMARK   12  A    between atoms: C_13  and  C_14
REMARK   13  A    between atoms: C_14  and  C_15
REMARK   14  A    between atoms: C_15  and  C_16
REMARK   15  A    between atoms: C_16  and  C_17
REMARK   16  A    between atoms: C_17  and  C_18
REMARK   17  A    between atoms: C_18  and  O_20
REMARK                            x       y       z     vdW  Elec       q    Type
REMARK                         _______ _______ _______ _____ _____    ______ ____
ROOT
ATOM      1  C   UNL     1       5.007   5.404  16.732  0.00  0.00    +0.000 C 
ATOM      2  N   UNL     1       4.934   4.274  17.658  0.00  0.00    +0.000 N 
ATOM      3  C   UNL     1       5.624   4.466  18.852  0.00  0.00    +0.000 C 
ATOM      4  O   UNL     1       5.483   3.756  19.844  0.00  0.00    +0.000 OA
ATOM      5  C   UNL     1       6.602   5.605  18.834  0.00  0.00    +0.000 C 
ATOM      6  S   UNL     1       6.401   6.415  17.293  0.00  0.00    +0.000 S 
ATOM      7  O   UNL     1       7.584   6.148  16.491  0.00  0.00    +0.000 OA
ATOM      8  O   UNL     1       5.938   7.770  17.527  0.00  0.00    +0.000 OA
ENDROOT
BRANCH   1   9
ATOM      9  C   UNL     1       5.109   5.059  15.241  0.00  0.00    +0.000 C 
BRANCH   9  10
ATOM     10  C   UNL     1       6.148   3.955  14.987  0.00  0.00    +0.000 C 
BRANCH  10  11
ATOM     11  C   UNL     1       6.902   4.101  13.664  0.00  0.00    +0.000 C 
BRANCH  11  12
ATOM     12  O   UNL     1       7.735   5.253  13.715  0.00  0.00    +0.000 OA
ATOM     13  H   UNL     1       8.401   5.117  14.413  0.00  0.00    +0.000 HD
ENDBRANCH  11  12
BRANCH  11  14
ATOM     14  C   UNL     1       5.899   4.224  12.509  0.00  0.00    +0.000 C 
BRANCH  14  15
ATOM     15  C   UNL     1       5.704   2.906  11.764  0.00  0.00    +0.000 C 
BRANCH  15  16
ATOM     16  C   UNL     1       4.260   2.760  11.287  0.00  0.00    +0.000 C 
BRANCH  16  18
ATOM     17  C   UNL     1       2.933   3.909   9.488  0.00  0.00    +0.000 C 
ATOM     18  C   UNL     1       3.718   4.091  10.775  0.00  0.00    +0.000 C 
ENDBRANCH  16  18
ENDBRANCH  15  16
ENDBRANCH  14  15
ENDBRANCH  11  14
ENDBRANCH  10  11
ENDBRANCH   9  10
ENDBRANCH   1   9
BRANCH   2  19
ATOM     19  C   UNL     1       4.007   3.159  17.502  0.00  0.00    +0.000 C 
BRANCH  19  20
ATOM     20  C   UNL     1       2.521   3.523  17.520  0.00  0.00    +0.000 C 
BRANCH  20  21
ATOM     21  C   UNL     1       1.611   2.456  18.128  0.00  0.00    +0.000 C 
BRANCH  21  22
ATOM     22  C   UNL     1       1.003   2.972  19.438  0.00  0.00    +0.000 C 
BRANCH  22  23
ATOM     23  C   UNL     1       1.470   4.387  19.771  0.00  0.00    +0.000 C 
BRANCH  23  24
ATOM     24  C   UNL     1       2.228   4.419  21.100  0.00  0.00    +0.000 C 
BRANCH  24  25
ATOM     25  C   UNL     1       2.291   3.054  21.744  0.00  0.00    +0.000 C 
ATOM     26  O   UNL     1       1.388   2.531  22.381  0.00  0.00    +0.000 OA
BRANCH  25  27
ATOM     27  O   UNL     1       3.481   2.444  21.542  0.00  0.00    +0.000 OA
ATOM     28  H   UNL     1       4.194   3.053  21.264  0.00  0.00    +0.000 HD
ENDBRANCH  25  27
ENDBRANCH  24  25
ENDBRANCH  23  24
ENDBRANCH  22  23
ENDBRANCH  21  22
ENDBRANCH  20  21
ENDBRANCH  19  20
ENDBRANCH   2  19
TORSDOF 16
ENDMDL
MODEL 2
REMARK VINA RESULT:      -6.8      1.199      1.709
REMARK  Name = 
REMARK  17 active torsions:
REMARK  status: ('A' for Active; 'I' for Inactive)
REMARK    1  A    between atoms: C_1  and  C_2
REMARK    2  A    between atoms: C_2  and  C_3
REMARK    3  A    between atoms: C_3  and  C_4
REMARK    4  A    between atoms: C_4  and  C_5
REMARK    5  A    between atoms: C_5  and  C_6
REMARK    6  A    between atoms: C_6  and  O_7
REMARK    7  A    between atoms: C_6  and  C_8
REMARK    8  A    between atoms: C_8  and  C_9
REMARK    9  A    between atoms: C_9  and  C_10
REMARK   10  A    between atoms: N_11  and  C_12
REMARK   11  A    between atoms: C_12  and  C_13
REMARK   12  A    between atoms: C_13  and  C_14
REMARK   13  A    between atoms: C_14  and  C_15
REMARK   14  A    between atoms: C_15  and  C_16
REMARK   15  A    between atoms: C_16  and  C_17
REMARK   16  A    between atoms: C_17  and  C_18
REMARK   17  A    between atoms: C_18  and  O_20
REMARK                            x       y       z     vdW  Elec       q    Type
REMARK                         _______ _______ _______ _____ _____    ______ ____
ROOT
ATOM      1  C   UNL     1       5.675   4.851  16.270  0.00  0.00    +0.000 C 
ATOM      2  N   UNL     1       4.816   4.552  17.415  0.00  0.00    +0.000 N 
ATOM      3  C   UNL     1       5.227   5.140  18.609  0.00  0.00    +0.000 C 
ATOM      4  O   UNL     1       4.521   5.218  19.610  0.00  0.00    +0.000 OA
ATOM      5  C   UNL     1       6.639   5.654  18.600  0.00  0.00    +0.000 C 
ATOM      6  S   UNL     1       7.235   5.456  16.965  0.00  0.00    +0.000 S 
ATOM      7  O   UNL     1       8.234   4.399  16.979  0.00  0.00    +0.000 OA
ATOM      8  O   UNL     1       7.526   6.762  16.405  0.00  0.00    +0.000 OA
ENDROOT
BRANCH   1   9
ATOM      9  C   UNL     1       5.896   3.712  15.266  0.00  0.00    +0.000 C 
BRANCH   9  10
ATOM     10  C   UNL     1       5.595   4.162  13.827  0.00  0.00    +0.000 C 
BRANCH  10  11
ATOM     11  C   UNL     1       6.486   3.506  12.771  0.00  0.00    +0.000 C 
BRANCH  11  12
ATOM     12  O   UNL     1       7.227   4.508  12.084  0.00  0.00    +0.000 OA
ATOM     13  H   UNL     1       6.609   5.206  11.803  0.00  0.00    +0.000 HD
ENDBRANCH  11  12
BRANCH  11  14
ATOM     14  C   UNL     1       5.619   2.718  11.782  0.00  0.00    +0.000 C 
BRANCH  14  15
ATOM     15  C   UNL     1       4.172   3.205  11.758  0.00  0.00    +0.000 C 
BRANCH  15  16
ATOM     16  C   UNL     1       3.955   4.206  10.624  0.00  0.00    +0.000 C 
BRANCH  16  18
ATOM     17  C   UNL     1       2.359   4.885   8.805  0.00  0.00    +0.000 C 
ATOM     18  C   UNL     1       2.824   3.753   9.705  0.00  0.00    +0.000 C 
ENDBRANCH  16  18
ENDBRANCH  15  16
ENDBRANCH  14  15
ENDBRANCH  11  14
ENDBRANCH  10  11
ENDBRANCH   9  10
ENDBRANCH   1   9
BRANCH   2  19
ATOM     19  C   UNL     1       3.497   3.941  17.299  0.00  0.00    +0.000 C 
BRANCH  19  20
ATOM     20  C   UNL     1       2.309   4.877  17.528  0.00  0.00    +0.000 C 
BRANCH  20  21
ATOM     21  C   UNL     1       1.436   4.516  18.729  0.00  0.00    +0.000 C 
BRANCH  21  22
ATOM     22  C   UNL     1       0.977   3.057  18.623  0.00  0.00    +0.000 C 
BRANCH  22  23
ATOM     23  C   UNL     1       1.400   2.232  19.837  0.00  0.00    +0.000 C 
BRANCH  23  24
ATOM     24  C   UNL     1       2.855   1.774  19.712  0.00  0.00    +0.000 C 
BRANCH  24  25
ATOM     25  C   UNL     1       3.649   2.077  20.960  0.00  0.00    +0.000 C 
ATOM     26  O   UNL     1       4.848   1.880  21.100  0.00  0.00    +0.000 OA
BRANCH  25  27
ATOM     27  O   UNL     1       2.884   2.605  21.942  0.00  0.00    +0.000 OA
ATOM     28  H   UNL     1       2.871   2.071  22.761  0.00  0.00    +0.000 HD
ENDBRANCH  25  27
ENDBRANCH  24  25
ENDBRANCH  23  24
ENDBRANCH  22  23
ENDBRANCH  21  22
ENDBRANCH  20  21
ENDBRANCH  19  20
ENDBRANCH   2  19
TORSDOF 16
ENDMDL
MODEL 3
REMARK VINA RESULT:      -6.7      3.622      6.176
REMARK  Name = 
REMARK  17 active torsions:
REMARK  status: ('A' for Active; 'I' for Inactive)
REMARK    1  A    between atoms: C_1  and  C_2
REMARK    2  A    between atoms: C_2  and  C_3
REMARK    3  A    between atoms: C_3  and  C_4
REMARK    4  A    between atoms: C_4  and  C_5
REMARK    5  A    between atoms: C_5  and  C_6
REMARK    6  A    between atoms: C_6  and  O_7
REMARK    7  A    between atoms: C_6  and  C_8
REMARK    8  A    between atoms: C_8  and  C_9
REMARK    9  A    between atoms: C_9  and  C_10
REMARK   10  A    between atoms: N_11  and  C_12
REMARK   11  A    between atoms: C_12  and  C_13
REMARK   12  A    between atoms: C_13  and  C_14
REMARK   13  A    between atoms: C_14  and  C_15
REMARK   14  A    between atoms: C_15  and  C_16
REMARK   15  A    between atoms: C_16  and  C_17
REMARK   16  A    between atoms: C_17  and  C_18
REMARK   17  A    between atoms: C_18  and  O_20
REMARK                            x       y       z     vdW  Elec       q    Type
REMARK                         _______ _______ _______ _____ _____    ______ ____
ROOT
ATOM      1  C   UNL     1       6.070   5.891  17.144  0.00  0.00    +0.000 C 
ATOM      2  N   UNL     1       4.687   5.430  17.025  0.00  0.00    +0.000 N 
ATOM      3  C   UNL     1       4.559   4.097  16.643  0.00  0.00    +0.000 C 
ATOM      4  O   UNL     1       3.513   3.460  16.727  0.00  0.00    +0.000 OA
ATOM      5  C   UNL     1       5.807   3.485  16.073  0.00  0.00    +0.000 C 
ATOM      6  S   UNL     1       7.076   4.682  16.246  0.00  0.00    +0.000 S 
ATOM      7  O   UNL     1       7.407   5.175  14.918  0.00  0.00    +0.000 OA
ATOM      8  O   UNL     1       8.098   4.163  17.135  0.00  0.00    +0.000 OA
ENDROOT
BRANCH   1   9
ATOM      9  C   UNL     1       6.354   7.328  16.687  0.00  0.00    +0.000 C 
BRANCH   9  10
ATOM     10  C   UNL     1       6.779   8.221  17.863  0.00  0.00    +0.000 C 
BRANCH  10  11
ATOM     11  C   UNL     1       8.293   8.398  17.994  0.00  0.00    +0.000 C 
BRANCH  11  12
ATOM     12  O   UNL     1       8.763   7.675  19.127  0.00  0.00    +0.000 OA
ATOM     13  H   UNL     1       7.993   7.281  19.576  0.00  0.00    +0.000 HD
ENDBRANCH  11  12
BRANCH  11  14
ATOM     14  C   UNL     1       8.628   9.887  18.140  0.00  0.00    +0.000 C 
BRANCH  14  15
ATOM     15  C   UNL     1       9.371  10.193  19.439  0.00  0.00    +0.000 C 
BRANCH  15  16
ATOM     16  C   UNL     1      10.339  11.360  19.249  0.00  0.00    +0.000 C 
BRANCH  16  18
ATOM     17  C   UNL     1      11.631  12.476  17.405  0.00  0.00    +0.000 C 
ATOM     18  C   UNL     1      10.297  11.876  17.814  0.00  0.00    +0.000 C 
ENDBRANCH  16  18
ENDBRANCH  15  16
ENDBRANCH  14  15
ENDBRANCH  11  14
ENDBRANCH  10  11
ENDBRANCH   9  10
ENDBRANCH   1   9
BRANCH   2  19
ATOM     19  C   UNL     1       3.540   6.178  17.524  0.00  0.00    +0.000 C 
BRANCH  19  20
ATOM     20  C   UNL     1       3.457   6.331  19.044  0.00  0.00    +0.000 C 
BRANCH  20  21
ATOM     21  C   UNL     1       3.293   5.018  19.808  0.00  0.00    +0.000 C 
BRANCH  21  22
ATOM     22  C   UNL     1       2.115   5.124  20.784  0.00  0.00    +0.000 C 
BRANCH  22  23
ATOM     23  C   UNL     1       1.009   4.122  20.461  0.00  0.00    +0.000 C 
BRANCH  23  24
ATOM     24  C   UNL     1       1.563   2.698  20.374  0.00  0.00    +0.000 C 
BRANCH  24  25
ATOM     25  C   UNL     1       1.336   2.090  19.010  0.00  0.00    +0.000 C 
ATOM     26  O   UNL     1       0.290   2.143  18.378  0.00  0.00    +0.000 OA
BRANCH  25  27
ATOM     27  O   UNL     1       2.435   1.460  18.537  0.00  0.00    +0.000 OA
ATOM     28  H   UNL     1       2.459   1.389  17.562  0.00  0.00    +0.000 HD
ENDBRANCH  25  27
ENDBRANCH  24  25
ENDBRANCH  23  24
ENDBRANCH  22  23
ENDBRANCH  21  22
ENDBRANCH  20  21
ENDBRANCH  19  20
ENDBRANCH   2  19
TORSDOF 16
ENDMDL
MODEL 4
REMARK VINA RESULT:      -6.7      1.007      1.120
REMARK  Name = 
REMARK  17 active torsions:
REMARK  status: ('A' for Active; 'I' for Inactive)
REMARK    1  A    between atoms: C_1  and  C_2
REMARK    2  A    between atoms: C_2  and  C_3
REMARK    3  A    between atoms: C_3  and  C_4
REMARK    4  A    between atoms: C_4  and  C_5
REMARK    5  A    between atoms: C_5  and  C_6
REMARK    6  A    between atoms: C_6  and  O_7
REMARK    7  A    between atoms: C_6  and  C_8
REMARK    8  A    between atoms: C_8  and  C_9
REMARK    9  A    between atoms: C_9  and  C_10
REMARK   10  A    between atoms: N_11  and  C_12
REMARK   11  A    between atoms: C_12  and  C_13
REMARK   12  A    between atoms: C_13  and  C_14
REMARK   13  A    between atoms: C_14  and  C_15
REMARK   14  A    between atoms: C_15  and  C_16
REMARK   15  A    between atoms: C_16  and  C_17
REMARK   16  A    between atoms: C_17  and  C_18
REMARK   17  A    between atoms: C_18  and  O_20
REMARK                            x       y       z     vdW  Elec       q    Type
REMARK                         _______ _______ _______ _____ _____    ______ ____
ROOT
ATOM      1  C   UNL     1       5.551   6.504  16.992  0.00  0.00    +0.000 C 
ATOM      2  N   UNL     1       4.688   5.682  17.840  0.00  0.00    +0.000 N 
ATOM      3  C   UNL     1       5.264   5.308  19.052  0.00  0.00    +0.000 C 
ATOM      4  O   UNL     1       4.632   4.839  19.993  0.00  0.00    +0.000 OA
ATOM      5  C   UNL     1       6.755   5.488  19.119  0.00  0.00    +0.000 C 
ATOM      6  S   UNL     1       7.231   6.285  17.633  0.00  0.00    +0.000 S 
ATOM      7  O   UNL     1       7.966   5.323  16.827  0.00  0.00    +0.000 OA
ATOM      8  O   UNL     1       7.789   7.585  17.951  0.00  0.00    +0.000 OA
ENDROOT
BRANCH   1   9
ATOM      9  C   UNL     1       5.473   6.244  15.482  0.00  0.00    +0.000 C 
BRANCH   9  10
ATOM     10  C   UNL     1       5.488   4.739  15.168  0.00  0.00    +0.000 C 
BRANCH  10  11
ATOM     11  C   UNL     1       6.729   4.277  14.402  0.00  0.00    +0.000 C 
BRANCH  11  12
ATOM     12  O   UNL     1       7.544   5.401  14.091  0.00  0.00    +0.000 OA
ATOM     13  H   UNL     1       6.966   6.178  13.989  0.00  0.00    +0.000 HD
ENDBRANCH  11  12
BRANCH  11  14
ATOM     14  C   UNL     1       6.303   3.560  13.114  0.00  0.00    +0.000 C 
BRANCH  14  15
ATOM     15  C   UNL     1       4.798   3.642  12.872  0.00  0.00    +0.000 C 
BRANCH  15  16
ATOM     16  C   UNL     1       4.430   3.020  11.526  0.00  0.00    +0.000 C 
BRANCH  16  18
ATOM     17  C   UNL     1       2.775   3.637   9.738  0.00  0.00    +0.000 C 
ATOM     18  C   UNL     1       3.987   4.090  10.533  0.00  0.00    +0.000 C 
ENDBRANCH  16  18
ENDBRANCH  15  16
ENDBRANCH  14  15
ENDBRANCH  11  14
ENDBRANCH  10  11
ENDBRANCH   9  10
ENDBRANCH   1   9
BRANCH   2  19
ATOM     19  C   UNL     1       3.262   5.493  17.601  0.00  0.00    +0.000 C 
BRANCH  19  20
ATOM     20  C   UNL     1       2.795   4.041  17.487  0.00  0.00    +0.000 C 
BRANCH  20  21
ATOM     21  C   UNL     1       1.282   3.849  17.590  0.00  0.00    +0.000 C 
BRANCH  21  22
ATOM     22  C   UNL     1       0.962   2.755  18.616  0.00  0.00    +0.000 C 
BRANCH  22  23
ATOM     23  C   UNL     1       0.381   3.330  19.906  0.00  0.00    +0.000 C 
BRANCH  23  24
ATOM     24  C   UNL     1       1.490   3.825  20.837  0.00  0.00    +0.000 C 
BRANCH  24  25
ATOM     25  C   UNL     1       2.030   2.716  21.708  0.00  0.00    +0.000 C 
ATOM     26  O   UNL     1       1.374   2.061  22.505  0.00  0.00    +0.000 OA
BRANCH  25  27
ATOM     27  O   UNL     1       3.352   2.508  21.516  0.00  0.00    +0.000 OA
ATOM     28  H   UNL     1       3.898   2.683  22.309  0.00  0.00    +0.000 HD
ENDBRANCH  25  27
ENDBRANCH  24  25
ENDBRANCH  23  24
ENDBRANCH  22  23
ENDBRANCH  21  22
ENDBRANCH  20  21
ENDBRANCH  19  20
ENDBRANCH   2  19
TORSDOF 16
ENDMDL
MODEL 5
REMARK VINA RESULT:      -6.6      3.510      4.961
REMARK  Name = 
REMARK  17 active torsions:
REMARK  status: ('A' for Active; 'I' for Inactive)
REMARK    1  A    between atoms: C_1  and  C_2
REMARK    2  A    between atoms: C_2  and  C_3
REMARK    3  A    between atoms: C_3  and  C_4
REMARK    4  A    between atoms: C_4  and  C_5
REMARK    5  A    between atoms: C_5  and  C_6
REMARK    6  A    between atoms: C_6  and  O_7
REMARK    7  A    between atoms: C_6  and  C_8
REMARK    8  A    between atoms: C_8  and  C_9
REMARK    9  A    between atoms: C_9  and  C_10
REMARK   10  A    between atoms: N_11  and  C_12
REMARK   11  A    between atoms: C_12  and  C_13
REMARK   12  A    between atoms: C_13  and  C_14
REMARK   13  A    between atoms: C_14  and  C_15
REMARK   14  A    between atoms: C_15  and  C_16
REMARK   15  A    between atoms: C_16  and  C_17
REMARK   16  A    between atoms: C_17  and  C_18
REMARK   17  A    between atoms: C_18  and  O_20
REMARK                            x       y       z     vdW  Elec       q    Type
REMARK                         _______ _______ _______ _____ _____    ______ ____
ROOT
ATOM      1  C   UNL     1       3.836   3.719  18.468  0.00  0.00    +0.000 C 
ATOM      2  N   UNL     1       2.457   4.178  18.625  0.00  0.00    +0.000 N 
ATOM      3  C   UNL     1       1.762   3.562  19.663  0.00  0.00    +0.000 C 
ATOM      4  O   UNL     1       0.697   3.975  20.111  0.00  0.00    +0.000 OA
ATOM      5  C   UNL     1       2.400   2.307  20.185  0.00  0.00    +0.000 C 
ATOM      6  S   UNL     1       3.941   2.149  19.365  0.00  0.00    +0.000 S 
ATOM      7  O   UNL     1       3.844   1.025  18.447  0.00  0.00    +0.000 OA
ATOM      8  O   UNL     1       5.009   2.234  20.343  0.00  0.00    +0.000 OA
ENDROOT
BRANCH   1   9
ATOM      9  C   UNL     1       4.355   3.594  17.029  0.00  0.00    +0.000 C 
BRANCH   9  10
ATOM     10  C   UNL     1       5.429   4.651  16.724  0.00  0.00    +0.000 C 
BRANCH  10  11
ATOM     11  C   UNL     1       6.587   4.133  15.870  0.00  0.00    +0.000 C 
BRANCH  11  12
ATOM     12  O   UNL     1       7.823   4.438  16.505  0.00  0.00    +0.000 OA
ATOM     13  H   UNL     1       8.316   5.054  15.933  0.00  0.00    +0.000 HD
ENDBRANCH  11  12
BRANCH  11  14
ATOM     14  C   UNL     1       6.533   4.780  14.480  0.00  0.00    +0.000 C 
BRANCH  14  15
ATOM     15  C   UNL     1       5.568   4.061  13.540  0.00  0.00    +0.000 C 
BRANCH  15  16
ATOM     16  C   UNL     1       6.327   3.360  12.414  0.00  0.00    +0.000 C 
BRANCH  16  18
ATOM     17  C   UNL     1       4.100   3.227  11.257  0.00  0.00    +0.000 C 
ATOM     18  C   UNL     1       5.389   2.493  11.581  0.00  0.00    +0.000 C 
ENDBRANCH  16  18
ENDBRANCH  15  16
ENDBRANCH  14  15
ENDBRANCH  11  14
ENDBRANCH  10  11
ENDBRANCH   9  10
ENDBRANCH   1   9
BRANCH   2  19
ATOM     19  C   UNL     1       1.919   5.363  17.966  0.00  0.00    +0.000 C 
BRANCH  19  20
ATOM     20  C   UNL     1       2.574   6.691  18.351  0.00  0.00    +0.000 C 
BRANCH  20  21
ATOM     21  C   UNL     1       2.681   6.936  19.855  0.00  0.00    +0.000 C 
BRANCH  21  22
ATOM     22  C   UNL     1       1.605   7.932  20.302  0.00  0.00    +0.000 C 
BRANCH  22  23
ATOM     23  C   UNL     1       1.365   9.024  19.261  0.00  0.00    +0.000 C 
BRANCH  23  24
ATOM     24  C   UNL     1       0.478  10.137  19.824  0.00  0.00    +0.000 C 
BRANCH  24  25
ATOM     25  C   UNL     1      -0.509  10.641  18.798  0.00  0.00    +0.000 C 
ATOM     26  O   UNL     1      -1.652  10.229  18.656  0.00  0.00    +0.000 OA
BRANCH  25  27
ATOM     27  O   UNL     1       0.006  11.624  18.026  0.00  0.00    +0.000 OA
ATOM     28  H   UNL     1      -0.621  12.353  17.846  0.00  0.00    +0.000 HD
ENDBRANCH  25  27
ENDBRANCH  24  25
ENDBRANCH  23  24
ENDBRANCH  22  23
ENDBRANCH  21  22
ENDBRANCH  20  21
ENDBRANCH  19  20
ENDBRANCH   2  19
TORSDOF 16
ENDMDL
MODEL 6
REMARK VINA RESULT:      -6.6      3.851      7.067
REMARK  Name = 
REMARK  17 active torsions:
REMARK  status: ('A' for Active; 'I' for Inactive)
REMARK    1  A    between atoms: C_1  and  C_2
REMARK    2  A    between atoms: C_2  and  C_3
REMARK    3  A    between atoms: C_3  and  C_4
REMARK    4  A    between atoms: C_4  and  C_5
REMARK    5  A    between atoms: C_5  and  C_6
REMARK    6  A    between atoms: C_6  and  O_7
REMARK    7  A    between atoms: C_6  and  C_8
REMARK    8  A    between atoms: C_8  and  C_9
REMARK    9  A    between atoms: C_9  and  C_10
REMARK   10  A    between atoms: N_11  and  C_12
REMARK   11  A    between atoms: C_12  and  C_13
REMARK   12  A    between atoms: C_13  and  C_14
REMARK   13  A    between atoms: C_14  and  C_15
REMARK   14  A    between atoms: C_15  and  C_16
REMARK   15  A    between atoms: C_16  and  C_17
REMARK   16  A    between atoms: C_17  and  C_18
REMARK   17  A    between atoms: C_18  and  O_20
REMARK                            x       y       z     vdW  Elec       q    Type
REMARK                         _______ _______ _______ _____ _____    ______ ____
ROOT
ATOM      1  C   UNL     1       1.867   7.367  20.438  0.00  0.00    +0.000 C 
ATOM      2  N   UNL     1       1.918   7.741  19.025  0.00  0.00    +0.000 N 
ATOM      3  C   UNL     1       1.627   9.079  18.775  0.00  0.00    +0.000 C 
ATOM      4  O   UNL     1       1.855   9.640  17.708  0.00  0.00    +0.000 OA
ATOM      5  C   UNL     1       0.965   9.799  19.916  0.00  0.00    +0.000 C 
ATOM      6  S   UNL     1       0.937   8.683  21.266  0.00  0.00    +0.000 S 
ATOM      7  O   UNL     1      -0.443   8.278  21.482  0.00  0.00    +0.000 OA
ATOM      8  O   UNL     1       1.742   9.224  22.345  0.00  0.00    +0.000 OA
ENDROOT
BRANCH   1   9
ATOM      9  C   UNL     1       1.303   5.976  20.757  0.00  0.00    +0.000 C 
BRANCH   9  10
ATOM     10  C   UNL     1       2.421   4.983  21.114  0.00  0.00    +0.000 C 
BRANCH  10  11
ATOM     11  C   UNL     1       1.931   3.553  21.349  0.00  0.00    +0.000 C 
BRANCH  11  12
ATOM     12  O   UNL     1       2.989   2.637  21.088  0.00  0.00    +0.000 OA
ATOM     13  H   UNL     1       3.035   2.491  20.126  0.00  0.00    +0.000 HD
ENDBRANCH  11  12
BRANCH  11  14
ATOM     14  C   UNL     1       0.738   3.258  20.430  0.00  0.00    +0.000 C 
BRANCH  14  15
ATOM     15  C   UNL     1       1.109   2.338  19.270  0.00  0.00    +0.000 C 
BRANCH  15  16
ATOM     16  C   UNL     1       1.551   3.149  18.053  0.00  0.00    +0.000 C 
BRANCH  16  18
ATOM     17  C   UNL     1       4.041   3.119  17.714  0.00  0.00    +0.000 C 
ATOM     18  C   UNL     1       2.718   2.473  17.341  0.00  0.00    +0.000 C 
ENDBRANCH  16  18
ENDBRANCH  15  16
ENDBRANCH  14  15
ENDBRANCH  11  14
ENDBRANCH  10  11
ENDBRANCH   9  10
ENDBRANCH   1   9
BRANCH   2  19
ATOM     19  C   UNL     1       2.492   6.894  17.985  0.00  0.00    +0.000 C 
BRANCH  19  20
ATOM     20  C   UNL     1       3.960   6.509  18.178  0.00  0.00    +0.000 C 
BRANCH  20  21
ATOM     21  C   UNL     1       4.813   6.600  16.913  0.00  0.00    +0.000 C 
BRANCH  21  22
ATOM     22  C   UNL     1       5.966   7.589  17.129  0.00  0.00    +0.000 C 
BRANCH  22  23
ATOM     23  C   UNL     1       7.331   6.910  17.033  0.00  0.00    +0.000 C 
BRANCH  23  24
ATOM     24  C   UNL     1       7.925   6.666  18.422  0.00  0.00    +0.000 C 
BRANCH  24  25
ATOM     25  C   UNL     1       7.478   5.345  19.000  0.00  0.00    +0.000 C 
ATOM     26  O   UNL     1       6.899   5.200  20.067  0.00  0.00    +0.000 OA
BRANCH  25  27
ATOM     27  O   UNL     1       7.789   4.301  18.199  0.00  0.00    +0.000 OA
ATOM     28  H   UNL     1       7.792   3.438  18.660  0.00  0.00    +0.000 HD
ENDBRANCH  25  27
ENDBRANCH  24  25
ENDBRANCH  23  24
ENDBRANCH  22  23
ENDBRANCH  21  22
ENDBRANCH  20  21
ENDBRANCH  19  20
ENDBRANCH   2  19
TORSDOF 16
ENDMDL
MODEL 7
REMARK VINA RESULT:      -6.6      2.979      5.607
REMARK  Name = 
REMARK  17 active torsions:
REMARK  status: ('A' for Active; 'I' for Inactive)
REMARK    1  A    between atoms: C_1  and  C_2
REMARK    2  A    between atoms: C_2  and  C_3
REMARK    3  A    between atoms: C_3  and  C_4
REMARK    4  A    between atoms: C_4  and  C_5
REMARK    5  A    between atoms: C_5  and  C_6
REMARK    6  A    between atoms: C_6  and  O_7
REMARK    7  A    between atoms: C_6  and  C_8
REMARK    8  A    between atoms: C_8  and  C_9
REMARK    9  A    between atoms: C_9  and  C_10
REMARK   10  A    between atoms: N_11  and  C_12
REMARK   11  A    between atoms: C_12  and  C_13
REMARK   12  A    between atoms: C_13  and  C_14
REMARK   13  A    between atoms: C_14  and  C_15
REMARK   14  A    between atoms: C_15  and  C_16
REMARK   15  A    between atoms: C_16  and  C_17
REMARK   16  A    between atoms: C_17  and  C_18
REMARK   17  A    between atoms: C_18  and  O_20
REMARK                            x       y       z     vdW  Elec       q    Type
REMARK                         _______ _______ _______ _____ _____    ______ ____
ROOT
ATOM      1  C   UNL     1       5.450   4.655  18.403  0.00  0.00    +0.000 C 
ATOM      2  N   UNL     1       5.051   4.130  17.097  0.00  0.00    +0.000 N 
ATOM      3  C   UNL     1       6.087   4.055  16.169  0.00  0.00    +0.000 C 
ATOM      4  O   UNL     1       6.018   3.424  15.119  0.00  0.00    +0.000 OA
ATOM      5  C   UNL     1       7.310   4.849  16.530  0.00  0.00    +0.000 C 
ATOM      6  S   UNL     1       7.037   5.488  18.139  0.00  0.00    +0.000 S 
ATOM      7  O   UNL     1       6.849   6.925  18.022  0.00  0.00    +0.000 OA
ATOM      8  O   UNL     1       8.022   4.927  19.045  0.00  0.00    +0.000 OA
ENDROOT
BRANCH   1   9
ATOM      9  C   UNL     1       4.437   5.561  19.114  0.00  0.00    +0.000 C 
BRANCH   9  10
ATOM     10  C   UNL     1       3.656   6.428  18.112  0.00  0.00    +0.000 C 
BRANCH  10  11
ATOM     11  C   UNL     1       2.909   7.599  18.754  0.00  0.00    +0.000 C 
BRANCH  11  12
ATOM     12  O   UNL     1       2.104   7.121  19.826  0.00  0.00    +0.000 OA
ATOM     13  H   UNL     1       2.078   7.808  20.516  0.00  0.00    +0.000 HD
ENDBRANCH  11  12
BRANCH  11  14
ATOM     14  C   UNL     1       2.033   8.290  17.702  0.00  0.00    +0.000 C 
BRANCH  14  15
ATOM     15  C   UNL     1       1.682   9.725  18.087  0.00  0.00    +0.000 C 
BRANCH  15  16
ATOM     16  C   UNL     1       0.167   9.917  18.145  0.00  0.00    +0.000 C 
BRANCH  16  18
ATOM     17  C   UNL     1       0.791  10.527  20.502  0.00  0.00    +0.000 C 
ATOM     18  C   UNL     1      -0.315  10.029  19.588  0.00  0.00    +0.000 C 
ENDBRANCH  16  18
ENDBRANCH  15  16
ENDBRANCH  14  15
ENDBRANCH  11  14
ENDBRANCH  10  11
ENDBRANCH   9  10
ENDBRANCH   1   9
BRANCH   2  19
ATOM     19  C   UNL     1       3.773   3.474  16.846  0.00  0.00    +0.000 C 
BRANCH  19  20
ATOM     20  C   UNL     1       3.469   2.256  17.721  0.00  0.00    +0.000 C 
BRANCH  20  21
ATOM     21  C   UNL     1       2.007   2.128  18.148  0.00  0.00    +0.000 C 
BRANCH  21  22
ATOM     22  C   UNL     1       1.421   3.516  18.430  0.00  0.00    +0.000 C 
BRANCH  22  23
ATOM     23  C   UNL     1       0.665   3.562  19.756  0.00  0.00    +0.000 C 
BRANCH  23  24
ATOM     24  C   UNL     1       1.579   4.016  20.896  0.00  0.00    +0.000 C 
BRANCH  24  25
ATOM     25  C   UNL     1       2.160   2.843  21.651  0.00  0.00    +0.000 C 
ATOM     26  O   UNL     1       3.310   2.439  21.552  0.00  0.00    +0.000 OA
BRANCH  25  27
ATOM     27  O   UNL     1       1.258   2.263  22.474  0.00  0.00    +0.000 OA
ATOM     28  H   UNL     1       1.365   2.513  23.414  0.00  0.00    +0.000 HD
ENDBRANCH  25  27
ENDBRANCH  24  25
ENDBRANCH  23  24
ENDBRANCH  22  23
ENDBRANCH  21  22
ENDBRANCH  20  21
ENDBRANCH  19  20
ENDBRANCH   2  19
TORSDOF 16
ENDMDL
MODEL 8
REMARK VINA RESULT:      -6.6      1.109      1.311
REMARK  Name = 
REMARK  17 active torsions:
REMARK  status: ('A' for Active; 'I' for Inactive)
REMARK    1  A    between atoms: C_1  and  C_2
REMARK    2  A    between atoms: C_2  and  C_3
REMARK    3  A    between atoms: C_3  and  C_4
REMARK    4  A    between atoms: C_4  and  C_5
REMARK    5  A    between atoms: C_5  and  C_6
REMARK    6  A    between atoms: C_6  and  O_7
REMARK    7  A    between atoms: C_6  and  C_8
REMARK    8  A    between atoms: C_8  and  C_9
REMARK    9  A    between atoms: C_9  and  C_10
REMARK   10  A    between atoms: N_11  and  C_12
REMARK   11  A    between atoms: C_12  and  C_13
REMARK   12  A    between atoms: C_13  and  C_14
REMARK   13  A    between atoms: C_14  and  C_15
REMARK   14  A    between atoms: C_15  and  C_16
REMARK   15  A    between atoms: C_16  and  C_17
REMARK   16  A    between atoms: C_17  and  C_18
REMARK   17  A    between atoms: C_18  and  O_20
REMARK                            x       y       z     vdW  Elec       q    Type
REMARK                         _______ _______ _______ _____ _____    ______ ____
ROOT
ATOM      1  C   UNL     1       5.727   5.098  16.589  0.00  0.00    +0.000 C 
ATOM      2  N   UNL     1       4.817   4.887  17.714  0.00  0.00    +0.000 N 
ATOM      3  C   UNL     1       5.302   5.341  18.938  0.00  0.00    +0.000 C 
ATOM      4  O   UNL     1       4.605   5.483  19.938  0.00  0.00    +0.000 OA
ATOM      5  C   UNL     1       6.778   5.619  18.962  0.00  0.00    +0.000 C 
ATOM      6  S   UNL     1       7.355   5.407  17.321  0.00  0.00    +0.000 S 
ATOM      7  O   UNL     1       8.171   4.203  17.287  0.00  0.00    +0.000 OA
ATOM      8  O   UNL     1       7.861   6.675  16.830  0.00  0.00    +0.000 OA
ENDROOT
BRANCH   1   9
ATOM      9  C   UNL     1       5.775   3.988  15.530  0.00  0.00    +0.000 C 
BRANCH   9  10
ATOM     10  C   UNL     1       5.771   4.568  14.106  0.00  0.00    +0.000 C 
BRANCH  10  11
ATOM     11  C   UNL     1       7.085   4.364  13.349  0.00  0.00    +0.000 C 
BRANCH  11  12
ATOM     12  O   UNL     1       7.776   5.605  13.250  0.00  0.00    +0.000 OA
ATOM     13  H   UNL     1       7.667   5.942  12.342  0.00  0.00    +0.000 HD
ENDBRANCH  11  12
BRANCH  11  14
ATOM     14  C   UNL     1       6.793   3.808  11.950  0.00  0.00    +0.000 C 
BRANCH  14  15
ATOM     15  C   UNL     1       6.213   2.396  11.993  0.00  0.00    +0.000 C 
BRANCH  15  16
ATOM     16  C   UNL     1       5.001   2.279  11.071  0.00  0.00    +0.000 C 
BRANCH  16  18
ATOM     17  C   UNL     1       3.261   3.820  10.115  0.00  0.00    +0.000 C 
ATOM     18  C   UNL     1       3.975   3.366  11.376  0.00  0.00    +0.000 C 
ENDBRANCH  16  18
ENDBRANCH  15  16
ENDBRANCH  14  15
ENDBRANCH  11  14
ENDBRANCH  10  11
ENDBRANCH   9  10
ENDBRANCH   1   9
BRANCH   2  19
ATOM     19  C   UNL     1       3.418   4.504  17.560  0.00  0.00    +0.000 C 
BRANCH  19  20
ATOM     20  C   UNL     1       3.138   2.999  17.557  0.00  0.00    +0.000 C 
BRANCH  20  21
ATOM     21  C   UNL     1       1.667   2.626  17.735  0.00  0.00    +0.000 C 
BRANCH  21  22
ATOM     22  C   UNL     1       1.469   1.897  19.069  0.00  0.00    +0.000 C 
BRANCH  22  23
ATOM     23  C   UNL     1       0.522   2.650  20.001  0.00  0.00    +0.000 C 
BRANCH  23  24
ATOM     24  C   UNL     1       1.022   2.609  21.447  0.00  0.00    +0.000 C 
BRANCH  24  25
ATOM     25  C   UNL     1       2.353   3.306  21.601  0.00  0.00    +0.000 C 
ATOM     26  O   UNL     1       2.518   4.518  21.624  0.00  0.00    +0.000 OA
BRANCH  25  27
ATOM     27  O   UNL     1       3.381   2.435  21.715  0.00  0.00    +0.000 OA
ATOM     28  H   UNL     1       4.138   2.784  22.226  0.00  0.00    +0.000 HD
ENDBRANCH  25  27
ENDBRANCH  24  25
ENDBRANCH  23  24
ENDBRANCH  22  23
ENDBRANCH  21  22
ENDBRANCH  20  21
ENDBRANCH  19  20
ENDBRANCH   2  19
TORSDOF 16
ENDMDL
MODEL 9
REMARK VINA RESULT:      -6.6      4.165      5.447
REMARK  Name = 
REMARK  17 active torsions:
REMARK  status: ('A' for Active; 'I' for Inactive)
REMARK    1  A    between atoms: C_1  and  C_2
REMARK    2  A    between atoms: C_2  and  C_3
REMARK    3  A    between atoms: C_3  and  C_4
REMARK    4  A    between atoms: C_4  and  C_5
REMARK    5  A    between atoms: C_5  and  C_6
REMARK    6  A    between atoms: C_6  and  O_7
REMARK    7  A    between atoms: C_6  and  C_8
REMARK    8  A    between atoms: C_8  and  C_9
REMARK    9  A    between atoms: C_9  and  C_10
REMARK   10  A    between atoms: N_11  and  C_12
REMARK   11  A    between atoms: C_12  and  C_13
REMARK   12  A    between atoms: C_13  and  C_14
REMARK   13  A    between atoms: C_14  and  C_15
REMARK   14  A    between atoms: C_15  and  C_16
REMARK   15  A    between atoms: C_16  and  C_17
REMARK   16  A    between atoms: C_17  and  C_18
REMARK   17  A    between atoms: C_18  and  O_20
REMARK                            x       y       z     vdW  Elec       q    Type
REMARK                         _______ _______ _______ _____ _____    ______ ____
ROOT
ATOM      1  C   UNL     1       4.261   4.704  18.566  0.00  0.00    +0.000 C 
ATOM      2  N   UNL     1       3.257   5.621  19.103  0.00  0.00    +0.000 N 
ATOM      3  C   UNL     1       2.510   5.099  20.157  0.00  0.00    +0.000 C 
ATOM      4  O   UNL     1       1.804   5.779  20.895  0.00  0.00    +0.000 OA
ATOM      5  C   UNL     1       2.600   3.607  20.310  0.00  0.00    +0.000 C 
ATOM      6  S   UNL     1       3.790   3.055  19.148  0.00  0.00    +0.000 S 
ATOM      7  O   UNL     1       3.089   2.323  18.105  0.00  0.00    +0.000 OA
ATOM      8  O   UNL     1       4.909   2.467  19.860  0.00  0.00    +0.000 OA
ENDROOT
BRANCH   1   9
ATOM      9  C   UNL     1       4.475   4.738  17.047  0.00  0.00    +0.000 C 
BRANCH   9  10
ATOM     10  C   UNL     1       5.712   5.569  16.670  0.00  0.00    +0.000 C 
BRANCH  10  11
ATOM     11  C   UNL     1       6.802   4.771  15.952  0.00  0.00    +0.000 C 
BRANCH  11  12
ATOM     12  O   UNL     1       7.597   5.651  15.165  0.00  0.00    +0.000 OA
ATOM     13  H   UNL     1       8.486   5.261  15.077  0.00  0.00    +0.000 HD
ENDBRANCH  11  12
BRANCH  11  14
ATOM     14  C   UNL     1       6.157   3.701  15.062  0.00  0.00    +0.000 C 
BRANCH  14  15
ATOM     15  C   UNL     1       5.701   4.260  13.716  0.00  0.00    +0.000 C 
BRANCH  15  16
ATOM     16  C   UNL     1       6.441   3.579  12.566  0.00  0.00    +0.000 C 
BRANCH  16  18
ATOM     17  C   UNL     1       4.205   3.315  11.450  0.00  0.00    +0.000 C 
ATOM     18  C   UNL     1       5.516   2.636  11.804  0.00  0.00    +0.000 C 
ENDBRANCH  16  18
ENDBRANCH  15  16
ENDBRANCH  14  15
ENDBRANCH  11  14
ENDBRANCH  10  11
ENDBRANCH   9  10
ENDBRANCH   1   9
BRANCH   2  19
ATOM     19  C   UNL     1       3.207   7.043  18.785  0.00  0.00    +0.000 C 
BRANCH  19  20
ATOM     20  C   UNL     1       2.124   7.463  17.789  0.00  0.00    +0.000 C 
BRANCH  20  21
ATOM     21  C   UNL     1       1.651   8.909  17.936  0.00  0.00    +0.000 C 
BRANCH  21  22
ATOM     22  C   UNL     1       1.245   9.183  19.389  0.00  0.00    +0.000 C 
BRANCH  22  23
ATOM     23  C   UNL     1      -0.022  10.031  19.482  0.00  0.00    +0.000 C 
BRANCH  23  24
ATOM     24  C   UNL     1       0.120  11.323  18.675  0.00  0.00    +0.000 C 
BRANCH  24  25
ATOM     25  C   UNL     1      -1.219  11.969  18.409  0.00  0.00    +0.000 C 
ATOM     26  O   UNL     1      -2.200  11.888  19.136  0.00  0.00    +0.000 OA
BRANCH  25  27
ATOM     27  O   UNL     1      -1.233  12.671  17.253  0.00  0.00    +0.000 OA
ATOM     28  H   UNL     1      -1.817  13.455  17.275  0.00  0.00    +0.000 HD
ENDBRANCH  25  27
ENDBRANCH  24  25
ENDBRANCH  23  24
ENDBRANCH  22  23
ENDBRANCH  21  22
ENDBRANCH  20  21
ENDBRANCH  19  20
ENDBRANCH   2  19
TORSDOF 16
ENDMDL
