MODEL 1
REMARK VINA RESULT:      -8.2      0.000      0.000
REMARK  Name = 
REMARK  5 active torsions:
REMARK  status: ('A' for Active; 'I' for Inactive)
REMARK    1  A    between atoms: C_1  and  C_2
REMARK    2  A    between atoms: C_2  and  C_4
REMARK    3  A    between atoms: C_5  and  C_6
REMARK    4  A    between atoms: N_8  and  C_9
REMARK    5  A    between atoms: C_12  and  C_13
REMARK                            x       y       z     vdW  Elec       q    Type
REMARK                         _______ _______ _______ _____ _____    ______ ____
ROOT
ATOM      1  C   UNL     1       3.328   4.019  17.489  0.00  0.00    +0.000 A 
ATOM      2  C   UNL     1       2.413   4.977  17.843  0.00  0.00    +0.000 A 
ATOM      3  N   UNL     1       3.059   6.196  17.929  0.00  0.00    +0.000 N 
ATOM      4  C   UNL     1       4.370   6.027  17.460  0.00  0.00    +0.000 A 
ATOM      5  C   UNL     1       5.445   6.932  17.344  0.00  0.00    +0.000 A 
ATOM      6  C   UNL     1       6.690   6.453  16.920  0.00  0.00    +0.000 A 
ATOM      7  C   UNL     1       6.868   5.113  16.602  0.00  0.00    +0.000 A 
ATOM      8  C   UNL     1       5.806   4.213  16.724  0.00  0.00    +0.000 A 
ATOM      9  C   UNL     1       4.548   4.666  17.178  0.00  0.00    +0.000 A 
ENDROOT
BRANCH   3  10
ATOM     10  C   UNL     1       2.476   7.432  18.367  0.00  0.00    +0.000 A 
ATOM     11  N   UNL     1       2.512   8.462  17.467  0.00  0.00    +0.000 NA
ATOM     12  C   UNL     1       1.936   9.638  17.801  0.00  0.00    +0.000 A 
ATOM     13  C   UNL     1       1.316   9.869  19.014  0.00  0.00    +0.000 A 
ATOM     14  C   UNL     1       1.305   8.819  19.937  0.00  0.00    +0.000 A 
ATOM     15  C   UNL     1       1.889   7.584  19.627  0.00  0.00    +0.000 A 
ATOM     16 CL   UNL     1       1.939   6.444  20.925  0.00  0.00    +0.000 Cl
BRANCH  13  17
ATOM     17  C   UNL     1       0.703  11.194  19.331  0.00  0.00    +0.000 C 
ATOM     18  F   UNL     1       1.048  11.678  20.556  0.00  0.00    +0.000 F 
ATOM     19  F   UNL     1       1.059  12.155  18.437  0.00  0.00    +0.000 F 
ATOM     20  F   UNL     1      -0.658  11.154  19.314  0.00  0.00    +0.000 F 
ENDBRANCH  13  17
ENDBRANCH   3  10
BRANCH   1  22
ATOM     21  C   UNL     1       3.256   1.811  18.559  0.00  0.00    +0.000 C 
ATOM     22  C   UNL     1       3.061   2.625  17.507  0.00  0.00    +0.000 C 
BRANCH  21  24
ATOM     23  C   UNL     1       2.725   2.749  20.868  0.00  0.00    +0.000 C 
ATOM     24  C   UNL     1       3.762   2.241  19.902  0.00  0.00    +0.000 C 
ATOM     25  O   UNL     1       4.950   2.236  20.203  0.00  0.00    +0.000 OA
ENDBRANCH  21  24
ENDBRANCH   1  22
TORSDOF 4
ENDMDL
MODEL 2
REMARK VINA RESULT:      -8.1      1.343      3.268
REMARK  Name = 
REMARK  5 active torsions:
REMARK  status: ('A' for Active; 'I' for Inactive)
REMARK    1  A    between atoms: C_1  and  C_2
REMARK    2  A    between atoms: C_2  and  C_4
REMARK    3  A    between atoms: C_5  and  C_6
REMARK    4  A    between atoms: N_8  and  C_9
REMARK    5  A    between atoms: C_12  and  C_13
REMARK                            x       y       z     vdW  Elec       q    Type
REMARK                         _______ _______ _______ _____ _____    ______ ____
ROOT
ATOM      1  C   UNL     1       4.676   5.513  16.828  0.00  0.00    +0.000 A 
ATOM      2  C   UNL     1       4.334   6.760  17.285  0.00  0.00    +0.000 A 
ATOM      3  N   UNL     1       3.090   6.687  17.882  0.00  0.00    +0.000 N 
ATOM      4  C   UNL     1       2.717   5.337  17.946  0.00  0.00    +0.000 A 
ATOM      5  C   UNL     1       1.555   4.709  18.441  0.00  0.00    +0.000 A 
ATOM      6  C   UNL     1       1.415   3.326  18.287  0.00  0.00    +0.000 A 
ATOM      7  C   UNL     1       2.407   2.572  17.673  0.00  0.00    +0.000 A 
ATOM      8  C   UNL     1       3.555   3.192  17.175  0.00  0.00    +0.000 A 
ATOM      9  C   UNL     1       3.707   4.591  17.291  0.00  0.00    +0.000 A 
ENDROOT
BRANCH   3  10
ATOM     10  C   UNL     1       2.334   7.792  18.398  0.00  0.00    +0.000 A 
ATOM     11  N   UNL     1       2.114   8.825  17.528  0.00  0.00    +0.000 NA
ATOM     12  C   UNL     1       1.367   9.873  17.938  0.00  0.00    +0.000 A 
ATOM     13  C   UNL     1       0.817   9.972  19.201  0.00  0.00    +0.000 A 
ATOM     14  C   UNL     1       1.067   8.925  20.092  0.00  0.00    +0.000 A 
ATOM     15  C   UNL     1       1.834   7.819  19.704  0.00  0.00    +0.000 A 
ATOM     16 CL   UNL     1       2.191   6.689  20.961  0.00  0.00    +0.000 Cl
BRANCH  13  17
ATOM     17  C   UNL     1       0.006  11.162  19.603  0.00  0.00    +0.000 C 
ATOM     18  F   UNL     1      -1.291  10.867  19.895  0.00  0.00    +0.000 F 
ATOM     19  F   UNL     1       0.506  11.779  20.706  0.00  0.00    +0.000 F 
ATOM     20  F   UNL     1      -0.037  12.113  18.630  0.00  0.00    +0.000 F 
ENDBRANCH  13  17
ENDBRANCH   3  10
BRANCH   1  22
ATOM     21  C   UNL     1       7.071   5.202  16.391  0.00  0.00    +0.000 C 
ATOM     22  C   UNL     1       5.790   5.257  15.987  0.00  0.00    +0.000 C 
BRANCH  21  24
ATOM     23  C   UNL     1       7.825   6.786  18.240  0.00  0.00    +0.000 C 
ATOM     24  C   UNL     1       7.539   5.373  17.804  0.00  0.00    +0.000 C 
ATOM     25  O   UNL     1       7.735   4.431  18.564  0.00  0.00    +0.000 OA
ENDBRANCH  21  24
ENDBRANCH   1  22
TORSDOF 4
ENDMDL
MODEL 3
REMARK VINA RESULT:      -8.1      2.101      3.856
REMARK  Name = 
REMARK  5 active torsions:
REMARK  status: ('A' for Active; 'I' for Inactive)
REMARK    1  A    between atoms: C_1  and  C_2
REMARK    2  A    between atoms: C_2  and  C_4
REMARK    3  A    between atoms: C_5  and  C_6
REMARK    4  A    between atoms: N_8  and  C_9
REMARK    5  A    between atoms: C_12  and  C_13
REMARK                            x       y       z     vdW  Elec       q    Type
REMARK                         _______ _______ _______ _____ _____    ______ ____
ROOT
ATOM      1  C   UNL     1       4.481   5.737  17.086  0.00  0.00    +0.000 A 
ATOM      2  C   UNL     1       4.072   6.782  17.874  0.00  0.00    +0.000 A 
ATOM      3  N   UNL     1       2.933   6.401  18.558  0.00  0.00    +0.000 N 
ATOM      4  C   UNL     1       2.718   5.036  18.318  0.00  0.00    +0.000 A 
ATOM      5  C   UNL     1       1.705   4.158  18.756  0.00  0.00    +0.000 A 
ATOM      6  C   UNL     1       1.694   2.845  18.273  0.00  0.00    +0.000 A 
ATOM      7  C   UNL     1       2.669   2.400  17.391  0.00  0.00    +0.000 A 
ATOM      8  C   UNL     1       3.669   3.270  16.950  0.00  0.00    +0.000 A 
ATOM      9  C   UNL     1       3.685   4.609  17.399  0.00  0.00    +0.000 A 
ENDROOT
BRANCH   3  10
ATOM     10  C   UNL     1       2.140   7.239  19.411  0.00  0.00    +0.000 A 
ATOM     11  N   UNL     1       1.796   6.705  20.622  0.00  0.00    +0.000 NA
ATOM     12  C   UNL     1       1.091   7.463  21.491  0.00  0.00    +0.000 A 
ATOM     13  C   UNL     1       0.682   8.754  21.222  0.00  0.00    +0.000 A 
ATOM     14  C   UNL     1       1.017   9.285  19.973  0.00  0.00    +0.000 A 
ATOM     15  C   UNL     1       1.749   8.532  19.046  0.00  0.00    +0.000 A 
ATOM     16 CL   UNL     1       1.944   9.260  17.491  0.00  0.00    +0.000 Cl
BRANCH  13  17
ATOM     17  C   UNL     1      -0.104   9.543  22.220  0.00  0.00    +0.000 C 
ATOM     18  F   UNL     1       0.638   9.991  23.269  0.00  0.00    +0.000 F 
ATOM     19  F   UNL     1      -0.677  10.646  21.669  0.00  0.00    +0.000 F 
ATOM     20  F   UNL     1      -1.124   8.823  22.762  0.00  0.00    +0.000 F 
ENDBRANCH  13  17
ENDBRANCH   3  10
BRANCH   1  22
ATOM     21  C   UNL     1       6.815   5.740  16.327  0.00  0.00    +0.000 C 
ATOM     22  C   UNL     1       5.494   5.841  16.097  0.00  0.00    +0.000 C 
BRANCH  21  24
ATOM     23  C   UNL     1       7.806   6.682  18.478  0.00  0.00    +0.000 C 
ATOM     24  C   UNL     1       7.442   5.471  17.661  0.00  0.00    +0.000 C 
ATOM     25  O   UNL     1       7.702   4.342  18.064  0.00  0.00    +0.000 OA
ENDBRANCH  21  24
ENDBRANCH   1  22
TORSDOF 4
ENDMDL
MODEL 4
REMARK VINA RESULT:      -8.0      2.217      3.880
REMARK  Name = 
REMARK  5 active torsions:
REMARK  status: ('A' for Active; 'I' for Inactive)
REMARK    1  A    between atoms: C_1  and  C_2
REMARK    2  A    between atoms: C_2  and  C_4
REMARK    3  A    between atoms: C_5  and  C_6
REMARK    4  A    between atoms: N_8  and  C_9
REMARK    5  A    between atoms: C_12  and  C_13
REMARK                            x       y       z     vdW  Elec       q    Type
REMARK                         _______ _______ _______ _____ _____    ______ ____
ROOT
ATOM      1  C   UNL     1       4.957   4.708  18.634  0.00  0.00    +0.000 A 
ATOM      2  C   UNL     1       4.536   5.895  19.175  0.00  0.00    +0.000 A 
ATOM      3  N   UNL     1       3.156   5.879  19.258  0.00  0.00    +0.000 N 
ATOM      4  C   UNL     1       2.715   4.593  18.915  0.00  0.00    +0.000 A 
ATOM      5  C   UNL     1       1.420   4.041  18.824  0.00  0.00    +0.000 A 
ATOM      6  C   UNL     1       1.275   2.730  18.359  0.00  0.00    +0.000 A 
ATOM      7  C   UNL     1       2.383   1.971  18.006  0.00  0.00    +0.000 A 
ATOM      8  C   UNL     1       3.665   2.517  18.087  0.00  0.00    +0.000 A 
ATOM      9  C   UNL     1       3.837   3.849  18.525  0.00  0.00    +0.000 A 
ENDROOT
BRANCH   3  10
ATOM     10  C   UNL     1       2.322   6.969  19.677  0.00  0.00    +0.000 A 
ATOM     11  N   UNL     1       1.721   6.827  20.898  0.00  0.00    +0.000 NA
ATOM     12  C   UNL     1       0.963   7.840  21.372  0.00  0.00    +0.000 A 
ATOM     13  C   UNL     1       0.745   9.018  20.684  0.00  0.00    +0.000 A 
ATOM     14  C   UNL     1       1.343   9.145  19.427  0.00  0.00    +0.000 A 
ATOM     15  C   UNL     1       2.139   8.119  18.902  0.00  0.00    +0.000 A 
ATOM     16 CL   UNL     1       2.672   8.354  17.276  0.00  0.00    +0.000 Cl
BRANCH  13  17
ATOM     17  C   UNL     1      -0.112  10.102  21.255  0.00  0.00    +0.000 C 
ATOM     18  F   UNL     1      -0.793   9.730  22.373  0.00  0.00    +0.000 F 
ATOM     19  F   UNL     1       0.611  11.200  21.605  0.00  0.00    +0.000 F 
ATOM     20  F   UNL     1      -1.052  10.540  20.372  0.00  0.00    +0.000 F 
ENDBRANCH  13  17
ENDBRANCH   3  10
BRANCH   1  22
ATOM     21  C   UNL     1       6.778   4.705  16.988  0.00  0.00    +0.000 C 
ATOM     22  C   UNL     1       6.290   4.458  18.216  0.00  0.00    +0.000 C 
BRANCH  21  24
ATOM     23  C   UNL     1       5.502   4.357  14.810  0.00  0.00    +0.000 C 
ATOM     24  C   UNL     1       6.005   5.313  15.858  0.00  0.00    +0.000 C 
ATOM     25  O   UNL     1       5.825   6.520  15.743  0.00  0.00    +0.000 OA
ENDBRANCH  21  24
ENDBRANCH   1  22
TORSDOF 4
ENDMDL
MODEL 5
REMARK VINA RESULT:      -8.0      1.746      3.510
REMARK  Name = 
REMARK  5 active torsions:
REMARK  status: ('A' for Active; 'I' for Inactive)
REMARK    1  A    between atoms: C_1  and  C_2
REMARK    2  A    between atoms: C_2  and  C_4
REMARK    3  A    between atoms: C_5  and  C_6
REMARK    4  A    between atoms: N_8  and  C_9
REMARK    5  A    between atoms: C_12  and  C_13
REMARK                            x       y       z     vdW  Elec       q    Type
REMARK                         _______ _______ _______ _____ _____    ______ ____
ROOT
ATOM      1  C   UNL     1       5.183   4.961  17.867  0.00  0.00    +0.000 A 
ATOM      2  C   UNL     1       4.810   6.234  18.213  0.00  0.00    +0.000 A 
ATOM      3  N   UNL     1       3.432   6.283  18.305  0.00  0.00    +0.000 N 
ATOM      4  C   UNL     1       2.941   4.976  18.175  0.00  0.00    +0.000 A 
ATOM      5  C   UNL     1       1.627   4.465  18.181  0.00  0.00    +0.000 A 
ATOM      6  C   UNL     1       1.430   3.102  17.934  0.00  0.00    +0.000 A 
ATOM      7  C   UNL     1       2.506   2.256  17.701  0.00  0.00    +0.000 A 
ATOM      8  C   UNL     1       3.808   2.761  17.687  0.00  0.00    +0.000 A 
ATOM      9  C   UNL     1       4.032   4.138  17.905  0.00  0.00    +0.000 A 
ENDROOT
BRANCH   3  10
ATOM     10  C   UNL     1       2.642   7.456  18.547  0.00  0.00    +0.000 A 
ATOM     11  N   UNL     1       2.624   8.384  17.542  0.00  0.00    +0.000 NA
ATOM     12  C   UNL     1       1.860   9.488  17.688  0.00  0.00    +0.000 A 
ATOM     13  C   UNL     1       1.096   9.746  18.810  0.00  0.00    +0.000 A 
ATOM     14  C   UNL     1       1.139   8.805  19.843  0.00  0.00    +0.000 A 
ATOM     15  C   UNL     1       1.917   7.646  19.728  0.00  0.00    +0.000 A 
ATOM     16 CL   UNL     1       1.995   6.664  21.148  0.00  0.00    +0.000 Cl
BRANCH  13  17
ATOM     17  C   UNL     1       0.276  10.991  18.921  0.00  0.00    +0.000 C 
ATOM     18  F   UNL     1       0.924  12.112  18.502  0.00  0.00    +0.000 F 
ATOM     19  F   UNL     1      -0.865  10.923  18.184  0.00  0.00    +0.000 F 
ATOM     20  F   UNL     1      -0.119  11.241  20.199  0.00  0.00    +0.000 F 
ENDBRANCH  13  17
ENDBRANCH   3  10
BRANCH   1  22
ATOM     21  C   UNL     1       6.965   4.566  16.228  0.00  0.00    +0.000 C 
ATOM     22  C   UNL     1       6.501   4.598  17.489  0.00  0.00    +0.000 C 
BRANCH  21  24
ATOM     23  C   UNL     1       5.925   3.825  14.022  0.00  0.00    +0.000 C 
ATOM     24  C   UNL     1       6.178   4.935  15.007  0.00  0.00    +0.000 C 
ATOM     25  O   UNL     1       5.796   6.077  14.777  0.00  0.00    +0.000 OA
ENDBRANCH  21  24
ENDBRANCH   1  22
TORSDOF 4
ENDMDL
MODEL 6
REMARK VINA RESULT:      -8.0      1.336      3.273
REMARK  Name = 
REMARK  5 active torsions:
REMARK  status: ('A' for Active; 'I' for Inactive)
REMARK    1  A    between atoms: C_1  and  C_2
REMARK    2  A    between atoms: C_2  and  C_4
REMARK    3  A    between atoms: C_5  and  C_6
REMARK    4  A    between atoms: N_8  and  C_9
REMARK    5  A    between atoms: C_12  and  C_13
REMARK                            x       y       z     vdW  Elec       q    Type
REMARK                         _______ _______ _______ _____ _____    ______ ____
ROOT
ATOM      1  C   UNL     1       5.039   4.865  17.628  0.00  0.00    +0.000 A 
ATOM      2  C   UNL     1       4.702   6.144  17.989  0.00  0.00    +0.000 A 
ATOM      3  N   UNL     1       3.347   6.185  18.259  0.00  0.00    +0.000 N 
ATOM      4  C   UNL     1       2.857   4.872  18.227  0.00  0.00    +0.000 A 
ATOM      5  C   UNL     1       1.560   4.352  18.417  0.00  0.00    +0.000 A 
ATOM      6  C   UNL     1       1.346   2.982  18.230  0.00  0.00    +0.000 A 
ATOM      7  C   UNL     1       2.391   2.138  17.879  0.00  0.00    +0.000 A 
ATOM      8  C   UNL     1       3.675   2.651  17.682  0.00  0.00    +0.000 A 
ATOM      9  C   UNL     1       3.911   4.035  17.835  0.00  0.00    +0.000 A 
ENDROOT
BRANCH   3  10
ATOM     10  C   UNL     1       2.584   7.359  18.575  0.00  0.00    +0.000 A 
ATOM     11  N   UNL     1       2.537   8.321  17.604  0.00  0.00    +0.000 NA
ATOM     12  C   UNL     1       1.795   9.429  17.821  0.00  0.00    +0.000 A 
ATOM     13  C   UNL     1       1.081   9.656  18.982  0.00  0.00    +0.000 A 
ATOM     14  C   UNL     1       1.153   8.679  19.979  0.00  0.00    +0.000 A 
ATOM     15  C   UNL     1       1.910   7.515  19.791  0.00  0.00    +0.000 A 
ATOM     16 CL   UNL     1       2.034   6.483  21.171  0.00  0.00    +0.000 Cl
BRANCH  13  17
ATOM     17  C   UNL     1       0.283  10.906  19.170  0.00  0.00    +0.000 C 
ATOM     18  F   UNL     1       1.044  12.016  19.375  0.00  0.00    +0.000 F 
ATOM     19  F   UNL     1      -0.500  11.184  18.093  0.00  0.00    +0.000 F 
ATOM     20  F   UNL     1      -0.560  10.828  20.236  0.00  0.00    +0.000 F 
ENDBRANCH  13  17
ENDBRANCH   3  10
BRANCH   1  22
ATOM     21  C   UNL     1       7.492   4.881  17.579  0.00  0.00    +0.000 C 
ATOM     22  C   UNL     1       6.300   4.502  17.088  0.00  0.00    +0.000 C 
BRANCH  21  24
ATOM     23  C   UNL     1       8.113   7.154  18.551  0.00  0.00    +0.000 C 
ATOM     24  C   UNL     1       7.695   5.729  18.798  0.00  0.00    +0.000 C 
ATOM     25  O   UNL     1       7.584   5.298  19.940  0.00  0.00    +0.000 OA
ENDBRANCH  21  24
ENDBRANCH   1  22
TORSDOF 4
ENDMDL
MODEL 7
REMARK VINA RESULT:      -7.7      2.027      3.860
REMARK  Name = 
REMARK  5 active torsions:
REMARK  status: ('A' for Active; 'I' for Inactive)
REMARK    1  A    between atoms: C_1  and  C_2
REMARK    2  A    between atoms: C_2  and  C_4
REMARK    3  A    between atoms: C_5  and  C_6
REMARK    4  A    between atoms: N_8  and  C_9
REMARK    5  A    between atoms: C_12  and  C_13
REMARK                            x       y       z     vdW  Elec       q    Type
REMARK                         _______ _______ _______ _____ _____    ______ ____
ROOT
ATOM      1  C   UNL     1       4.093   4.963  18.397  0.00  0.00    +0.000 A 
ATOM      2  C   UNL     1       3.817   6.269  18.710  0.00  0.00    +0.000 A 
ATOM      3  N   UNL     1       2.646   6.311  19.442  0.00  0.00    +0.000 N 
ATOM      4  C   UNL     1       2.268   4.992  19.734  0.00  0.00    +0.000 A 
ATOM      5  C   UNL     1       1.161   4.469  20.434  0.00  0.00    +0.000 A 
ATOM      6  C   UNL     1       0.991   3.082  20.491  0.00  0.00    +0.000 A 
ATOM      7  C   UNL     1       1.900   2.226  19.884  0.00  0.00    +0.000 A 
ATOM      8  C   UNL     1       2.993   2.741  19.184  0.00  0.00    +0.000 A 
ATOM      9  C   UNL     1       3.172   4.139  19.087  0.00  0.00    +0.000 A 
ENDROOT
BRANCH   3  10
ATOM     10  C   UNL     1       1.964   7.496  19.878  0.00  0.00    +0.000 A 
ATOM     11  N   UNL     1       1.531   7.494  21.176  0.00  0.00    +0.000 NA
ATOM     12  C   UNL     1       0.925   8.599  21.662  0.00  0.00    +0.000 A 
ATOM     13  C   UNL     1       0.703   9.740  20.915  0.00  0.00    +0.000 A 
ATOM     14  C   UNL     1       1.127   9.726  19.583  0.00  0.00    +0.000 A 
ATOM     15  C   UNL     1       1.762   8.600  19.043  0.00  0.00    +0.000 A 
ATOM     16 CL   UNL     1       2.079   8.672  17.346  0.00  0.00    +0.000 Cl
BRANCH  13  17
ATOM     17  C   UNL     1       0.019  10.932  21.504  0.00  0.00    +0.000 C 
ATOM     18  F   UNL     1      -0.179  10.840  22.848  0.00  0.00    +0.000 F 
ATOM     19  F   UNL     1       0.722  12.079  21.308  0.00  0.00    +0.000 F 
ATOM     20  F   UNL     1      -1.209  11.148  20.958  0.00  0.00    +0.000 F 
ENDBRANCH  13  17
ENDBRANCH   3  10
BRANCH   1  22
ATOM     21  C   UNL     1       6.414   4.843  17.609  0.00  0.00    +0.000 C 
ATOM     22  C   UNL     1       5.105   4.565  17.485  0.00  0.00    +0.000 C 
BRANCH  21  24
ATOM     23  C   UNL     1       7.766   6.861  18.382  0.00  0.00    +0.000 C 
ATOM     24  C   UNL     1       7.034   5.596  18.746  0.00  0.00    +0.000 C 
ATOM     25  O   UNL     1       7.006   5.201  19.906  0.00  0.00    +0.000 OA
ENDBRANCH  21  24
ENDBRANCH   1  22
TORSDOF 4
ENDMDL
MODEL 8
REMARK VINA RESULT:      -7.7      1.719      3.439
REMARK  Name = 
REMARK  5 active torsions:
REMARK  status: ('A' for Active; 'I' for Inactive)
REMARK    1  A    between atoms: C_1  and  C_2
REMARK    2  A    between atoms: C_2  and  C_4
REMARK    3  A    between atoms: C_5  and  C_6
REMARK    4  A    between atoms: N_8  and  C_9
REMARK    5  A    between atoms: C_12  and  C_13
REMARK                            x       y       z     vdW  Elec       q    Type
REMARK                         _______ _______ _______ _____ _____    ______ ____
ROOT
ATOM      1  C   UNL     1       4.718   5.354  16.932  0.00  0.00    +0.000 A 
ATOM      2  C   UNL     1       4.382   6.609  17.369  0.00  0.00    +0.000 A 
ATOM      3  N   UNL     1       3.121   6.560  17.932  0.00  0.00    +0.000 N 
ATOM      4  C   UNL     1       2.727   5.216  17.998  0.00  0.00    +0.000 A 
ATOM      5  C   UNL     1       1.542   4.609  18.466  0.00  0.00    +0.000 A 
ATOM      6  C   UNL     1       1.387   3.227  18.320  0.00  0.00    +0.000 A 
ATOM      7  C   UNL     1       2.383   2.454  17.740  0.00  0.00    +0.000 A 
ATOM      8  C   UNL     1       3.554   3.052  17.269  0.00  0.00    +0.000 A 
ATOM      9  C   UNL     1       3.723   4.450  17.377  0.00  0.00    +0.000 A 
ENDROOT
BRANCH   3  10
ATOM     10  C   UNL     1       2.368   7.681  18.418  0.00  0.00    +0.000 A 
ATOM     11  N   UNL     1       2.176   8.703  17.529  0.00  0.00    +0.000 NA
ATOM     12  C   UNL     1       1.433   9.765  17.909  0.00  0.00    +0.000 A 
ATOM     13  C   UNL     1       0.860   9.888  19.160  0.00  0.00    +0.000 A 
ATOM     14  C   UNL     1       1.080   8.851  20.071  0.00  0.00    +0.000 A 
ATOM     15  C   UNL     1       1.842   7.731  19.713  0.00  0.00    +0.000 A 
ATOM     16 CL   UNL     1       2.162   6.615  20.993  0.00  0.00    +0.000 Cl
BRANCH  13  17
ATOM     17  C   UNL     1       0.054  11.093  19.529  0.00  0.00    +0.000 C 
ATOM     18  F   UNL     1       0.809  12.187  19.821  0.00  0.00    +0.000 F 
ATOM     19  F   UNL     1      -0.787  11.475  18.531  0.00  0.00    +0.000 F 
ATOM     20  F   UNL     1      -0.732  10.877  20.619  0.00  0.00    +0.000 F 
ENDBRANCH  13  17
ENDBRANCH   3  10
BRANCH   1  22
ATOM     21  C   UNL     1       7.072   5.610  16.289  0.00  0.00    +0.000 C 
ATOM     22  C   UNL     1       5.851   5.074  16.124  0.00  0.00    +0.000 C 
BRANCH  21  24
ATOM     23  C   UNL     1       7.721   5.973  18.727  0.00  0.00    +0.000 C 
ATOM     24  C   UNL     1       7.455   6.572  17.372  0.00  0.00    +0.000 C 
ATOM     25  O   UNL     1       7.506   7.786  17.202  0.00  0.00    +0.000 OA
ENDBRANCH  21  24
ENDBRANCH   1  22
TORSDOF 4
ENDMDL
MODEL 9
REMARK VINA RESULT:      -7.6      2.076      3.858
REMARK  Name = 
REMARK  5 active torsions:
REMARK  status: ('A' for Active; 'I' for Inactive)
REMARK    1  A    between atoms: C_1  and  C_2
REMARK    2  A    between atoms: C_2  and  C_4
REMARK    3  A    between atoms: C_5  and  C_6
REMARK    4  A    between atoms: N_8  and  C_9
REMARK    5  A    between atoms: C_12  and  C_13
REMARK                            x       y       z     vdW  Elec       q    Type
REMARK                         _______ _______ _______ _____ _____    ______ ____
ROOT
ATOM      1  C   UNL     1       3.852   5.653  17.927  0.00  0.00    +0.000 A 
ATOM      2  C   UNL     1       3.404   6.914  18.228  0.00  0.00    +0.000 A 
ATOM      3  N   UNL     1       2.571   6.837  19.328  0.00  0.00    +0.000 N 
ATOM      4  C   UNL     1       2.628   5.527  19.826  0.00  0.00    +0.000 A 
ATOM      5  C   UNL     1       1.974   4.909  20.911  0.00  0.00    +0.000 A 
ATOM      6  C   UNL     1       2.157   3.538  21.120  0.00  0.00    +0.000 A 
ATOM      7  C   UNL     1       2.981   2.793  20.287  0.00  0.00    +0.000 A 
ATOM      8  C   UNL     1       3.624   3.401  19.207  0.00  0.00    +0.000 A 
ATOM      9  C   UNL     1       3.432   4.777  18.957  0.00  0.00    +0.000 A 
ENDROOT
BRANCH   3  10
ATOM     10  C   UNL     1       1.822   7.920  19.897  0.00  0.00    +0.000 A 
ATOM     11  N   UNL     1       1.534   7.812  21.231  0.00  0.00    +0.000 NA
ATOM     12  C   UNL     1       0.874   8.822  21.838  0.00  0.00    +0.000 A 
ATOM     13  C   UNL     1       0.456   9.965  21.183  0.00  0.00    +0.000 A 
ATOM     14  C   UNL     1       0.732  10.057  19.816  0.00  0.00    +0.000 A 
ATOM     15  C   UNL     1       1.417   9.032  19.151  0.00  0.00    +0.000 A 
ATOM     16 CL   UNL     1       1.539   9.214  17.438  0.00  0.00    +0.000 Cl
BRANCH  13  17
ATOM     17  C   UNL     1      -0.280  11.047  21.906  0.00  0.00    +0.000 C 
ATOM     18  F   UNL     1       0.332  12.262  21.841  0.00  0.00    +0.000 F 
ATOM     19  F   UNL     1      -1.534  11.234  21.415  0.00  0.00    +0.000 F 
ATOM     20  F   UNL     1      -0.434  10.775  23.231  0.00  0.00    +0.000 F 
ENDBRANCH  13  17
ENDBRANCH   3  10
BRANCH   1  22
ATOM     21  C   UNL     1       5.897   5.240  16.636  0.00  0.00    +0.000 C 
ATOM     22  C   UNL     1       4.560   5.328  16.741  0.00  0.00    +0.000 C 
BRANCH  21  24
ATOM     23  C   UNL     1       7.462   6.821  17.880  0.00  0.00    +0.000 C 
ATOM     24  C   UNL     1       6.868   5.443  17.759  0.00  0.00    +0.000 C 
ATOM     25  O   UNL     1       7.214   4.543  18.516  0.00  0.00    +0.000 OA
ENDBRANCH  21  24
ENDBRANCH   1  22
TORSDOF 4
ENDMDL
