MODEL 1
REMARK VINA RESULT:      -8.5      0.000      0.000
REMARK  Name = 
REMARK  5 active torsions:
REMARK  status: ('A' for Active; 'I' for Inactive)
REMARK    1  A    between atoms: O_1  and  C_2
REMARK    2  A    between atoms: C_2  and  C_3
REMARK    3  A    between atoms: C_2  and  C_9
REMARK    4  A    between atoms: C_11  and  C_12
REMARK    5  A    between atoms: C_16  and  C_17
REMARK                            x       y       z     vdW  Elec       q    Type
REMARK                         _______ _______ _______ _____ _____    ______ ____
ROOT
ATOM      1  C   UNL     1       6.003   5.803  16.497  0.00  0.00    +0.000 A 
ATOM      2  N   UNL     1       5.301   5.188  17.433  0.00  0.00    +0.000 NA
ATOM      3  C   UNL     1       4.211   5.996  17.672  0.00  0.00    +0.000 A 
ATOM      4  C   UNL     1       4.270   7.129  16.892  0.00  0.00    +0.000 A 
ATOM      5  N   UNL     1       5.409   6.994  16.156  0.00  0.00    +0.000 N 
ATOM      6  H   UNL     1       5.763   7.622  15.447  0.00  0.00    +0.000 HD
ENDROOT
BRANCH   3   7
ATOM      7  C   UNL     1       3.178   5.715  18.654  0.00  0.00    +0.000 A 
ATOM      8  C   UNL     1       2.709   6.716  19.515  0.00  0.00    +0.000 A 
ATOM      9  C   UNL     1       1.782   6.417  20.514  0.00  0.00    +0.000 A 
ATOM     10  C   UNL     1       1.318   5.111  20.665  0.00  0.00    +0.000 A 
ATOM     11  C   UNL     1       1.760   4.096  19.803  0.00  0.00    +0.000 A 
ATOM     12  C   UNL     1       2.676   4.415  18.785  0.00  0.00    +0.000 A 
BRANCH  11  13
ATOM     13  C   UNL     1       1.287   2.673  19.971  0.00  0.00    +0.000 C 
ATOM     14  F   UNL     1       0.122   2.407  19.313  0.00  0.00    +0.000 F 
ATOM     15  F   UNL     1       2.187   1.761  19.513  0.00  0.00    +0.000 F 
ATOM     16  F   UNL     1       1.055   2.351  21.274  0.00  0.00    +0.000 F 
ENDBRANCH  11  13
ENDBRANCH   3   7
BRANCH   1  17
ATOM     17  C   UNL     1       7.244   5.329  15.806  0.00  0.00    +0.000 C 
BRANCH  17  18
ATOM     18  C   UNL     1       7.003   4.777  14.414  0.00  0.00    +0.000 A 
ATOM     19  C   UNL     1       7.783   5.173  13.313  0.00  0.00    +0.000 A 
ATOM     20  C   UNL     1       7.519   4.681  12.035  0.00  0.00    +0.000 A 
ATOM     21  C   UNL     1       6.478   3.776  11.840  0.00  0.00    +0.000 A 
ATOM     22  C   UNL     1       5.712   3.351  12.925  0.00  0.00    +0.000 A 
ATOM     23  C   UNL     1       5.976   3.845  14.204  0.00  0.00    +0.000 A 
ENDBRANCH  17  18
BRANCH  17  24
ATOM     24  O   UNL     1       7.831   4.310  16.632  0.00  0.00    +0.000 OA
ATOM     25  H   UNL     1       8.489   3.869  16.067  0.00  0.00    +0.000 HD
ENDBRANCH  17  24
ENDBRANCH   1  17
TORSDOF 5
ENDMDL
MODEL 2
REMARK VINA RESULT:      -8.4      0.610      1.297
REMARK  Name = 
REMARK  5 active torsions:
REMARK  status: ('A' for Active; 'I' for Inactive)
REMARK    1  A    between atoms: O_1  and  C_2
REMARK    2  A    between atoms: C_2  and  C_3
REMARK    3  A    between atoms: C_2  and  C_9
REMARK    4  A    between atoms: C_11  and  C_12
REMARK    5  A    between atoms: C_16  and  C_17
REMARK                            x       y       z     vdW  Elec       q    Type
REMARK                         _______ _______ _______ _____ _____    ______ ____
ROOT
ATOM      1  C   UNL     1       6.054   5.705  16.641  0.00  0.00    +0.000 A 
ATOM      2  N   UNL     1       5.362   5.113  17.600  0.00  0.00    +0.000 NA
ATOM      3  C   UNL     1       4.307   5.956  17.874  0.00  0.00    +0.000 A 
ATOM      4  C   UNL     1       4.378   7.088  17.092  0.00  0.00    +0.000 A 
ATOM      5  N   UNL     1       5.488   6.915  16.319  0.00  0.00    +0.000 N 
ATOM      6  H   UNL     1       5.839   7.532  15.600  0.00  0.00    +0.000 HD
ENDROOT
BRANCH   3   7
ATOM      7  C   UNL     1       3.299   5.708  18.889  0.00  0.00    +0.000 A 
ATOM      8  C   UNL     1       2.561   6.762  19.446  0.00  0.00    +0.000 A 
ATOM      9  C   UNL     1       1.658   6.527  20.483  0.00  0.00    +0.000 A 
ATOM     10  C   UNL     1       1.486   5.234  20.977  0.00  0.00    +0.000 A 
ATOM     11  C   UNL     1       2.200   4.160  20.422  0.00  0.00    +0.000 A 
ATOM     12  C   UNL     1       3.090   4.407  19.361  0.00  0.00    +0.000 A 
BRANCH  11  13
ATOM     13  C   UNL     1       2.045   2.761  20.964  0.00  0.00    +0.000 C 
ATOM     14  F   UNL     1       1.011   2.631  21.842  0.00  0.00    +0.000 F 
ATOM     15  F   UNL     1       1.820   1.840  19.987  0.00  0.00    +0.000 F 
ATOM     16  F   UNL     1       3.152   2.336  21.634  0.00  0.00    +0.000 F 
ENDBRANCH  11  13
ENDBRANCH   3   7
BRANCH   1  17
ATOM     17  C   UNL     1       7.255   5.191  15.910  0.00  0.00    +0.000 C 
BRANCH  17  18
ATOM     18  C   UNL     1       6.962   4.714  14.501  0.00  0.00    +0.000 A 
ATOM     19  C   UNL     1       5.900   3.834  14.221  0.00  0.00    +0.000 A 
ATOM     20  C   UNL     1       5.672   3.379  12.923  0.00  0.00    +0.000 A 
ATOM     21  C   UNL     1       6.494   3.805  11.882  0.00  0.00    +0.000 A 
ATOM     22  C   UNL     1       7.534   4.698  12.136  0.00  0.00    +0.000 A 
ATOM     23  C   UNL     1       7.763   5.153  13.437  0.00  0.00    +0.000 A 
ENDBRANCH  17  18
BRANCH  17  24
ATOM     24  O   UNL     1       7.793   4.107  16.682  0.00  0.00    +0.000 OA
ATOM     25  H   UNL     1       8.742   4.303  16.775  0.00  0.00    +0.000 HD
ENDBRANCH  17  24
ENDBRANCH   1  17
TORSDOF 5
ENDMDL
MODEL 3
REMARK VINA RESULT:      -8.3      3.483      7.342
REMARK  Name = 
REMARK  5 active torsions:
REMARK  status: ('A' for Active; 'I' for Inactive)
REMARK    1  A    between atoms: O_1  and  C_2
REMARK    2  A    between atoms: C_2  and  C_3
REMARK    3  A    between atoms: C_2  and  C_9
REMARK    4  A    between atoms: C_11  and  C_12
REMARK    5  A    between atoms: C_16  and  C_17
REMARK                            x       y       z     vdW  Elec       q    Type
REMARK                         _______ _______ _______ _____ _____    ______ ____
ROOT
ATOM      1  C   UNL     1       4.669   5.612  17.789  0.00  0.00    +0.000 A 
ATOM      2  N   UNL     1       4.639   5.524  16.470  0.00  0.00    +0.000 NA
ATOM      3  C   UNL     1       5.823   4.917  16.110  0.00  0.00    +0.000 A 
ATOM      4  C   UNL     1       6.592   4.662  17.223  0.00  0.00    +0.000 A 
ATOM      5  N   UNL     1       5.851   5.108  18.277  0.00  0.00    +0.000 N 
ATOM      6  H   UNL     1       6.083   5.057  19.259  0.00  0.00    +0.000 HD
ENDROOT
BRANCH   3   7
ATOM      7  C   UNL     1       6.222   4.643  14.741  0.00  0.00    +0.000 A 
ATOM      8  C   UNL     1       7.461   5.079  14.249  0.00  0.00    +0.000 A 
ATOM      9  C   UNL     1       7.800   4.890  12.909  0.00  0.00    +0.000 A 
ATOM     10  C   UNL     1       6.901   4.265  12.045  0.00  0.00    +0.000 A 
ATOM     11  C   UNL     1       5.663   3.804  12.519  0.00  0.00    +0.000 A 
ATOM     12  C   UNL     1       5.344   3.979  13.878  0.00  0.00    +0.000 A 
BRANCH  11  13
ATOM     13  C   UNL     1       4.670   3.151  11.591  0.00  0.00    +0.000 C 
ATOM     14  F   UNL     1       4.393   3.894  10.482  0.00  0.00    +0.000 F 
ATOM     15  F   UNL     1       5.095   1.943  11.130  0.00  0.00    +0.000 F 
ATOM     16  F   UNL     1       3.468   2.923  12.190  0.00  0.00    +0.000 F 
ENDBRANCH  11  13
ENDBRANCH   3   7
BRANCH   1  17
ATOM     17  C   UNL     1       3.602   6.116  18.711  0.00  0.00    +0.000 C 
BRANCH  17  18
ATOM     18  C   UNL     1       2.616   5.053  19.153  0.00  0.00    +0.000 A 
ATOM     19  C   UNL     1       2.306   4.846  20.510  0.00  0.00    +0.000 A 
ATOM     20  C   UNL     1       1.424   3.838  20.897  0.00  0.00    +0.000 A 
ATOM     21  C   UNL     1       0.829   3.027  19.932  0.00  0.00    +0.000 A 
ATOM     22  C   UNL     1       1.103   3.235  18.581  0.00  0.00    +0.000 A 
ATOM     23  C   UNL     1       1.987   4.245  18.194  0.00  0.00    +0.000 A 
ENDBRANCH  17  18
BRANCH  17  24
ATOM     24  O   UNL     1       2.902   7.164  18.021  0.00  0.00    +0.000 OA
ATOM     25  H   UNL     1       1.999   7.150  18.382  0.00  0.00    +0.000 HD
ENDBRANCH  17  24
ENDBRANCH   1  17
TORSDOF 5
ENDMDL
MODEL 4
REMARK VINA RESULT:      -8.3      1.392      2.093
REMARK  Name = 
REMARK  5 active torsions:
REMARK  status: ('A' for Active; 'I' for Inactive)
REMARK    1  A    between atoms: O_1  and  C_2
REMARK    2  A    between atoms: C_2  and  C_3
REMARK    3  A    between atoms: C_2  and  C_9
REMARK    4  A    between atoms: C_11  and  C_12
REMARK    5  A    between atoms: C_16  and  C_17
REMARK                            x       y       z     vdW  Elec       q    Type
REMARK                         _______ _______ _______ _____ _____    ______ ____
ROOT
ATOM      1  C   UNL     1       5.804   5.405  16.559  0.00  0.00    +0.000 A 
ATOM      2  N   UNL     1       5.099   4.416  17.081  0.00  0.00    +0.000 NA
ATOM      3  C   UNL     1       3.942   4.994  17.556  0.00  0.00    +0.000 A 
ATOM      4  C   UNL     1       3.960   6.355  17.346  0.00  0.00    +0.000 A 
ATOM      5  N   UNL     1       5.144   6.600  16.716  0.00  0.00    +0.000 N 
ATOM      6  H   UNL     1       5.489   7.487  16.377  0.00  0.00    +0.000 HD
ENDROOT
BRANCH   3   7
ATOM      7  C   UNL     1       2.881   4.271  18.236  0.00  0.00    +0.000 A 
ATOM      8  C   UNL     1       1.668   3.993  17.591  0.00  0.00    +0.000 A 
ATOM      9  C   UNL     1       0.621   3.378  18.279  0.00  0.00    +0.000 A 
ATOM     10  C   UNL     1       0.777   3.038  19.623  0.00  0.00    +0.000 A 
ATOM     11  C   UNL     1       1.989   3.289  20.284  0.00  0.00    +0.000 A 
ATOM     12  C   UNL     1       3.044   3.888  19.572  0.00  0.00    +0.000 A 
BRANCH  11  13
ATOM     13  C   UNL     1       2.163   2.951  21.743  0.00  0.00    +0.000 C 
ATOM     14  F   UNL     1       3.180   2.074  21.980  0.00  0.00    +0.000 F 
ATOM     15  F   UNL     1       2.430   4.044  22.510  0.00  0.00    +0.000 F 
ATOM     16  F   UNL     1       1.051   2.377  22.282  0.00  0.00    +0.000 F 
ENDBRANCH  11  13
ENDBRANCH   3   7
BRANCH   1  17
ATOM     17  C   UNL     1       7.111   5.331  15.833  0.00  0.00    +0.000 C 
BRANCH  17  18
ATOM     18  C   UNL     1       6.993   4.856  14.397  0.00  0.00    +0.000 A 
ATOM     19  C   UNL     1       6.092   3.843  14.023  0.00  0.00    +0.000 A 
ATOM     20  C   UNL     1       6.027   3.396  12.703  0.00  0.00    +0.000 A 
ATOM     21  C   UNL     1       6.853   3.963  11.736  0.00  0.00    +0.000 A 
ATOM     22  C   UNL     1       7.733   4.987  12.084  0.00  0.00    +0.000 A 
ATOM     23  C   UNL     1       7.798   5.434  13.405  0.00  0.00    +0.000 A 
ENDBRANCH  17  18
BRANCH  17  24
ATOM     24  O   UNL     1       7.958   4.433  16.568  0.00  0.00    +0.000 OA
ATOM     25  H   UNL     1       7.533   3.560  16.493  0.00  0.00    +0.000 HD
ENDBRANCH  17  24
ENDBRANCH   1  17
TORSDOF 5
ENDMDL
MODEL 5
REMARK VINA RESULT:      -8.3      3.481      7.364
REMARK  Name = 
REMARK  5 active torsions:
REMARK  status: ('A' for Active; 'I' for Inactive)
REMARK    1  A    between atoms: O_1  and  C_2
REMARK    2  A    between atoms: C_2  and  C_3
REMARK    3  A    between atoms: C_2  and  C_9
REMARK    4  A    between atoms: C_11  and  C_12
REMARK    5  A    between atoms: C_16  and  C_17
REMARK                            x       y       z     vdW  Elec       q    Type
REMARK                         _______ _______ _______ _____ _____    ______ ____
ROOT
ATOM      1  C   UNL     1       4.640   5.561  17.825  0.00  0.00    +0.000 A 
ATOM      2  N   UNL     1       4.609   5.471  16.506  0.00  0.00    +0.000 NA
ATOM      3  C   UNL     1       5.808   4.899  16.143  0.00  0.00    +0.000 A 
ATOM      4  C   UNL     1       6.589   4.668  17.254  0.00  0.00    +0.000 A 
ATOM      5  N   UNL     1       5.837   5.093  18.310  0.00  0.00    +0.000 N 
ATOM      6  H   UNL     1       6.074   5.049  19.291  0.00  0.00    +0.000 HD
ENDROOT
BRANCH   3   7
ATOM      7  C   UNL     1       6.212   4.635  14.774  0.00  0.00    +0.000 A 
ATOM      8  C   UNL     1       7.450   5.078  14.287  0.00  0.00    +0.000 A 
ATOM      9  C   UNL     1       7.793   4.899  12.947  0.00  0.00    +0.000 A 
ATOM     10  C   UNL     1       6.897   4.278  12.077  0.00  0.00    +0.000 A 
ATOM     11  C   UNL     1       5.660   3.810  12.545  0.00  0.00    +0.000 A 
ATOM     12  C   UNL     1       5.337   3.975  13.904  0.00  0.00    +0.000 A 
BRANCH  11  13
ATOM     13  C   UNL     1       4.671   3.160  11.610  0.00  0.00    +0.000 C 
ATOM     14  F   UNL     1       4.404   3.904  10.499  0.00  0.00    +0.000 F 
ATOM     15  F   UNL     1       5.095   1.950  11.152  0.00  0.00    +0.000 F 
ATOM     16  F   UNL     1       3.464   2.936  12.201  0.00  0.00    +0.000 F 
ENDBRANCH  11  13
ENDBRANCH   3   7
BRANCH   1  17
ATOM     17  C   UNL     1       3.561   6.035  18.750  0.00  0.00    +0.000 C 
BRANCH  17  18
ATOM     18  C   UNL     1       2.650   4.932  19.251  0.00  0.00    +0.000 A 
ATOM     19  C   UNL     1       1.920   4.113  18.370  0.00  0.00    +0.000 A 
ATOM     20  C   UNL     1       1.059   3.129  18.855  0.00  0.00    +0.000 A 
ATOM     21  C   UNL     1       0.924   2.940  20.228  0.00  0.00    +0.000 A 
ATOM     22  C   UNL     1       1.660   3.723  21.116  0.00  0.00    +0.000 A 
ATOM     23  C   UNL     1       2.521   4.709  20.630  0.00  0.00    +0.000 A 
ENDBRANCH  17  18
BRANCH  17  24
ATOM     24  O   UNL     1       2.786   7.011  18.036  0.00  0.00    +0.000 OA
ATOM     25  H   UNL     1       3.420   7.703  17.776  0.00  0.00    +0.000 HD
ENDBRANCH  17  24
ENDBRANCH   1  17
TORSDOF 5
ENDMDL
MODEL 6
REMARK VINA RESULT:      -8.2      1.376      1.853
REMARK  Name = 
REMARK  5 active torsions:
REMARK  status: ('A' for Active; 'I' for Inactive)
REMARK    1  A    between atoms: O_1  and  C_2
REMARK    2  A    between atoms: C_2  and  C_3
REMARK    3  A    between atoms: C_2  and  C_9
REMARK    4  A    between atoms: C_11  and  C_12
REMARK    5  A    between atoms: C_16  and  C_17
REMARK                            x       y       z     vdW  Elec       q    Type
REMARK                         _______ _______ _______ _____ _____    ______ ____
ROOT
ATOM      1  C   UNL     1       5.795   5.419  16.560  0.00  0.00    +0.000 A 
ATOM      2  N   UNL     1       5.081   4.419  17.050  0.00  0.00    +0.000 NA
ATOM      3  C   UNL     1       3.944   4.995  17.574  0.00  0.00    +0.000 A 
ATOM      4  C   UNL     1       3.985   6.363  17.427  0.00  0.00    +0.000 A 
ATOM      5  N   UNL     1       5.161   6.616  16.785  0.00  0.00    +0.000 N 
ATOM      6  H   UNL     1       5.516   7.512  16.481  0.00  0.00    +0.000 HD
ENDROOT
BRANCH   3   7
ATOM      7  C   UNL     1       2.884   4.261  18.240  0.00  0.00    +0.000 A 
ATOM      8  C   UNL     1       1.687   3.957  17.576  0.00  0.00    +0.000 A 
ATOM      9  C   UNL     1       0.638   3.331  18.250  0.00  0.00    +0.000 A 
ATOM     10  C   UNL     1       0.774   3.005  19.599  0.00  0.00    +0.000 A 
ATOM     11  C   UNL     1       1.970   3.282  20.280  0.00  0.00    +0.000 A 
ATOM     12  C   UNL     1       3.028   3.892  19.583  0.00  0.00    +0.000 A 
BRANCH  11  13
ATOM     13  C   UNL     1       2.122   2.959  21.746  0.00  0.00    +0.000 C 
ATOM     14  F   UNL     1       2.427   4.046  22.511  0.00  0.00    +0.000 F 
ATOM     15  F   UNL     1       0.992   2.430  22.289  0.00  0.00    +0.000 F 
ATOM     16  F   UNL     1       3.112   2.054  21.981  0.00  0.00    +0.000 F 
ENDBRANCH  11  13
ENDBRANCH   3   7
BRANCH   1  17
ATOM     17  C   UNL     1       7.086   5.354  15.805  0.00  0.00    +0.000 C 
BRANCH  17  18
ATOM     18  C   UNL     1       6.948   4.825  14.390  0.00  0.00    +0.000 A 
ATOM     19  C   UNL     1       7.792   5.259  13.350  0.00  0.00    +0.000 A 
ATOM     20  C   UNL     1       7.622   4.787  12.049  0.00  0.00    +0.000 A 
ATOM     21  C   UNL     1       6.615   3.866  11.769  0.00  0.00    +0.000 A 
ATOM     22  C   UNL     1       5.788   3.405  12.793  0.00  0.00    +0.000 A 
ATOM     23  C   UNL     1       5.957   3.878  14.096  0.00  0.00    +0.000 A 
ENDBRANCH  17  18
BRANCH  17  24
ATOM     24  O   UNL     1       7.975   4.507  16.550  0.00  0.00    +0.000 OA
ATOM     25  H   UNL     1       8.374   3.911  15.892  0.00  0.00    +0.000 HD
ENDBRANCH  17  24
ENDBRANCH   1  17
TORSDOF 5
ENDMDL
MODEL 7
REMARK VINA RESULT:      -8.0      1.541      2.296
REMARK  Name = 
REMARK  5 active torsions:
REMARK  status: ('A' for Active; 'I' for Inactive)
REMARK    1  A    between atoms: O_1  and  C_2
REMARK    2  A    between atoms: C_2  and  C_3
REMARK    3  A    between atoms: C_2  and  C_9
REMARK    4  A    between atoms: C_11  and  C_12
REMARK    5  A    between atoms: C_16  and  C_17
REMARK                            x       y       z     vdW  Elec       q    Type
REMARK                         _______ _______ _______ _____ _____    ______ ____
ROOT
ATOM      1  C   UNL     1       6.389   4.908  14.735  0.00  0.00    +0.000 A 
ATOM      2  N   UNL     1       5.168   5.051  15.222  0.00  0.00    +0.000 NA
ATOM      3  C   UNL     1       5.291   4.902  16.586  0.00  0.00    +0.000 A 
ATOM      4  C   UNL     1       6.599   4.635  16.926  0.00  0.00    +0.000 A 
ATOM      5  N   UNL     1       7.280   4.640  15.745  0.00  0.00    +0.000 N 
ATOM      6  H   UNL     1       8.273   4.512  15.607  0.00  0.00    +0.000 HD
ENDROOT
BRANCH   3   7
ATOM      7  C   UNL     1       4.184   4.959  17.523  0.00  0.00    +0.000 A 
ATOM      8  C   UNL     1       3.870   6.147  18.199  0.00  0.00    +0.000 A 
ATOM      9  C   UNL     1       2.862   6.172  19.163  0.00  0.00    +0.000 A 
ATOM     10  C   UNL     1       2.158   5.006  19.464  0.00  0.00    +0.000 A 
ATOM     11  C   UNL     1       2.441   3.810  18.787  0.00  0.00    +0.000 A 
ATOM     12  C   UNL     1       3.444   3.804  17.800  0.00  0.00    +0.000 A 
BRANCH  11  13
ATOM     13  C   UNL     1       1.707   2.536  19.120  0.00  0.00    +0.000 C 
ATOM     14  F   UNL     1       0.498   2.428  18.500  0.00  0.00    +0.000 F 
ATOM     15  F   UNL     1       2.403   1.419  18.771  0.00  0.00    +0.000 F 
ATOM     16  F   UNL     1       1.448   2.416  20.453  0.00  0.00    +0.000 F 
ENDBRANCH  11  13
ENDBRANCH   3   7
BRANCH   1  17
ATOM     17  C   UNL     1       6.845   5.053  13.316  0.00  0.00    +0.000 C 
BRANCH  17  18
ATOM     18  C   UNL     1       6.603   3.824  12.461  0.00  0.00    +0.000 A 
ATOM     19  C   UNL     1       5.308   3.322  12.232  0.00  0.00    +0.000 A 
ATOM     20  C   UNL     1       5.112   2.169  11.473  0.00  0.00    +0.000 A 
ATOM     21  C   UNL     1       6.206   1.505  10.922  0.00  0.00    +0.000 A 
ATOM     22  C   UNL     1       7.494   2.003  11.116  0.00  0.00    +0.000 A 
ATOM     23  C   UNL     1       7.690   3.158  11.876  0.00  0.00    +0.000 A 
ENDBRANCH  17  18
BRANCH  17  24
ATOM     24  O   UNL     1       8.251   5.347  13.347  0.00  0.00    +0.000 OA
ATOM     25  H   UNL     1       8.644   4.798  12.646  0.00  0.00    +0.000 HD
ENDBRANCH  17  24
ENDBRANCH   1  17
TORSDOF 5
ENDMDL
MODEL 8
REMARK VINA RESULT:      -8.0      3.625      4.891
REMARK  Name = 
REMARK  5 active torsions:
REMARK  status: ('A' for Active; 'I' for Inactive)
REMARK    1  A    between atoms: O_1  and  C_2
REMARK    2  A    between atoms: C_2  and  C_3
REMARK    3  A    between atoms: C_2  and  C_9
REMARK    4  A    between atoms: C_11  and  C_12
REMARK    5  A    between atoms: C_16  and  C_17
REMARK                            x       y       z     vdW  Elec       q    Type
REMARK                         _______ _______ _______ _____ _____    ______ ____
ROOT
ATOM      1  C   UNL     1       4.140   4.901  19.321  0.00  0.00    +0.000 A 
ATOM      2  N   UNL     1       3.843   6.183  19.190  0.00  0.00    +0.000 NA
ATOM      3  C   UNL     1       2.620   6.347  19.804  0.00  0.00    +0.000 A 
ATOM      4  C   UNL     1       2.157   5.142  20.285  0.00  0.00    +0.000 A 
ATOM      5  N   UNL     1       3.127   4.238  19.971  0.00  0.00    +0.000 N 
ATOM      6  H   UNL     1       3.147   3.253  20.197  0.00  0.00    +0.000 HD
ENDROOT
BRANCH   3   7
ATOM      7  C   UNL     1       1.899   7.604  19.876  0.00  0.00    +0.000 A 
ATOM      8  C   UNL     1       1.861   8.479  18.781  0.00  0.00    +0.000 A 
ATOM      9  C   UNL     1       1.242   9.725  18.887  0.00  0.00    +0.000 A 
ATOM     10  C   UNL     1       0.657  10.111  20.093  0.00  0.00    +0.000 A 
ATOM     11  C   UNL     1       0.666   9.244  21.196  0.00  0.00    +0.000 A 
ATOM     12  C   UNL     1       1.272   7.982  21.069  0.00  0.00    +0.000 A 
BRANCH  11  13
ATOM     13  C   UNL     1       0.061   9.658  22.514  0.00  0.00    +0.000 C 
ATOM     14  F   UNL     1      -1.076   8.973  22.829  0.00  0.00    +0.000 F 
ATOM     15  F   UNL     1       0.907   9.474  23.564  0.00  0.00    +0.000 F 
ATOM     16  F   UNL     1      -0.287  10.975  22.538  0.00  0.00    +0.000 F 
ENDBRANCH  11  13
ENDBRANCH   3   7
BRANCH   1  17
ATOM     17  C   UNL     1       5.392   4.191  18.907  0.00  0.00    +0.000 C 
BRANCH  17  18
ATOM     18  C   UNL     1       5.741   4.360  17.441  0.00  0.00    +0.000 A 
ATOM     19  C   UNL     1       4.788   4.166  16.424  0.00  0.00    +0.000 A 
ATOM     20  C   UNL     1       5.141   4.290  15.081  0.00  0.00    +0.000 A 
ATOM     21  C   UNL     1       6.449   4.621  14.734  0.00  0.00    +0.000 A 
ATOM     22  C   UNL     1       7.399   4.844  15.729  0.00  0.00    +0.000 A 
ATOM     23  C   UNL     1       7.046   4.719  17.074  0.00  0.00    +0.000 A 
ENDBRANCH  17  18
BRANCH  17  24
ATOM     24  O   UNL     1       5.208   2.796  19.200  0.00  0.00    +0.000 OA
ATOM     25  H   UNL     1       6.037   2.365  18.927  0.00  0.00    +0.000 HD
ENDBRANCH  17  24
ENDBRANCH   1  17
TORSDOF 5
ENDMDL
MODEL 9
REMARK VINA RESULT:      -8.0      3.490      7.207
REMARK  Name = 
REMARK  5 active torsions:
REMARK  status: ('A' for Active; 'I' for Inactive)
REMARK    1  A    between atoms: O_1  and  C_2
REMARK    2  A    between atoms: C_2  and  C_3
REMARK    3  A    between atoms: C_2  and  C_9
REMARK    4  A    between atoms: C_11  and  C_12
REMARK    5  A    between atoms: C_16  and  C_17
REMARK                            x       y       z     vdW  Elec       q    Type
REMARK                         _______ _______ _______ _____ _____    ______ ____
ROOT
ATOM      1  C   UNL     1       5.449   4.773  18.051  0.00  0.00    +0.000 A 
ATOM      2  N   UNL     1       5.217   4.767  16.749  0.00  0.00    +0.000 NA
ATOM      3  C   UNL     1       6.439   4.537  16.154  0.00  0.00    +0.000 A 
ATOM      4  C   UNL     1       7.427   4.432  17.108  0.00  0.00    +0.000 A 
ATOM      5  N   UNL     1       6.786   4.585  18.301  0.00  0.00    +0.000 N 
ATOM      6  H   UNL     1       7.189   4.536  19.227  0.00  0.00    +0.000 HD
ENDROOT
BRANCH   3   7
ATOM      7  C   UNL     1       6.656   4.474  14.720  0.00  0.00    +0.000 A 
ATOM      8  C   UNL     1       7.744   5.128  14.125  0.00  0.00    +0.000 A 
ATOM      9  C   UNL     1       7.896   5.138  12.738  0.00  0.00    +0.000 A 
ATOM     10  C   UNL     1       6.958   4.496  11.931  0.00  0.00    +0.000 A 
ATOM     11  C   UNL     1       5.871   3.819  12.505  0.00  0.00    +0.000 A 
ATOM     12  C   UNL     1       5.742   3.796  13.905  0.00  0.00    +0.000 A 
BRANCH  11  13
ATOM     13  C   UNL     1       4.833   3.143  11.643  0.00  0.00    +0.000 C 
ATOM     14  F   UNL     1       3.646   2.941  12.282  0.00  0.00    +0.000 F 
ATOM     15  F   UNL     1       4.534   3.854  10.522  0.00  0.00    +0.000 F 
ATOM     16  F   UNL     1       5.233   1.914  11.213  0.00  0.00    +0.000 F 
ENDBRANCH  11  13
ENDBRANCH   3   7
BRANCH   1  17
ATOM     17  C   UNL     1       4.461   4.902  19.169  0.00  0.00    +0.000 C 
BRANCH  17  18
ATOM     18  C   UNL     1       3.285   3.950  19.065  0.00  0.00    +0.000 A 
ATOM     19  C   UNL     1       3.444   2.557  19.183  0.00  0.00    +0.000 A 
ATOM     20  C   UNL     1       2.354   1.698  19.047  0.00  0.00    +0.000 A 
ATOM     21  C   UNL     1       1.085   2.219  18.802  0.00  0.00    +0.000 A 
ATOM     22  C   UNL     1       0.904   3.598  18.709  0.00  0.00    +0.000 A 
ATOM     23  C   UNL     1       1.996   4.458  18.845  0.00  0.00    +0.000 A 
ENDBRANCH  17  18
BRANCH  17  24
ATOM     24  O   UNL     1       3.984   6.257  19.164  0.00  0.00    +0.000 OA
ATOM     25  H   UNL     1       3.128   6.230  19.626  0.00  0.00    +0.000 HD
ENDBRANCH  17  24
ENDBRANCH   1  17
TORSDOF 5
ENDMDL
