MODEL 1
REMARK VINA RESULT:      -7.7      0.000      0.000
REMARK  Name = 
REMARK  7 active torsions:
REMARK  status: ('A' for Active; 'I' for Inactive)
REMARK    1  A    between atoms: C_1  and  C_2
REMARK    2  A    between atoms: C_7  and  N_8
REMARK    3  A    between atoms: N_10  and  C_11
REMARK    4  A    between atoms: N_13  and  C_14
REMARK    5  A    between atoms: N_19  and  C_20
REMARK    6  A    between atoms: C_20  and  C_21
REMARK    7  A    between atoms: C_32  and  C_33
REMARK                            x       y       z     vdW  Elec       q    Type
REMARK                         _______ _______ _______ _____ _____    ______ ____
ROOT
ATOM      1  N   UNL     1       9.498   9.547  19.468  0.00  0.00    +0.000 N 
ATOM      2  C   UNL     1       8.529   9.194  18.562  0.00  0.00    +0.000 C 
ATOM      3  N   UNL     1       7.816   9.886  17.739  0.00  0.00    +0.000 NA
ATOM      4  N   UNL     1       8.388   7.826  18.575  0.00  0.00    +0.000 N 
ATOM      5  H   UNL     1       9.845   8.756  20.004  0.00  0.00    +0.000 HD
ATOM      6  H   UNL     1       9.231   7.263  18.528  0.00  0.00    +0.000 HD
ENDROOT
BRANCH   1  13
ATOM      7  C   UNL     1       8.588  15.278  24.173  0.00  0.00    +0.000 C 
ATOM      8  C   UNL     1       8.801  14.122  23.273  0.00  0.00    +0.000 A 
ATOM      9  O   UNL     1       9.766  14.277  22.329  0.00  0.00    +0.000 OA
ATOM     10  C   UNL     1       9.817  13.125  21.613  0.00  0.00    +0.000 A 
ATOM     11  C   UNL     1      10.721  12.868  20.590  0.00  0.00    +0.000 A 
ATOM     12  C   UNL     1      10.596  11.634  19.945  0.00  0.00    +0.000 A 
ATOM     13  C   UNL     1       9.578  10.718  20.268  0.00  0.00    +0.000 A 
ATOM     14  C   UNL     1       8.732  10.994  21.365  0.00  0.00    +0.000 A 
ATOM     15  C   UNL     1       8.855  12.224  22.058  0.00  0.00    +0.000 A 
ATOM     16  C   UNL     1       8.241  12.856  23.193  0.00  0.00    +0.000 A 
ATOM     17  C   UNL     1       7.237  12.295  24.131  0.00  0.00    +0.000 C 
ENDBRANCH   1  13
BRANCH   4  18
ATOM     18  C   UNL     1       7.215   7.149  18.015  0.00  0.00    +0.000 C 
ATOM     19  C   UNL     1       7.408   6.682  16.571  0.00  0.00    +0.000 C 
ATOM     20  C   UNL     1       6.084   6.735  15.806  0.00  0.00    +0.000 C 
ATOM     21  C   UNL     1       5.006   5.779  16.325  0.00  0.00    +0.000 C 
ATOM     22  C   UNL     1       4.615   5.946  17.798  0.00  0.00    +0.000 C 
ATOM     23  N   UNL     1       5.598   5.405  18.743  0.00  0.00    +0.000 N 
ATOM     24  C   UNL     1       6.883   5.918  18.875  0.00  0.00    +0.000 C 
ATOM     25  O   UNL     1       7.729   5.417  19.622  0.00  0.00    +0.000 OA
BRANCH  23  26
ATOM     26  C   UNL     1       5.203   4.259  19.576  0.00  0.00    +0.000 C 
BRANCH  26  27
ATOM     27  C   UNL     1       4.166   3.318  18.941  0.00  0.00    +0.000 C 
ATOM     28  O   UNL     1       4.454   2.530  18.040  0.00  0.00    +0.000 OA
ATOM     29  N   UNL     1       2.869   3.417  19.397  0.00  0.00    +0.000 N 
ATOM     30  C   UNL     1       2.332   4.306  20.409  0.00  0.00    +0.000 C 
ATOM     31  C   UNL     1       1.158   3.521  20.968  0.00  0.00    +0.000 C 
ATOM     32  C   UNL     1       0.620   2.766  19.756  0.00  0.00    +0.000 C 
ATOM     33  C   UNL     1       1.835   2.550  18.863  0.00  0.00    +0.000 C 
ENDBRANCH  26  27
ENDBRANCH  23  26
ENDBRANCH   4  18
BRANCH   3  34
ATOM     34  C   UNL     1       8.076  11.182  17.536  0.00  0.00    +0.000 C 
ATOM     35  N   UNL     1       8.322  12.310  17.426  0.00  0.00    +0.000 NA
ENDBRANCH   3  34
TORSDOF 5
ENDMDL
MODEL 2
REMARK VINA RESULT:      -7.6      2.548     10.215
REMARK  Name = 
REMARK  7 active torsions:
REMARK  status: ('A' for Active; 'I' for Inactive)
REMARK    1  A    between atoms: C_1  and  C_2
REMARK    2  A    between atoms: C_7  and  N_8
REMARK    3  A    between atoms: N_10  and  C_11
REMARK    4  A    between atoms: N_13  and  C_14
REMARK    5  A    between atoms: N_19  and  C_20
REMARK    6  A    between atoms: C_20  and  C_21
REMARK    7  A    between atoms: C_32  and  C_33
REMARK                            x       y       z     vdW  Elec       q    Type
REMARK                         _______ _______ _______ _____ _____    ______ ____
ROOT
ATOM      1  N   UNL     1       7.012   7.847  16.806  0.00  0.00    +0.000 N 
ATOM      2  C   UNL     1       7.868   8.382  17.736  0.00  0.00    +0.000 C 
ATOM      3  N   UNL     1       8.406   7.896  18.803  0.00  0.00    +0.000 NA
ATOM      4  N   UNL     1       8.188   9.664  17.356  0.00  0.00    +0.000 N 
ATOM      5  H   UNL     1       6.735   8.515  16.092  0.00  0.00    +0.000 HD
ATOM      6  H   UNL     1       8.467   9.817  16.392  0.00  0.00    +0.000 HD
ENDROOT
BRANCH   1  13
ATOM      7  C   UNL     1       1.221   3.730  19.115  0.00  0.00    +0.000 C 
ATOM      8  C   UNL     1       2.338   4.568  18.624  0.00  0.00    +0.000 A 
ATOM      9  O   UNL     1       3.102   4.019  17.644  0.00  0.00    +0.000 OA
ATOM     10  C   UNL     1       4.059   4.927  17.324  0.00  0.00    +0.000 A 
ATOM     11  C   UNL     1       5.004   4.762  16.319  0.00  0.00    +0.000 A 
ATOM     12  C   UNL     1       5.932   5.795  16.161  0.00  0.00    +0.000 A 
ATOM     13  C   UNL     1       5.954   6.920  17.006  0.00  0.00    +0.000 A 
ATOM     14  C   UNL     1       4.927   7.077  17.964  0.00  0.00    +0.000 A 
ATOM     15  C   UNL     1       3.954   6.060  18.125  0.00  0.00    +0.000 A 
ATOM     16  C   UNL     1       2.779   5.848  18.926  0.00  0.00    +0.000 A 
ATOM     17  C   UNL     1       2.122   6.788  19.868  0.00  0.00    +0.000 C 
ENDBRANCH   1  13
BRANCH   4  18
ATOM     18  C   UNL     1       8.771  10.639  18.282  0.00  0.00    +0.000 C 
ATOM     19  C   UNL     1      10.298  10.705  18.220  0.00  0.00    +0.000 C 
ATOM     20  C   UNL     1      10.879  11.049  19.594  0.00  0.00    +0.000 C 
ATOM     21  C   UNL     1      10.505  12.439  20.117  0.00  0.00    +0.000 C 
ATOM     22  C   UNL     1       9.004  12.726  20.242  0.00  0.00    +0.000 C 
ATOM     23  N   UNL     1       8.337  12.991  18.963  0.00  0.00    +0.000 N 
ATOM     24  C   UNL     1       8.219  12.038  17.959  0.00  0.00    +0.000 C 
ATOM     25  O   UNL     1       7.718  12.285  16.858  0.00  0.00    +0.000 OA
BRANCH  23  26
ATOM     26  C   UNL     1       7.783  14.335  18.734  0.00  0.00    +0.000 C 
BRANCH  26  27
ATOM     27  C   UNL     1       8.615  15.490  19.310  0.00  0.00    +0.000 C 
ATOM     28  O   UNL     1       8.247  16.148  20.284  0.00  0.00    +0.000 OA
ATOM     29  N   UNL     1       9.794  15.797  18.664  0.00  0.00    +0.000 N 
ATOM     30  C   UNL     1      10.368  15.173  17.488  0.00  0.00    +0.000 C 
ATOM     31  C   UNL     1      11.859  15.387  17.679  0.00  0.00    +0.000 C 
ATOM     32  C   UNL     1      11.942  16.749  18.365  0.00  0.00    +0.000 C 
ATOM     33  C   UNL     1      10.647  16.862  19.159  0.00  0.00    +0.000 C 
ENDBRANCH  26  27
ENDBRANCH  23  26
ENDBRANCH   4  18
BRANCH   3  34
ATOM     34  C   UNL     1       8.299   6.594  19.086  0.00  0.00    +0.000 C 
ATOM     35  N   UNL     1       8.141   5.467  19.311  0.00  0.00    +0.000 NA
ENDBRANCH   3  34
TORSDOF 5
ENDMDL
MODEL 3
REMARK VINA RESULT:      -7.6      0.972      1.227
REMARK  Name = 
REMARK  7 active torsions:
REMARK  status: ('A' for Active; 'I' for Inactive)
REMARK    1  A    between atoms: C_1  and  C_2
REMARK    2  A    between atoms: C_7  and  N_8
REMARK    3  A    between atoms: N_10  and  C_11
REMARK    4  A    between atoms: N_13  and  C_14
REMARK    5  A    between atoms: N_19  and  C_20
REMARK    6  A    between atoms: C_20  and  C_21
REMARK    7  A    between atoms: C_32  and  C_33
REMARK                            x       y       z     vdW  Elec       q    Type
REMARK                         _______ _______ _______ _____ _____    ______ ____
ROOT
ATOM      1  N   UNL     1       9.433   9.372  19.127  0.00  0.00    +0.000 N 
ATOM      2  C   UNL     1       8.390   9.013  18.310  0.00  0.00    +0.000 C 
ATOM      3  N   UNL     1       7.571   9.703  17.591  0.00  0.00    +0.000 NA
ATOM      4  N   UNL     1       8.302   7.641  18.283  0.00  0.00    +0.000 N 
ATOM      5  H   UNL     1       9.862   8.578  19.593  0.00  0.00    +0.000 HD
ATOM      6  H   UNL     1       9.157   7.114  18.129  0.00  0.00    +0.000 HD
ENDROOT
BRANCH   1  13
ATOM      7  C   UNL     1       8.774  14.913  24.095  0.00  0.00    +0.000 C 
ATOM      8  C   UNL     1       8.940  13.794  23.140  0.00  0.00    +0.000 A 
ATOM      9  O   UNL     1       9.823  14.006  22.129  0.00  0.00    +0.000 OA
ATOM     10  C   UNL     1       9.843  12.881  21.370  0.00  0.00    +0.000 A 
ATOM     11  C   UNL     1      10.668  12.682  20.270  0.00  0.00    +0.000 A 
ATOM     12  C   UNL     1      10.519  11.468  19.592  0.00  0.00    +0.000 A 
ATOM     13  C   UNL     1       9.550  10.517  19.960  0.00  0.00    +0.000 A 
ATOM     14  C   UNL     1       8.788  10.733  21.130  0.00  0.00    +0.000 A 
ATOM     15  C   UNL     1       8.939  11.941  21.855  0.00  0.00    +0.000 A 
ATOM     16  C   UNL     1       8.403  12.518  23.058  0.00  0.00    +0.000 A 
ATOM     17  C   UNL     1       7.489  11.900  24.050  0.00  0.00    +0.000 C 
ENDBRANCH   1  13
BRANCH   4  18
ATOM     18  C   UNL     1       7.104   6.936  17.818  0.00  0.00    +0.000 C 
ATOM     19  C   UNL     1       7.336   6.099  16.559  0.00  0.00    +0.000 C 
ATOM     20  C   UNL     1       6.069   6.056  15.700  0.00  0.00    +0.000 C 
ATOM     21  C   UNL     1       4.876   5.354  16.354  0.00  0.00    +0.000 C 
ATOM     22  C   UNL     1       4.417   5.925  17.701  0.00  0.00    +0.000 C 
ATOM     23  N   UNL     1       5.286   5.571  18.828  0.00  0.00    +0.000 N 
ATOM     24  C   UNL     1       6.605   5.997  18.931  0.00  0.00    +0.000 C 
ATOM     25  O   UNL     1       7.354   5.641  19.845  0.00  0.00    +0.000 OA
BRANCH  23  26
ATOM     26  C   UNL     1       4.735   4.712  19.887  0.00  0.00    +0.000 C 
BRANCH  26  27
ATOM     27  C   UNL     1       3.202   4.718  19.999  0.00  0.00    +0.000 C 
ATOM     28  O   UNL     1       2.580   5.651  20.509  0.00  0.00    +0.000 OA
ATOM     29  N   UNL     1       2.536   3.604  19.535  0.00  0.00    +0.000 N 
ATOM     30  C   UNL     1       3.090   2.399  18.948  0.00  0.00    +0.000 C 
ATOM     31  C   UNL     1       1.977   1.921  18.031  0.00  0.00    +0.000 C 
ATOM     32  C   UNL     1       0.703   2.307  18.779  0.00  0.00    +0.000 C 
ATOM     33  C   UNL     1       1.087   3.541  19.586  0.00  0.00    +0.000 C 
ENDBRANCH  26  27
ENDBRANCH  23  26
ENDBRANCH   4  18
BRANCH   3  34
ATOM     34  C   UNL     1       7.760  11.015  17.415  0.00  0.00    +0.000 C 
ATOM     35  N   UNL     1       7.873  12.152  17.215  0.00  0.00    +0.000 NA
ENDBRANCH   3  34
TORSDOF 5
ENDMDL
MODEL 4
REMARK VINA RESULT:      -7.5      2.931      9.326
REMARK  Name = 
REMARK  7 active torsions:
REMARK  status: ('A' for Active; 'I' for Inactive)
REMARK    1  A    between atoms: C_1  and  C_2
REMARK    2  A    between atoms: C_7  and  N_8
REMARK    3  A    between atoms: N_10  and  C_11
REMARK    4  A    between atoms: N_13  and  C_14
REMARK    5  A    between atoms: N_19  and  C_20
REMARK    6  A    between atoms: C_20  and  C_21
REMARK    7  A    between atoms: C_32  and  C_33
REMARK                            x       y       z     vdW  Elec       q    Type
REMARK                         _______ _______ _______ _____ _____    ______ ____
ROOT
ATOM      1  N   UNL     1       7.029   7.930  16.846  0.00  0.00    +0.000 N 
ATOM      2  C   UNL     1       7.889   8.445  17.785  0.00  0.00    +0.000 C 
ATOM      3  N   UNL     1       8.429   7.936  18.840  0.00  0.00    +0.000 NA
ATOM      4  N   UNL     1       8.210   9.734  17.430  0.00  0.00    +0.000 N 
ATOM      5  H   UNL     1       6.752   8.614  16.147  0.00  0.00    +0.000 HD
ATOM      6  H   UNL     1       8.487   9.906  16.468  0.00  0.00    +0.000 HD
ENDROOT
BRANCH   1  13
ATOM      7  C   UNL     1       1.225   3.791  19.082  0.00  0.00    +0.000 C 
ATOM      8  C   UNL     1       2.345   4.634  18.606  0.00  0.00    +0.000 A 
ATOM      9  O   UNL     1       3.113   4.096  17.621  0.00  0.00    +0.000 OA
ATOM     10  C   UNL     1       4.071   5.007  17.317  0.00  0.00    +0.000 A 
ATOM     11  C   UNL     1       5.020   4.854  16.314  0.00  0.00    +0.000 A 
ATOM     12  C   UNL     1       5.950   5.888  16.173  0.00  0.00    +0.000 A 
ATOM     13  C   UNL     1       5.969   7.002  17.031  0.00  0.00    +0.000 A 
ATOM     14  C   UNL     1       4.939   7.148  17.986  0.00  0.00    +0.000 A 
ATOM     15  C   UNL     1       3.964   6.130  18.131  0.00  0.00    +0.000 A 
ATOM     16  C   UNL     1       2.786   5.909  18.925  0.00  0.00    +0.000 A 
ATOM     17  C   UNL     1       2.126   6.838  19.876  0.00  0.00    +0.000 C 
ENDBRANCH   1  13
BRANCH   4  18
ATOM     18  C   UNL     1       8.799  10.688  18.374  0.00  0.00    +0.000 C 
ATOM     19  C   UNL     1      10.327  10.726  18.333  0.00  0.00    +0.000 C 
ATOM     20  C   UNL     1      10.895  11.045  19.718  0.00  0.00    +0.000 C 
ATOM     21  C   UNL     1      10.540  12.436  20.251  0.00  0.00    +0.000 C 
ATOM     22  C   UNL     1       9.043  12.751  20.359  0.00  0.00    +0.000 C 
ATOM     23  N   UNL     1       8.399  13.041  19.074  0.00  0.00    +0.000 N 
ATOM     24  C   UNL     1       8.277  12.100  18.058  0.00  0.00    +0.000 C 
ATOM     25  O   UNL     1       7.796  12.368  16.953  0.00  0.00    +0.000 OA
BRANCH  23  26
ATOM     26  C   UNL     1       7.873  14.397  18.851  0.00  0.00    +0.000 C 
BRANCH  26  27
ATOM     27  C   UNL     1       6.712  14.804  19.772  0.00  0.00    +0.000 C 
ATOM     28  O   UNL     1       6.865  15.010  20.976  0.00  0.00    +0.000 OA
ATOM     29  N   UNL     1       5.461  14.896  19.199  0.00  0.00    +0.000 N 
ATOM     30  C   UNL     1       5.077  14.651  17.822  0.00  0.00    +0.000 C 
ATOM     31  C   UNL     1       3.869  15.553  17.637  0.00  0.00    +0.000 C 
ATOM     32  C   UNL     1       3.185  15.524  19.002  0.00  0.00    +0.000 C 
ATOM     33  C   UNL     1       4.316  15.295  19.997  0.00  0.00    +0.000 C 
ENDBRANCH  26  27
ENDBRANCH  23  26
ENDBRANCH   4  18
BRANCH   3  34
ATOM     34  C   UNL     1       8.320   6.628  19.097  0.00  0.00    +0.000 C 
ATOM     35  N   UNL     1       8.198   5.511  19.381  0.00  0.00    +0.000 NA
ENDBRANCH   3  34
TORSDOF 5
ENDMDL
MODEL 5
REMARK VINA RESULT:      -7.4      5.242      6.264
REMARK  Name = 
REMARK  7 active torsions:
REMARK  status: ('A' for Active; 'I' for Inactive)
REMARK    1  A    between atoms: C_1  and  C_2
REMARK    2  A    between atoms: C_7  and  N_8
REMARK    3  A    between atoms: N_10  and  C_11
REMARK    4  A    between atoms: N_13  and  C_14
REMARK    5  A    between atoms: N_19  and  C_20
REMARK    6  A    between atoms: C_20  and  C_21
REMARK    7  A    between atoms: C_32  and  C_33
REMARK                            x       y       z     vdW  Elec       q    Type
REMARK                         _______ _______ _______ _____ _____    ______ ____
ROOT
ATOM      1  N   UNL     1       2.242  13.349  17.886  0.00  0.00    +0.000 N 
ATOM      2  C   UNL     1       1.692  12.574  18.878  0.00  0.00    +0.000 C 
ATOM      3  N   UNL     1       1.355  12.833  20.096  0.00  0.00    +0.000 NA
ATOM      4  N   UNL     1       1.453  11.317  18.376  0.00  0.00    +0.000 N 
ATOM      5  H   UNL     1       2.428  12.827  17.035  0.00  0.00    +0.000 HD
ATOM      6  H   UNL     1       0.982  11.247  17.478  0.00  0.00    +0.000 HD
ENDROOT
BRANCH   1  13
ATOM      7  C   UNL     1       8.131  17.785  19.090  0.00  0.00    +0.000 C 
ATOM      8  C   UNL     1       6.975  16.906  18.802  0.00  0.00    +0.000 A 
ATOM      9  O   UNL     1       5.792  17.537  18.584  0.00  0.00    +0.000 OA
ATOM     10  C   UNL     1       4.864  16.578  18.335  0.00  0.00    +0.000 A 
ATOM     11  C   UNL     1       3.538  16.826  18.006  0.00  0.00    +0.000 A 
ATOM     12  C   UNL     1       2.724  15.705  17.818  0.00  0.00    +0.000 A 
ATOM     13  C   UNL     1       3.197  14.394  18.007  0.00  0.00    +0.000 A 
ATOM     14  C   UNL     1       4.570  14.193  18.267  0.00  0.00    +0.000 A 
ATOM     15  C   UNL     1       5.427  15.310  18.432  0.00  0.00    +0.000 A 
ATOM     16  C   UNL     1       6.827  15.534  18.667  0.00  0.00    +0.000 A 
ATOM     17  C   UNL     1       7.924  14.536  18.729  0.00  0.00    +0.000 C 
ENDBRANCH   1  13
BRANCH   4  18
ATOM     18  C   UNL     1       1.218  10.155  19.237  0.00  0.00    +0.000 C 
ATOM     19  C   UNL     1      -0.262   9.817  19.420  0.00  0.00    +0.000 C 
ATOM     20  C   UNL     1      -0.511   9.222  20.808  0.00  0.00    +0.000 C 
ATOM     21  C   UNL     1       0.173   7.875  21.059  0.00  0.00    +0.000 C 
ATOM     22  C   UNL     1       1.696   7.855  20.891  0.00  0.00    +0.000 C 
ATOM     23  N   UNL     1       2.144   7.861  19.494  0.00  0.00    +0.000 N 
ATOM     24  C   UNL     1       1.917   8.926  18.631  0.00  0.00    +0.000 C 
ATOM     25  O   UNL     1       2.235   8.899  17.438  0.00  0.00    +0.000 OA
BRANCH  23  26
ATOM     26  C   UNL     1       2.854   6.676  18.987  0.00  0.00    +0.000 C 
BRANCH  26  27
ATOM     27  C   UNL     1       1.967   5.450  18.719  0.00  0.00    +0.000 C 
ATOM     28  O   UNL     1       1.404   5.266  17.639  0.00  0.00    +0.000 OA
ATOM     29  N   UNL     1       1.788   4.567  19.762  0.00  0.00    +0.000 N 
ATOM     30  C   UNL     1       2.326   4.635  21.106  0.00  0.00    +0.000 C 
ATOM     31  C   UNL     1       2.417   3.174  21.514  0.00  0.00    +0.000 C 
ATOM     32  C   UNL     1       1.210   2.535  20.833  0.00  0.00    +0.000 C 
ATOM     33  C   UNL     1       0.981   3.374  19.582  0.00  0.00    +0.000 C 
ENDBRANCH  26  27
ENDBRANCH  23  26
ENDBRANCH   4  18
BRANCH   3  34
ATOM     34  C   UNL     1       1.364  14.090  20.553  0.00  0.00    +0.000 C 
ATOM     35  N   UNL     1       1.420  15.161  20.994  0.00  0.00    +0.000 NA
ENDBRANCH   3  34
TORSDOF 5
ENDMDL
MODEL 6
REMARK VINA RESULT:      -7.3      2.697     10.185
REMARK  Name = 
REMARK  7 active torsions:
REMARK  status: ('A' for Active; 'I' for Inactive)
REMARK    1  A    between atoms: C_1  and  C_2
REMARK    2  A    between atoms: C_7  and  N_8
REMARK    3  A    between atoms: N_10  and  C_11
REMARK    4  A    between atoms: N_13  and  C_14
REMARK    5  A    between atoms: N_19  and  C_20
REMARK    6  A    between atoms: C_20  and  C_21
REMARK    7  A    between atoms: C_32  and  C_33
REMARK                            x       y       z     vdW  Elec       q    Type
REMARK                         _______ _______ _______ _____ _____    ______ ____
ROOT
ATOM      1  N   UNL     1       7.111   7.879  16.823  0.00  0.00    +0.000 N 
ATOM      2  C   UNL     1       7.944   8.409  17.778  0.00  0.00    +0.000 C 
ATOM      3  N   UNL     1       8.443   7.920  18.863  0.00  0.00    +0.000 NA
ATOM      4  N   UNL     1       8.289   9.686  17.404  0.00  0.00    +0.000 N 
ATOM      5  H   UNL     1       6.865   8.548  16.099  0.00  0.00    +0.000 HD
ATOM      6  H   UNL     1       8.601   9.832  16.448  0.00  0.00    +0.000 HD
ENDROOT
BRANCH   1  13
ATOM      7  C   UNL     1       1.231   3.810  18.986  0.00  0.00    +0.000 C 
ATOM      8  C   UNL     1       2.367   4.639  18.524  0.00  0.00    +0.000 A 
ATOM      9  O   UNL     1       3.135   4.097  17.543  0.00  0.00    +0.000 OA
ATOM     10  C   UNL     1       4.109   4.996  17.252  0.00  0.00    +0.000 A 
ATOM     11  C   UNL     1       5.064   4.834  16.256  0.00  0.00    +0.000 A 
ATOM     12  C   UNL     1       6.009   5.856  16.129  0.00  0.00    +0.000 A 
ATOM     13  C   UNL     1       6.037   6.965  16.994  0.00  0.00    +0.000 A 
ATOM     14  C   UNL     1       5.001   7.120  17.941  0.00  0.00    +0.000 A 
ATOM     15  C   UNL     1       4.010   6.115  18.072  0.00  0.00    +0.000 A 
ATOM     16  C   UNL     1       2.822   5.907  18.854  0.00  0.00    +0.000 A 
ATOM     17  C   UNL     1       2.168   6.839  19.805  0.00  0.00    +0.000 C 
ENDBRANCH   1  13
BRANCH   4  18
ATOM     18  C   UNL     1       8.855  10.657  18.344  0.00  0.00    +0.000 C 
ATOM     19  C   UNL     1      10.380  10.754  18.282  0.00  0.00    +0.000 C 
ATOM     20  C   UNL     1      10.955  11.089  19.660  0.00  0.00    +0.000 C 
ATOM     21  C   UNL     1      10.555  12.462  20.206  0.00  0.00    +0.000 C 
ATOM     22  C   UNL     1       9.049  12.718  20.337  0.00  0.00    +0.000 C 
ATOM     23  N   UNL     1       8.375  12.990  19.062  0.00  0.00    +0.000 N 
ATOM     24  C   UNL     1       8.274  12.050  18.044  0.00  0.00    +0.000 C 
ATOM     25  O   UNL     1       7.767  12.304  16.947  0.00  0.00    +0.000 OA
BRANCH  23  26
ATOM     26  C   UNL     1       7.794  14.325  18.854  0.00  0.00    +0.000 C 
BRANCH  26  27
ATOM     27  C   UNL     1       8.814  15.452  18.627  0.00  0.00    +0.000 C 
ATOM     28  O   UNL     1       9.534  15.500  17.629  0.00  0.00    +0.000 OA
ATOM     29  N   UNL     1       8.926  16.404  19.617  0.00  0.00    +0.000 N 
ATOM     30  C   UNL     1       8.206  16.493  20.872  0.00  0.00    +0.000 C 
ATOM     31  C   UNL     1       8.189  17.985  21.154  0.00  0.00    +0.000 C 
ATOM     32  C   UNL     1       9.530  18.470  20.608  0.00  0.00    +0.000 C 
ATOM     33  C   UNL     1       9.853  17.512  19.468  0.00  0.00    +0.000 C 
ENDBRANCH  26  27
ENDBRANCH  23  26
ENDBRANCH   4  18
BRANCH   3  34
ATOM     34  C   UNL     1       8.313   6.620  19.148  0.00  0.00    +0.000 C 
ATOM     35  N   UNL     1       8.136   5.506  19.416  0.00  0.00    +0.000 NA
ENDBRANCH   3  34
TORSDOF 5
ENDMDL
MODEL 7
REMARK VINA RESULT:      -7.3      5.144      6.974
REMARK  Name = 
REMARK  7 active torsions:
REMARK  status: ('A' for Active; 'I' for Inactive)
REMARK    1  A    between atoms: C_1  and  C_2
REMARK    2  A    between atoms: C_7  and  N_8
REMARK    3  A    between atoms: N_10  and  C_11
REMARK    4  A    between atoms: N_13  and  C_14
REMARK    5  A    between atoms: N_19  and  C_20
REMARK    6  A    between atoms: C_20  and  C_21
REMARK    7  A    between atoms: C_32  and  C_33
REMARK                            x       y       z     vdW  Elec       q    Type
REMARK                         _______ _______ _______ _____ _____    ______ ____
ROOT
ATOM      1  N   UNL     1       0.771   9.896  18.300  0.00  0.00    +0.000 N 
ATOM      2  C   UNL     1       1.326   8.849  18.992  0.00  0.00    +0.000 C 
ATOM      3  N   UNL     1       1.570   8.669  20.246  0.00  0.00    +0.000 NA
ATOM      4  N   UNL     1       1.604   7.833  18.109  0.00  0.00    +0.000 N 
ATOM      5  H   UNL     1       0.754   9.742  17.296  0.00  0.00    +0.000 HD
ATOM      6  H   UNL     1       0.878   7.563  17.453  0.00  0.00    +0.000 HD
ENDROOT
BRANCH   1  13
ATOM      7  C   UNL     1       2.884  16.951  19.559  0.00  0.00    +0.000 C 
ATOM      8  C   UNL     1       2.454  15.566  19.262  0.00  0.00    +0.000 A 
ATOM      9  O   UNL     1       1.163  15.270  19.568  0.00  0.00    +0.000 OA
ATOM     10  C   UNL     1       0.955  13.973  19.224  0.00  0.00    +0.000 A 
ATOM     11  C   UNL     1      -0.262  13.311  19.328  0.00  0.00    +0.000 A 
ATOM     12  C   UNL     1      -0.270  11.964  18.955  0.00  0.00    +0.000 A 
ATOM     13  C   UNL     1       0.896  11.289  18.551  0.00  0.00    +0.000 A 
ATOM     14  C   UNL     1       2.091  12.025  18.391  0.00  0.00    +0.000 A 
ATOM     15  C   UNL     1       2.123  13.400  18.731  0.00  0.00    +0.000 A 
ATOM     16  C   UNL     1       3.082  14.470  18.691  0.00  0.00    +0.000 A 
ATOM     17  C   UNL     1       4.458  14.456  18.134  0.00  0.00    +0.000 C 
ENDBRANCH   1  13
BRANCH   4  18
ATOM     18  C   UNL     1       2.518   6.734  18.434  0.00  0.00    +0.000 C 
ATOM     19  C   UNL     1       2.025   5.366  17.958  0.00  0.00    +0.000 C 
ATOM     20  C   UNL     1       2.490   4.264  18.913  0.00  0.00    +0.000 C 
ATOM     21  C   UNL     1       4.007   4.069  18.975  0.00  0.00    +0.000 C 
ATOM     22  C   UNL     1       4.825   5.303  19.373  0.00  0.00    +0.000 C 
ATOM     23  N   UNL     1       4.963   6.299  18.305  0.00  0.00    +0.000 N 
ATOM     24  C   UNL     1       3.885   7.002  17.782  0.00  0.00    +0.000 C 
ATOM     25  O   UNL     1       3.995   7.789  16.837  0.00  0.00    +0.000 OA
BRANCH  23  26
ATOM     26  C   UNL     1       6.306   6.549  17.757  0.00  0.00    +0.000 C 
BRANCH  26  27
ATOM     27  C   UNL     1       6.967   5.341  17.076  0.00  0.00    +0.000 C 
ATOM     28  O   UNL     1       7.865   4.690  17.611  0.00  0.00    +0.000 OA
ATOM     29  N   UNL     1       6.539   5.028  15.803  0.00  0.00    +0.000 N 
ATOM     30  C   UNL     1       5.536   5.696  14.997  0.00  0.00    +0.000 C 
ATOM     31  C   UNL     1       5.005   4.580  14.114  0.00  0.00    +0.000 C 
ATOM     32  C   UNL     1       6.233   3.708  13.860  0.00  0.00    +0.000 C 
ATOM     33  C   UNL     1       7.100   3.889  15.099  0.00  0.00    +0.000 C 
ENDBRANCH  26  27
ENDBRANCH  23  26
ENDBRANCH   4  18
BRANCH   3  34
ATOM     34  C   UNL     1       1.116   9.533  21.160  0.00  0.00    +0.000 C 
ATOM     35  N   UNL     1       0.777  10.268  21.990  0.00  0.00    +0.000 NA
ENDBRANCH   3  34
TORSDOF 5
ENDMDL
MODEL 8
REMARK VINA RESULT:      -7.2      5.079      6.157
REMARK  Name = 
REMARK  7 active torsions:
REMARK  status: ('A' for Active; 'I' for Inactive)
REMARK    1  A    between atoms: C_1  and  C_2
REMARK    2  A    between atoms: C_7  and  N_8
REMARK    3  A    between atoms: N_10  and  C_11
REMARK    4  A    between atoms: N_13  and  C_14
REMARK    5  A    between atoms: N_19  and  C_20
REMARK    6  A    between atoms: C_20  and  C_21
REMARK    7  A    between atoms: C_32  and  C_33
REMARK                            x       y       z     vdW  Elec       q    Type
REMARK                         _______ _______ _______ _____ _____    ______ ____
ROOT
ATOM      1  N   UNL     1       2.451  13.406  17.996  0.00  0.00    +0.000 N 
ATOM      2  C   UNL     1       1.997  12.543  18.962  0.00  0.00    +0.000 C 
ATOM      3  N   UNL     1       1.765  12.693  20.222  0.00  0.00    +0.000 NA
ATOM      4  N   UNL     1       1.727  11.328  18.377  0.00  0.00    +0.000 N 
ATOM      5  H   UNL     1       2.568  12.961  17.090  0.00  0.00    +0.000 HD
ATOM      6  H   UNL     1       1.180  11.326  17.521  0.00  0.00    +0.000 HD
ENDROOT
BRANCH   1  13
ATOM      7  C   UNL     1       8.377  17.826  19.080  0.00  0.00    +0.000 C 
ATOM      8  C   UNL     1       7.210  16.954  18.816  0.00  0.00    +0.000 A 
ATOM      9  O   UNL     1       6.008  17.583  18.737  0.00  0.00    +0.000 OA
ATOM     10  C   UNL     1       5.072  16.631  18.487  0.00  0.00    +0.000 A 
ATOM     11  C   UNL     1       3.722  16.883  18.279  0.00  0.00    +0.000 A 
ATOM     12  C   UNL     1       2.906  15.768  18.070  0.00  0.00    +0.000 A 
ATOM     13  C   UNL     1       3.404  14.453  18.122  0.00  0.00    +0.000 A 
ATOM     14  C   UNL     1       4.795  14.254  18.261  0.00  0.00    +0.000 A 
ATOM     15  C   UNL     1       5.652  15.367  18.444  0.00  0.00    +0.000 A 
ATOM     16  C   UNL     1       7.064  15.594  18.589  0.00  0.00    +0.000 A 
ATOM     17  C   UNL     1       8.171  14.611  18.490  0.00  0.00    +0.000 C 
ENDBRANCH   1  13
BRANCH   4  18
ATOM     18  C   UNL     1       1.578  10.094  19.154  0.00  0.00    +0.000 C 
ATOM     19  C   UNL     1       0.184   9.913  19.755  0.00  0.00    +0.000 C 
ATOM     20  C   UNL     1       0.265   9.165  21.088  0.00  0.00    +0.000 C 
ATOM     21  C   UNL     1       0.775   7.725  20.984  0.00  0.00    +0.000 C 
ATOM     22  C   UNL     1       2.159   7.548  20.350  0.00  0.00    +0.000 C 
ATOM     23  N   UNL     1       2.172   7.693  18.891  0.00  0.00    +0.000 N 
ATOM     24  C   UNL     1       1.869   8.886  18.246  0.00  0.00    +0.000 C 
ATOM     25  O   UNL     1       1.814   8.988  17.017  0.00  0.00    +0.000 OA
BRANCH  23  26
ATOM     26  C   UNL     1       2.509   6.515  18.078  0.00  0.00    +0.000 C 
BRANCH  26  27
ATOM     27  C   UNL     1       3.451   5.505  18.753  0.00  0.00    +0.000 C 
ATOM     28  O   UNL     1       4.416   5.854  19.432  0.00  0.00    +0.000 OA
ATOM     29  N   UNL     1       3.195   4.168  18.535  0.00  0.00    +0.000 N 
ATOM     30  C   UNL     1       2.144   3.567  17.738  0.00  0.00    +0.000 C 
ATOM     31  C   UNL     1       1.919   2.228  18.419  0.00  0.00    +0.000 C 
ATOM     32  C   UNL     1       3.312   1.830  18.899  0.00  0.00    +0.000 C 
ATOM     33  C   UNL     1       4.026   3.152  19.154  0.00  0.00    +0.000 C 
ENDBRANCH  26  27
ENDBRANCH  23  26
ENDBRANCH   4  18
BRANCH   3  34
ATOM     34  C   UNL     1       1.801  13.907  20.781  0.00  0.00    +0.000 C 
ATOM     35  N   UNL     1       1.805  14.933  21.322  0.00  0.00    +0.000 NA
ENDBRANCH   3  34
TORSDOF 5
ENDMDL
MODEL 9
REMARK VINA RESULT:      -7.1      5.423      7.181
REMARK  Name = 
REMARK  7 active torsions:
REMARK  status: ('A' for Active; 'I' for Inactive)
REMARK    1  A    between atoms: C_1  and  C_2
REMARK    2  A    between atoms: C_7  and  N_8
REMARK    3  A    between atoms: N_10  and  C_11
REMARK    4  A    between atoms: N_13  and  C_14
REMARK    5  A    between atoms: N_19  and  C_20
REMARK    6  A    between atoms: C_20  and  C_21
REMARK    7  A    between atoms: C_32  and  C_33
REMARK                            x       y       z     vdW  Elec       q    Type
REMARK                         _______ _______ _______ _____ _____    ______ ____
ROOT
ATOM      1  N   UNL     1       0.842   9.333  18.412  0.00  0.00    +0.000 N 
ATOM      2  C   UNL     1       1.461   8.304  19.076  0.00  0.00    +0.000 C 
ATOM      3  N   UNL     1       1.814   8.153  20.308  0.00  0.00    +0.000 NA
ATOM      4  N   UNL     1       1.667   7.269  18.195  0.00  0.00    +0.000 N 
ATOM      5  H   UNL     1       0.739   9.156  17.416  0.00  0.00    +0.000 HD
ATOM      6  H   UNL     1       0.887   6.982  17.610  0.00  0.00    +0.000 HD
ENDROOT
BRANCH   1  13
ATOM      7  C   UNL     1       0.102  16.654  19.702  0.00  0.00    +0.000 C 
ATOM      8  C   UNL     1       0.267  15.199  19.493  0.00  0.00    +0.000 A 
ATOM      9  O   UNL     1       1.439  14.812  18.923  0.00  0.00    +0.000 OA
ATOM     10  C   UNL     1       1.408  13.459  18.819  0.00  0.00    +0.000 A 
ATOM     11  C   UNL     1       2.452  12.678  18.338  0.00  0.00    +0.000 A 
ATOM     12  C   UNL     1       2.220  11.301  18.275  0.00  0.00    +0.000 A 
ATOM     13  C   UNL     1       0.981  10.732  18.621  0.00  0.00    +0.000 A 
ATOM     14  C   UNL     1      -0.022  11.559  19.174  0.00  0.00    +0.000 A 
ATOM     15  C   UNL     1       0.197  12.955  19.280  0.00  0.00    +0.000 A 
ATOM     16  C   UNL     1      -0.518  14.094  19.787  0.00  0.00    +0.000 A 
ATOM     17  C   UNL     1      -1.814  14.123  20.510  0.00  0.00    +0.000 C 
ENDBRANCH   1  13
BRANCH   4  18
ATOM     18  C   UNL     1       2.611   6.180  18.463  0.00  0.00    +0.000 C 
ATOM     19  C   UNL     1       2.184   4.838  17.867  0.00  0.00    +0.000 C 
ATOM     20  C   UNL     1       2.661   3.681  18.748  0.00  0.00    +0.000 C 
ATOM     21  C   UNL     1       4.182   3.535  18.845  0.00  0.00    +0.000 C 
ATOM     22  C   UNL     1       4.942   4.762  19.363  0.00  0.00    +0.000 C 
ATOM     23  N   UNL     1       5.074   5.843  18.380  0.00  0.00    +0.000 N 
ATOM     24  C   UNL     1       3.986   6.547  17.878  0.00  0.00    +0.000 C 
ATOM     25  O   UNL     1       4.094   7.409  17.000  0.00  0.00    +0.000 OA
BRANCH  23  26
ATOM     26  C   UNL     1       6.421   6.182  17.897  0.00  0.00    +0.000 C 
BRANCH  26  27
ATOM     27  C   UNL     1       7.097   5.102  17.037  0.00  0.00    +0.000 C 
ATOM     28  O   UNL     1       8.054   4.440  17.439  0.00  0.00    +0.000 OA
ATOM     29  N   UNL     1       6.609   4.923  15.760  0.00  0.00    +0.000 N 
ATOM     30  C   UNL     1       5.529   5.628  15.098  0.00  0.00    +0.000 C 
ATOM     31  C   UNL     1       5.000   4.599  14.113  0.00  0.00    +0.000 C 
ATOM     32  C   UNL     1       6.249   3.832  13.688  0.00  0.00    +0.000 C 
ATOM     33  C   UNL     1       7.180   3.908  14.893  0.00  0.00    +0.000 C 
ENDBRANCH  26  27
ENDBRANCH  23  26
ENDBRANCH   4  18
BRANCH   3  34
ATOM     34  C   UNL     1       1.436   9.036  21.238  0.00  0.00    +0.000 C 
ATOM     35  N   UNL     1       1.174   9.806  22.064  0.00  0.00    +0.000 NA
ENDBRANCH   3  34
TORSDOF 5
ENDMDL
