MODEL 1
REMARK VINA RESULT:      -6.3      0.000      0.000
REMARK  Name = 
REMARK  3 active torsions:
REMARK  status: ('A' for Active; 'I' for Inactive)
REMARK    1  A    between atoms: C_2  and  C_3
REMARK    2  A    between atoms: C_11  and  C_12
REMARK    3  A    between atoms: C_12  and  O_13
REMARK                            x       y       z     vdW  Elec       q    Type
REMARK                         _______ _______ _______ _____ _____    ______ ____
ROOT
ATOM      1  O   UNL     1       8.140   4.429  17.764  0.00  0.00    +0.000 OA
ATOM      2  C   UNL     1       7.081   4.671  17.191  0.00  0.00    +0.000 C 
ATOM      3  N   UNL     1       5.950   5.074  17.869  0.00  0.00    +0.000 N 
ATOM      4  C   UNL     1       5.762   5.220  19.302  0.00  0.00    +0.000 C 
ATOM      5  C   UNL     1       4.427   4.474  19.130  0.00  0.00    +0.000 C 
ATOM      6  C   UNL     1       4.555   4.723  17.620  0.00  0.00    +0.000 C 
ENDROOT
BRANCH   2   7
ATOM      7  C   UNL     1       6.937   4.561  15.751  0.00  0.00    +0.000 A 
ATOM      8  C   UNL     1       6.068   3.799  14.983  0.00  0.00    +0.000 A 
ATOM      9  C   UNL     1       6.334   4.057  13.623  0.00  0.00    +0.000 A 
ATOM     10 CL   UNL     1       5.527   3.330  12.322  0.00  0.00    +0.000 Cl
ATOM     11  C   UNL     1       7.339   4.991  13.572  0.00  0.00    +0.000 A 
ATOM     12  N   UNL     1       7.678   5.313  14.861  0.00  0.00    +0.000 N 
ATOM     13  H   UNL     1       8.378   5.991  15.139  0.00  0.00    +0.000 HD
ENDBRANCH   2   7
BRANCH   5  14
ATOM     14  C   UNL     1       4.465   3.019  19.568  0.00  0.00    +0.000 C 
BRANCH  14  15
ATOM     15  O   UNL     1       3.344   2.753  20.404  0.00  0.00    +0.000 OA
ATOM     16  H   UNL     1       3.010   3.608  20.728  0.00  0.00    +0.000 HD
ENDBRANCH  14  15
ENDBRANCH   5  14
TORSDOF 3
ENDMDL
MODEL 2
REMARK VINA RESULT:      -6.1      3.309      3.945
REMARK  Name = 
REMARK  3 active torsions:
REMARK  status: ('A' for Active; 'I' for Inactive)
REMARK    1  A    between atoms: C_2  and  C_3
REMARK    2  A    between atoms: C_11  and  C_12
REMARK    3  A    between atoms: C_12  and  O_13
REMARK                            x       y       z     vdW  Elec       q    Type
REMARK                         _______ _______ _______ _____ _____    ______ ____
ROOT
ATOM      1  O   UNL     1       4.136   3.855  16.079  0.00  0.00    +0.000 OA
ATOM      2  C   UNL     1       4.623   3.865  17.207  0.00  0.00    +0.000 C 
ATOM      3  N   UNL     1       4.160   3.049  18.217  0.00  0.00    +0.000 N 
ATOM      4  C   UNL     1       3.040   2.125  18.189  0.00  0.00    +0.000 C 
ATOM      5  C   UNL     1       2.615   2.710  19.548  0.00  0.00    +0.000 C 
ATOM      6  C   UNL     1       4.013   3.342  19.640  0.00  0.00    +0.000 C 
ENDROOT
BRANCH   2   7
ATOM      7  C   UNL     1       5.732   4.730  17.564  0.00  0.00    +0.000 A 
ATOM      8  C   UNL     1       5.943   6.080  17.316  0.00  0.00    +0.000 A 
ATOM      9  C   UNL     1       7.183   6.445  17.880  0.00  0.00    +0.000 A 
ATOM     10 CL   UNL     1       7.863   7.996  17.804  0.00  0.00    +0.000 Cl
ATOM     11  C   UNL     1       7.703   5.328  18.486  0.00  0.00    +0.000 A 
ATOM     12  N   UNL     1       6.807   4.304  18.317  0.00  0.00    +0.000 N 
ATOM     13  H   UNL     1       6.910   3.361  18.674  0.00  0.00    +0.000 HD
ENDBRANCH   2   7
BRANCH   5  14
ATOM     14  C   UNL     1       1.451   3.683  19.471  0.00  0.00    +0.000 C 
BRANCH  14  15
ATOM     15  O   UNL     1       0.464   3.308  20.425  0.00  0.00    +0.000 OA
ATOM     16  H   UNL     1       0.902   2.762  21.101  0.00  0.00    +0.000 HD
ENDBRANCH  14  15
ENDBRANCH   5  14
TORSDOF 3
ENDMDL
MODEL 3
REMARK VINA RESULT:      -6.1      2.051      2.526
REMARK  Name = 
REMARK  3 active torsions:
REMARK  status: ('A' for Active; 'I' for Inactive)
REMARK    1  A    between atoms: C_2  and  C_3
REMARK    2  A    between atoms: C_11  and  C_12
REMARK    3  A    between atoms: C_12  and  O_13
REMARK                            x       y       z     vdW  Elec       q    Type
REMARK                         _______ _______ _______ _____ _____    ______ ____
ROOT
ATOM      1  O   UNL     1       5.168   7.067  15.664  0.00  0.00    +0.000 OA
ATOM      2  C   UNL     1       5.468   5.881  15.772  0.00  0.00    +0.000 C 
ATOM      3  N   UNL     1       5.378   5.203  16.970  0.00  0.00    +0.000 N 
ATOM      4  C   UNL     1       5.008   5.723  18.275  0.00  0.00    +0.000 C 
ATOM      5  C   UNL     1       6.216   4.957  18.843  0.00  0.00    +0.000 C 
ATOM      6  C   UNL     1       6.269   4.183  17.517  0.00  0.00    +0.000 C 
ENDROOT
BRANCH   2   7
ATOM      7  C   UNL     1       5.930   5.094  14.644  0.00  0.00    +0.000 A 
ATOM      8  C   UNL     1       5.296   4.098  13.915  0.00  0.00    +0.000 A 
ATOM      9  C   UNL     1       6.180   3.650  12.912  0.00  0.00    +0.000 A 
ATOM     10 CL   UNL     1       5.837   2.423  11.794  0.00  0.00    +0.000 Cl
ATOM     11  C   UNL     1       7.331   4.391  13.021  0.00  0.00    +0.000 A 
ATOM     12  N   UNL     1       7.162   5.282  14.049  0.00  0.00    +0.000 N 
ATOM     13  H   UNL     1       7.837   5.974  14.352  0.00  0.00    +0.000 HD
ENDBRANCH   2   7
BRANCH   5  14
ATOM     14  C   UNL     1       7.421   5.831  19.149  0.00  0.00    +0.000 C 
BRANCH  14  15
ATOM     15  O   UNL     1       7.944   5.477  20.424  0.00  0.00    +0.000 OA
ATOM     16  H   UNL     1       7.290   5.741  21.094  0.00  0.00    +0.000 HD
ENDBRANCH  14  15
ENDBRANCH   5  14
TORSDOF 3
ENDMDL
MODEL 4
REMARK VINA RESULT:      -6.1      2.991      3.747
REMARK  Name = 
REMARK  3 active torsions:
REMARK  status: ('A' for Active; 'I' for Inactive)
REMARK    1  A    between atoms: C_2  and  C_3
REMARK    2  A    between atoms: C_11  and  C_12
REMARK    3  A    between atoms: C_12  and  O_13
REMARK                            x       y       z     vdW  Elec       q    Type
REMARK                         _______ _______ _______ _____ _____    ______ ____
ROOT
ATOM      1  O   UNL     1       2.875   3.859  16.723  0.00  0.00    +0.000 OA
ATOM      2  C   UNL     1       3.856   3.674  17.439  0.00  0.00    +0.000 C 
ATOM      3  N   UNL     1       3.859   2.752  18.464  0.00  0.00    +0.000 N 
ATOM      4  C   UNL     1       2.764   1.918  18.930  0.00  0.00    +0.000 C 
ATOM      5  C   UNL     1       3.156   2.327  20.361  0.00  0.00    +0.000 C 
ATOM      6  C   UNL     1       4.481   2.846  19.782  0.00  0.00    +0.000 C 
ENDROOT
BRANCH   2   7
ATOM      7  C   UNL     1       5.097   4.403  17.254  0.00  0.00    +0.000 A 
ATOM      8  C   UNL     1       5.450   5.695  17.619  0.00  0.00    +0.000 A 
ATOM      9  C   UNL     1       6.781   5.923  17.212  0.00  0.00    +0.000 A 
ATOM     10 CL   UNL     1       7.626   7.376  17.432  0.00  0.00    +0.000 Cl
ATOM     11  C   UNL     1       7.235   4.766  16.629  0.00  0.00    +0.000 A 
ATOM     12  N   UNL     1       6.223   3.842  16.685  0.00  0.00    +0.000 N 
ATOM     13  H   UNL     1       6.271   2.887  16.349  0.00  0.00    +0.000 HD
ENDBRANCH   2   7
BRANCH   5  14
ATOM     14  C   UNL     1       2.246   3.376  20.980  0.00  0.00    +0.000 C 
BRANCH  14  15
ATOM     15  O   UNL     1       1.820   2.928  22.262  0.00  0.00    +0.000 OA
ATOM     16  H   UNL     1       2.053   3.619  22.907  0.00  0.00    +0.000 HD
ENDBRANCH  14  15
ENDBRANCH   5  14
TORSDOF 3
ENDMDL
MODEL 5
REMARK VINA RESULT:      -6.0      1.030      1.062
REMARK  Name = 
REMARK  3 active torsions:
REMARK  status: ('A' for Active; 'I' for Inactive)
REMARK    1  A    between atoms: C_2  and  C_3
REMARK    2  A    between atoms: C_11  and  C_12
REMARK    3  A    between atoms: C_12  and  O_13
REMARK                            x       y       z     vdW  Elec       q    Type
REMARK                         _______ _______ _______ _____ _____    ______ ____
ROOT
ATOM      1  O   UNL     1       7.059   4.286  18.475  0.00  0.00    +0.000 OA
ATOM      2  C   UNL     1       6.202   4.652  17.675  0.00  0.00    +0.000 C 
ATOM      3  N   UNL     1       4.986   5.163  18.077  0.00  0.00    +0.000 N 
ATOM      4  C   UNL     1       4.468   5.301  19.427  0.00  0.00    +0.000 C 
ATOM      5  C   UNL     1       3.148   4.707  18.904  0.00  0.00    +0.000 C 
ATOM      6  C   UNL     1       3.667   4.970  17.482  0.00  0.00    +0.000 C 
ENDROOT
BRANCH   2   7
ATOM      7  C   UNL     1       6.406   4.586  16.239  0.00  0.00    +0.000 A 
ATOM      8  C   UNL     1       5.854   3.743  15.284  0.00  0.00    +0.000 A 
ATOM      9  C   UNL     1       6.380   4.095  14.025  0.00  0.00    +0.000 A 
ATOM     10 CL   UNL     1       6.004   3.319  12.565  0.00  0.00    +0.000 Cl
ATOM     11  C   UNL     1       7.224   5.161  14.216  0.00  0.00    +0.000 A 
ATOM     12  N   UNL     1       7.212   5.472  15.552  0.00  0.00    +0.000 N 
ATOM     13  H   UNL     1       7.724   6.228  15.990  0.00  0.00    +0.000 HD
ENDBRANCH   2   7
BRANCH   5  14
ATOM     14  C   UNL     1       2.931   3.249  19.272  0.00  0.00    +0.000 C 
BRANCH  14  15
ATOM     15  O   UNL     1       1.702   3.122  19.977  0.00  0.00    +0.000 OA
ATOM     16  H   UNL     1       1.010   3.548  19.441  0.00  0.00    +0.000 HD
ENDBRANCH  14  15
ENDBRANCH   5  14
TORSDOF 3
ENDMDL
MODEL 6
REMARK VINA RESULT:      -6.0      1.456      1.643
REMARK  Name = 
REMARK  3 active torsions:
REMARK  status: ('A' for Active; 'I' for Inactive)
REMARK    1  A    between atoms: C_2  and  C_3
REMARK    2  A    between atoms: C_11  and  C_12
REMARK    3  A    between atoms: C_12  and  O_13
REMARK                            x       y       z     vdW  Elec       q    Type
REMARK                         _______ _______ _______ _____ _____    ______ ____
ROOT
ATOM      1  O   UNL     1       8.011   4.384  16.922  0.00  0.00    +0.000 OA
ATOM      2  C   UNL     1       7.180   4.957  16.222  0.00  0.00    +0.000 C 
ATOM      3  N   UNL     1       6.391   5.982  16.700  0.00  0.00    +0.000 N 
ATOM      4  C   UNL     1       6.327   6.515  18.050  0.00  0.00    +0.000 C 
ATOM      5  C   UNL     1       4.794   6.461  17.921  0.00  0.00    +0.000 C 
ATOM      6  C   UNL     1       4.991   6.276  16.408  0.00  0.00    +0.000 C 
ENDROOT
BRANCH   2   7
ATOM      7  C   UNL     1       6.970   4.608  14.829  0.00  0.00    +0.000 A 
ATOM      8  C   UNL     1       6.110   3.687  14.246  0.00  0.00    +0.000 A 
ATOM      9  C   UNL     1       6.290   3.734  12.849  0.00  0.00    +0.000 A 
ATOM     10 CL   UNL     1       5.463   2.765  11.731  0.00  0.00    +0.000 Cl
ATOM     11  C   UNL     1       7.234   4.698  12.589  0.00  0.00    +0.000 A 
ATOM     12  N   UNL     1       7.618   5.242  13.788  0.00  0.00    +0.000 N 
ATOM     13  H   UNL     1       8.289   5.991  13.911  0.00  0.00    +0.000 HD
ENDBRANCH   2   7
BRANCH   5  14
ATOM     14  C   UNL     1       4.148   5.296  18.653  0.00  0.00    +0.000 C 
BRANCH  14  15
ATOM     15  O   UNL     1       3.654   5.749  19.909  0.00  0.00    +0.000 OA
ATOM     16  H   UNL     1       3.908   6.683  20.004  0.00  0.00    +0.000 HD
ENDBRANCH  14  15
ENDBRANCH   5  14
TORSDOF 3
ENDMDL
MODEL 7
REMARK VINA RESULT:      -6.0      3.362      5.659
REMARK  Name = 
REMARK  3 active torsions:
REMARK  status: ('A' for Active; 'I' for Inactive)
REMARK    1  A    between atoms: C_2  and  C_3
REMARK    2  A    between atoms: C_11  and  C_12
REMARK    3  A    between atoms: C_12  and  O_13
REMARK                            x       y       z     vdW  Elec       q    Type
REMARK                         _______ _______ _______ _____ _____    ______ ____
ROOT
ATOM      1  O   UNL     1       3.781   7.427  17.437  0.00  0.00    +0.000 OA
ATOM      2  C   UNL     1       4.193   6.416  18.000  0.00  0.00    +0.000 C 
ATOM      3  N   UNL     1       5.521   6.045  17.973  0.00  0.00    +0.000 N 
ATOM      4  C   UNL     1       6.620   6.681  17.267  0.00  0.00    +0.000 C 
ATOM      5  C   UNL     1       7.040   5.275  16.803  0.00  0.00    +0.000 C 
ATOM      6  C   UNL     1       6.099   4.708  17.877  0.00  0.00    +0.000 C 
ENDROOT
BRANCH   2   7
ATOM      7  C   UNL     1       3.316   5.536  18.751  0.00  0.00    +0.000 A 
ATOM      8  C   UNL     1       2.437   4.552  18.320  0.00  0.00    +0.000 A 
ATOM      9  C   UNL     1       1.821   3.981  19.452  0.00  0.00    +0.000 A 
ATOM     10 CL   UNL     1       0.655   2.751  19.405  0.00  0.00    +0.000 Cl
ATOM     11  C   UNL     1       2.347   4.599  20.560  0.00  0.00    +0.000 A 
ATOM     12  N   UNL     1       3.271   5.516  20.130  0.00  0.00    +0.000 N 
ATOM     13  H   UNL     1       3.837   6.111  20.724  0.00  0.00    +0.000 HD
ENDBRANCH   2   7
BRANCH   5  14
ATOM     14  C   UNL     1       6.670   4.958  15.363  0.00  0.00    +0.000 C 
BRANCH  14  15
ATOM     15  O   UNL     1       7.751   5.322  14.511  0.00  0.00    +0.000 OA
ATOM     16  H   UNL     1       8.572   5.238  15.027  0.00  0.00    +0.000 HD
ENDBRANCH  14  15
ENDBRANCH   5  14
TORSDOF 3
ENDMDL
MODEL 8
REMARK VINA RESULT:      -6.0      3.400      4.702
REMARK  Name = 
REMARK  3 active torsions:
REMARK  status: ('A' for Active; 'I' for Inactive)
REMARK    1  A    between atoms: C_2  and  C_3
REMARK    2  A    between atoms: C_11  and  C_12
REMARK    3  A    between atoms: C_12  and  O_13
REMARK                            x       y       z     vdW  Elec       q    Type
REMARK                         _______ _______ _______ _____ _____    ______ ____
ROOT
ATOM      1  O   UNL     1       5.689   3.707  15.791  0.00  0.00    +0.000 OA
ATOM      2  C   UNL     1       5.110   4.071  16.812  0.00  0.00    +0.000 C 
ATOM      3  N   UNL     1       5.413   5.256  17.449  0.00  0.00    +0.000 N 
ATOM      4  C   UNL     1       6.449   6.219  17.118  0.00  0.00    +0.000 C 
ATOM      5  C   UNL     1       6.804   6.244  18.615  0.00  0.00    +0.000 C 
ATOM      6  C   UNL     1       5.463   5.542  18.880  0.00  0.00    +0.000 C 
ENDROOT
BRANCH   2   7
ATOM      7  C   UNL     1       4.053   3.288  17.423  0.00  0.00    +0.000 A 
ATOM      8  C   UNL     1       2.697   3.552  17.566  0.00  0.00    +0.000 A 
ATOM      9  C   UNL     1       2.101   2.463  18.234  0.00  0.00    +0.000 A 
ATOM     10 CL   UNL     1       0.460   2.358  18.644  0.00  0.00    +0.000 Cl
ATOM     11  C   UNL     1       3.087   1.537  18.469  0.00  0.00    +0.000 A 
ATOM     12  N   UNL     1       4.257   2.028  17.950  0.00  0.00    +0.000 N 
ATOM     13  H   UNL     1       5.154   1.556  17.956  0.00  0.00    +0.000 HD
ENDBRANCH   2   7
BRANCH   5  14
ATOM     14  C   UNL     1       8.050   5.451  18.974  0.00  0.00    +0.000 C 
BRANCH  14  15
ATOM     15  O   UNL     1       8.244   5.498  20.383  0.00  0.00    +0.000 OA
ATOM     16  H   UNL     1       7.374   5.636  20.795  0.00  0.00    +0.000 HD
ENDBRANCH  14  15
ENDBRANCH   5  14
TORSDOF 3
ENDMDL
MODEL 9
REMARK VINA RESULT:      -5.9      2.084      2.445
REMARK  Name = 
REMARK  3 active torsions:
REMARK  status: ('A' for Active; 'I' for Inactive)
REMARK    1  A    between atoms: C_2  and  C_3
REMARK    2  A    between atoms: C_11  and  C_12
REMARK    3  A    between atoms: C_12  and  O_13
REMARK                            x       y       z     vdW  Elec       q    Type
REMARK                         _______ _______ _______ _____ _____    ______ ____
ROOT
ATOM      1  O   UNL     1       5.677   4.102  19.228  0.00  0.00    +0.000 OA
ATOM      2  C   UNL     1       4.895   4.618  18.433  0.00  0.00    +0.000 C 
ATOM      3  N   UNL     1       3.665   5.107  18.818  0.00  0.00    +0.000 N 
ATOM      4  C   UNL     1       3.046   5.058  20.132  0.00  0.00    +0.000 C 
ATOM      5  C   UNL     1       1.756   4.600  19.427  0.00  0.00    +0.000 C 
ATOM      6  C   UNL     1       2.392   5.056  18.105  0.00  0.00    +0.000 C 
ENDROOT
BRANCH   2   7
ATOM      7  C   UNL     1       5.209   4.763  17.023  0.00  0.00    +0.000 A 
ATOM      8  C   UNL     1       5.425   3.807  16.041  0.00  0.00    +0.000 A 
ATOM      9  C   UNL     1       5.694   4.471  14.827  0.00  0.00    +0.000 A 
ATOM     10 CL   UNL     1       6.039   3.702  13.356  0.00  0.00    +0.000 Cl
ATOM     11  C   UNL     1       5.614   5.820  15.071  0.00  0.00    +0.000 A 
ATOM     12  N   UNL     1       5.291   5.989  16.393  0.00  0.00    +0.000 N 
ATOM     13  H   UNL     1       5.145   6.876  16.860  0.00  0.00    +0.000 HD
ENDBRANCH   2   7
BRANCH   5  14
ATOM     14  C   UNL     1       1.474   3.112  19.549  0.00  0.00    +0.000 C 
BRANCH  14  15
ATOM     15  O   UNL     1       0.267   2.923  20.281  0.00  0.00    +0.000 OA
ATOM     16  H   UNL     1      -0.275   3.723  20.165  0.00  0.00    +0.000 HD
ENDBRANCH  14  15
ENDBRANCH   5  14
TORSDOF 3
ENDMDL
