MODEL 1
REMARK VINA RESULT:      -8.9      0.000      0.000
REMARK  Name = 
REMARK  8 active torsions:
REMARK  status: ('A' for Active; 'I' for Inactive)
REMARK    1  A    between atoms: C_1  and  O_2
REMARK    2  A    between atoms: O_2  and  C_3
REMARK    3  A    between atoms: C_6  and  C_7
REMARK    4  A    between atoms: C_8  and  C_9
REMARK    5  A    between atoms: C_9  and  C_10
REMARK    6  A    between atoms: C_10  and  S_11
REMARK    7  A    between atoms: S_11  and  C_12
REMARK    8  A    between atoms: N_20  and  C_21
REMARK                            x       y       z     vdW  Elec       q    Type
REMARK                         _______ _______ _______ _____ _____    ______ ____
ROOT
ATOM      1  C   UNL     1       2.638   6.507  18.036  0.00  0.00    +0.000 C 
ATOM      2  C   UNL     1       2.519   8.004  18.512  0.00  0.00    +0.000 C 
ATOM      3  C   UNL     1       2.040   7.390  19.850  0.00  0.00    +0.000 C 
ATOM      4  O   UNL     1       1.565   7.817  20.865  0.00  0.00    +0.000 OA
ATOM      5  N   UNL     1       2.367   6.141  19.431  0.00  0.00    +0.000 N 
ENDROOT
BRANCH   1   9
ATOM      6  C   UNL     1       6.336   5.189  16.004  0.00  0.00    +0.000 A 
ATOM      7  C   UNL     1       6.245   6.462  16.558  0.00  0.00    +0.000 A 
ATOM      8  C   UNL     1       5.108   6.848  17.267  0.00  0.00    +0.000 A 
ATOM      9  C   UNL     1       3.995   6.000  17.396  0.00  0.00    +0.000 A 
ATOM     10  C   UNL     1       4.141   4.696  16.879  0.00  0.00    +0.000 A 
ATOM     11  C   UNL     1       5.283   4.297  16.175  0.00  0.00    +0.000 A 
BRANCH   6  13
ATOM     12  C   UNL     1       7.357   4.789  13.910  0.00  0.00    +0.000 C 
ATOM     13  O   UNL     1       7.490   4.936  15.320  0.00  0.00    +0.000 OA
ENDBRANCH   6  13
ENDBRANCH   1   9
BRANCH   5  14
ATOM     14  C   UNL     1       2.064   4.894  19.959  0.00  0.00    +0.000 A 
ATOM     15  C   UNL     1       1.241   3.989  19.281  0.00  0.00    +0.000 A 
ATOM     16  C   UNL     1       0.887   2.776  19.882  0.00  0.00    +0.000 A 
ATOM     17  C   UNL     1       1.331   2.479  21.171  0.00  0.00    +0.000 A 
ATOM     18  C   UNL     1       2.159   3.368  21.842  0.00  0.00    +0.000 A 
ATOM     19  C   UNL     1       2.545   4.554  21.225  0.00  0.00    +0.000 A 
ENDBRANCH   5  14
BRANCH   2  20
ATOM     20  C   UNL     1       1.469   8.874  17.828  0.00  0.00    +0.000 C 
BRANCH  20  21
ATOM     21  C   UNL     1       1.689  10.349  18.172  0.00  0.00    +0.000 C 
BRANCH  21  22
ATOM     22  S   UNL     1       0.448  10.837  19.417  0.00  0.00    +0.000 S 
BRANCH  22  23
ATOM     23  C   UNL     1      -1.110  10.752  18.546  0.00  0.00    +0.000 A 
ATOM     24  C   UNL     1      -1.370   9.944  17.435  0.00  0.00    +0.000 A 
ATOM     25  C   UNL     1      -2.617   9.989  16.799  0.00  0.00    +0.000 A 
ATOM     26  C   UNL     1      -3.620  10.829  17.275  0.00  0.00    +0.000 A 
ATOM     27  C   UNL     1      -3.382  11.623  18.394  0.00  0.00    +0.000 A 
ATOM     28  C   UNL     1      -2.135  11.583  19.021  0.00  0.00    +0.000 A 
ENDBRANCH  22  23
ENDBRANCH  21  22
ENDBRANCH  20  21
ENDBRANCH   2  20
TORSDOF 7
ENDMDL
MODEL 2
REMARK VINA RESULT:      -8.8      0.627      1.108
REMARK  Name = 
REMARK  8 active torsions:
REMARK  status: ('A' for Active; 'I' for Inactive)
REMARK    1  A    between atoms: C_1  and  O_2
REMARK    2  A    between atoms: O_2  and  C_3
REMARK    3  A    between atoms: C_6  and  C_7
REMARK    4  A    between atoms: C_8  and  C_9
REMARK    5  A    between atoms: C_9  and  C_10
REMARK    6  A    between atoms: C_10  and  S_11
REMARK    7  A    between atoms: S_11  and  C_12
REMARK    8  A    between atoms: N_20  and  C_21
REMARK                            x       y       z     vdW  Elec       q    Type
REMARK                         _______ _______ _______ _____ _____    ______ ____
ROOT
ATOM      1  C   UNL     1       2.537   6.638  18.218  0.00  0.00    +0.000 C 
ATOM      2  C   UNL     1       2.354   8.133  18.684  0.00  0.00    +0.000 C 
ATOM      3  C   UNL     1       1.845   7.507  20.004  0.00  0.00    +0.000 C 
ATOM      4  O   UNL     1       1.319   7.922  20.999  0.00  0.00    +0.000 OA
ATOM      5  N   UNL     1       2.226   6.267  19.602  0.00  0.00    +0.000 N 
ENDROOT
BRANCH   1   9
ATOM      6  C   UNL     1       6.292   5.171  16.403  0.00  0.00    +0.000 A 
ATOM      7  C   UNL     1       5.645   6.292  15.890  0.00  0.00    +0.000 A 
ATOM      8  C   UNL     1       4.505   6.799  16.511  0.00  0.00    +0.000 A 
ATOM      9  C   UNL     1       3.932   6.172  17.631  0.00  0.00    +0.000 A 
ATOM     10  C   UNL     1       4.644   5.077  18.165  0.00  0.00    +0.000 A 
ATOM     11  C   UNL     1       5.795   4.568  17.554  0.00  0.00    +0.000 A 
BRANCH   6  13
ATOM     12  C   UNL     1       7.251   4.768  14.281  0.00  0.00    +0.000 C 
ATOM     13  O   UNL     1       7.386   4.760  15.698  0.00  0.00    +0.000 OA
ENDBRANCH   6  13
ENDBRANCH   1   9
BRANCH   5  14
ATOM     14  C   UNL     1       1.941   5.013  20.123  0.00  0.00    +0.000 A 
ATOM     15  C   UNL     1       2.459   4.592  21.352  0.00  0.00    +0.000 A 
ATOM     16  C   UNL     1       2.221   3.290  21.805  0.00  0.00    +0.000 A 
ATOM     17  C   UNL     1       1.489   2.399  21.019  0.00  0.00    +0.000 A 
ATOM     18  C   UNL     1       0.962   2.817  19.805  0.00  0.00    +0.000 A 
ATOM     19  C   UNL     1       1.163   4.126  19.377  0.00  0.00    +0.000 A 
ENDBRANCH   5  14
BRANCH   2  20
ATOM     20  C   UNL     1       1.304   8.968  17.957  0.00  0.00    +0.000 C 
BRANCH  20  21
ATOM     21  C   UNL     1       1.233  10.374  18.554  0.00  0.00    +0.000 C 
BRANCH  21  22
ATOM     22  S   UNL     1      -0.310  10.510  19.517  0.00  0.00    +0.000 S 
BRANCH  22  23
ATOM     23  C   UNL     1      -1.600  10.568  18.281  0.00  0.00    +0.000 A 
ATOM     24  C   UNL     1      -1.629   9.806  17.109  0.00  0.00    +0.000 A 
ATOM     25  C   UNL     1      -2.668   9.964  16.184  0.00  0.00    +0.000 A 
ATOM     26  C   UNL     1      -3.695  10.873  16.427  0.00  0.00    +0.000 A 
ATOM     27  C   UNL     1      -3.690  11.622  17.600  0.00  0.00    +0.000 A 
ATOM     28  C   UNL     1      -2.648  11.470  18.517  0.00  0.00    +0.000 A 
ENDBRANCH  22  23
ENDBRANCH  21  22
ENDBRANCH  20  21
ENDBRANCH   2  20
TORSDOF 7
ENDMDL
MODEL 3
REMARK VINA RESULT:      -8.7      1.504      2.100
REMARK  Name = 
REMARK  8 active torsions:
REMARK  status: ('A' for Active; 'I' for Inactive)
REMARK    1  A    between atoms: C_1  and  O_2
REMARK    2  A    between atoms: O_2  and  C_3
REMARK    3  A    between atoms: C_6  and  C_7
REMARK    4  A    between atoms: C_8  and  C_9
REMARK    5  A    between atoms: C_9  and  C_10
REMARK    6  A    between atoms: C_10  and  S_11
REMARK    7  A    between atoms: S_11  and  C_12
REMARK    8  A    between atoms: N_20  and  C_21
REMARK                            x       y       z     vdW  Elec       q    Type
REMARK                         _______ _______ _______ _____ _____    ______ ____
ROOT
ATOM      1  C   UNL     1       2.676   6.521  18.003  0.00  0.00    +0.000 C 
ATOM      2  C   UNL     1       2.575   8.018  18.487  0.00  0.00    +0.000 C 
ATOM      3  C   UNL     1       2.088   7.403  19.821  0.00  0.00    +0.000 C 
ATOM      4  O   UNL     1       1.618   7.830  20.838  0.00  0.00    +0.000 OA
ATOM      5  N   UNL     1       2.400   6.152  19.395  0.00  0.00    +0.000 N 
ENDROOT
BRANCH   1   9
ATOM      6  C   UNL     1       6.358   5.166  15.966  0.00  0.00    +0.000 A 
ATOM      7  C   UNL     1       6.281   6.440  16.521  0.00  0.00    +0.000 A 
ATOM      8  C   UNL     1       5.149   6.837  17.231  0.00  0.00    +0.000 A 
ATOM      9  C   UNL     1       4.027   6.001  17.362  0.00  0.00    +0.000 A 
ATOM     10  C   UNL     1       4.159   4.695  16.844  0.00  0.00    +0.000 A 
ATOM     11  C   UNL     1       5.296   4.285  16.139  0.00  0.00    +0.000 A 
BRANCH   6  13
ATOM     12  C   UNL     1       7.377   4.783  13.868  0.00  0.00    +0.000 C 
ATOM     13  O   UNL     1       7.509   4.901  15.281  0.00  0.00    +0.000 OA
ENDBRANCH   6  13
ENDBRANCH   1   9
BRANCH   5  14
ATOM     14  C   UNL     1       2.080   4.906  19.916  0.00  0.00    +0.000 A 
ATOM     15  C   UNL     1       1.266   4.005  19.222  0.00  0.00    +0.000 A 
ATOM     16  C   UNL     1       0.895   2.794  19.816  0.00  0.00    +0.000 A 
ATOM     17  C   UNL     1       1.312   2.493  21.113  0.00  0.00    +0.000 A 
ATOM     18  C   UNL     1       2.131   3.379  21.800  0.00  0.00    +0.000 A 
ATOM     19  C   UNL     1       2.534   4.564  21.192  0.00  0.00    +0.000 A 
ENDBRANCH   5  14
BRANCH   2  20
ATOM     20  C   UNL     1       1.538   8.905  17.806  0.00  0.00    +0.000 C 
BRANCH  20  21
ATOM     21  C   UNL     1       1.306  10.179  18.620  0.00  0.00    +0.000 C 
BRANCH  21  22
ATOM     22  S   UNL     1      -0.492  10.470  18.729  0.00  0.00    +0.000 S 
BRANCH  22  23
ATOM     23  C   UNL     1      -0.751  11.018  20.411  0.00  0.00    +0.000 A 
ATOM     24  C   UNL     1      -0.509  10.251  21.555  0.00  0.00    +0.000 A 
ATOM     25  C   UNL     1      -0.791  10.765  22.827  0.00  0.00    +0.000 A 
ATOM     26  C   UNL     1      -1.303  12.052  22.969  0.00  0.00    +0.000 A 
ATOM     27  C   UNL     1      -1.529  12.833  21.840  0.00  0.00    +0.000 A 
ATOM     28  C   UNL     1      -1.255  12.317  20.571  0.00  0.00    +0.000 A 
ENDBRANCH  22  23
ENDBRANCH  21  22
ENDBRANCH  20  21
ENDBRANCH   2  20
TORSDOF 7
ENDMDL
MODEL 4
REMARK VINA RESULT:      -8.5      1.552      2.319
REMARK  Name = 
REMARK  8 active torsions:
REMARK  status: ('A' for Active; 'I' for Inactive)
REMARK    1  A    between atoms: C_1  and  O_2
REMARK    2  A    between atoms: O_2  and  C_3
REMARK    3  A    between atoms: C_6  and  C_7
REMARK    4  A    between atoms: C_8  and  C_9
REMARK    5  A    between atoms: C_9  and  C_10
REMARK    6  A    between atoms: C_10  and  S_11
REMARK    7  A    between atoms: S_11  and  C_12
REMARK    8  A    between atoms: N_20  and  C_21
REMARK                            x       y       z     vdW  Elec       q    Type
REMARK                         _______ _______ _______ _____ _____    ______ ____
ROOT
ATOM      1  C   UNL     1       2.609   6.682  18.153  0.00  0.00    +0.000 C 
ATOM      2  C   UNL     1       2.480   8.175  18.641  0.00  0.00    +0.000 C 
ATOM      3  C   UNL     1       1.948   7.549  19.952  0.00  0.00    +0.000 C 
ATOM      4  O   UNL     1       1.438   7.968  20.953  0.00  0.00    +0.000 OA
ATOM      5  N   UNL     1       2.284   6.303  19.532  0.00  0.00    +0.000 N 
ENDROOT
BRANCH   1   9
ATOM      6  C   UNL     1       6.310   5.090  16.331  0.00  0.00    +0.000 A 
ATOM      7  C   UNL     1       5.655   6.184  15.772  0.00  0.00    +0.000 A 
ATOM      8  C   UNL     1       4.534   6.733  16.391  0.00  0.00    +0.000 A 
ATOM      9  C   UNL     1       3.987   6.175  17.559  0.00  0.00    +0.000 A 
ATOM     10  C   UNL     1       4.707   5.107  18.136  0.00  0.00    +0.000 A 
ATOM     11  C   UNL     1       5.839   4.557  17.526  0.00  0.00    +0.000 A 
BRANCH   6  13
ATOM     12  C   UNL     1       7.302   4.775  14.210  0.00  0.00    +0.000 C 
ATOM     13  O   UNL     1       7.384   4.633  15.623  0.00  0.00    +0.000 OA
ENDBRANCH   6  13
ENDBRANCH   1   9
BRANCH   5  14
ATOM     14  C   UNL     1       1.954   5.052  20.033  0.00  0.00    +0.000 A 
ATOM     15  C   UNL     1       2.447   4.598  21.261  0.00  0.00    +0.000 A 
ATOM     16  C   UNL     1       2.162   3.299  21.695  0.00  0.00    +0.000 A 
ATOM     17  C   UNL     1       1.409   2.443  20.892  0.00  0.00    +0.000 A 
ATOM     18  C   UNL     1       0.907   2.893  19.679  0.00  0.00    +0.000 A 
ATOM     19  C   UNL     1       1.154   4.200  19.269  0.00  0.00    +0.000 A 
ENDBRANCH   5  14
BRANCH   2  20
ATOM     20  C   UNL     1       1.462   9.059  17.927  0.00  0.00    +0.000 C 
BRANCH  20  21
ATOM     21  C   UNL     1       1.190  10.326  18.740  0.00  0.00    +0.000 C 
BRANCH  21  22
ATOM     22  S   UNL     1      -0.609  10.623  18.752  0.00  0.00    +0.000 S 
BRANCH  22  23
ATOM     23  C   UNL     1      -0.962  11.140  20.426  0.00  0.00    +0.000 A 
ATOM     24  C   UNL     1      -0.469  10.526  21.580  0.00  0.00    +0.000 A 
ATOM     25  C   UNL     1      -0.846  10.986  22.848  0.00  0.00    +0.000 A 
ATOM     26  C   UNL     1      -1.709  12.072  22.974  0.00  0.00    +0.000 A 
ATOM     27  C   UNL     1      -2.191  12.706  21.833  0.00  0.00    +0.000 A 
ATOM     28  C   UNL     1      -1.820  12.241  20.570  0.00  0.00    +0.000 A 
ENDBRANCH  22  23
ENDBRANCH  21  22
ENDBRANCH  20  21
ENDBRANCH   2  20
TORSDOF 7
ENDMDL
MODEL 5
REMARK VINA RESULT:      -8.3      2.009      3.017
REMARK  Name = 
REMARK  8 active torsions:
REMARK  status: ('A' for Active; 'I' for Inactive)
REMARK    1  A    between atoms: C_1  and  O_2
REMARK    2  A    between atoms: O_2  and  C_3
REMARK    3  A    between atoms: C_6  and  C_7
REMARK    4  A    between atoms: C_8  and  C_9
REMARK    5  A    between atoms: C_9  and  C_10
REMARK    6  A    between atoms: C_10  and  S_11
REMARK    7  A    between atoms: S_11  and  C_12
REMARK    8  A    between atoms: N_20  and  C_21
REMARK                            x       y       z     vdW  Elec       q    Type
REMARK                         _______ _______ _______ _____ _____    ______ ____
ROOT
ATOM      1  C   UNL     1       2.588   6.620  18.151  0.00  0.00    +0.000 C 
ATOM      2  C   UNL     1       2.489   8.118  18.632  0.00  0.00    +0.000 C 
ATOM      3  C   UNL     1       1.972   7.508  19.956  0.00  0.00    +0.000 C 
ATOM      4  O   UNL     1       1.486   7.940  20.964  0.00  0.00    +0.000 OA
ATOM      5  N   UNL     1       2.282   6.254  19.538  0.00  0.00    +0.000 N 
ENDROOT
BRANCH   1   9
ATOM      6  C   UNL     1       6.236   5.043  16.214  0.00  0.00    +0.000 A 
ATOM      7  C   UNL     1       5.803   6.342  15.965  0.00  0.00    +0.000 A 
ATOM      8  C   UNL     1       4.699   6.864  16.636  0.00  0.00    +0.000 A 
ATOM      9  C   UNL     1       3.947   6.089  17.536  0.00  0.00    +0.000 A 
ATOM     10  C   UNL     1       4.445   4.799  17.815  0.00  0.00    +0.000 A 
ATOM     11  C   UNL     1       5.559   4.271  17.153  0.00  0.00    +0.000 A 
BRANCH   6  13
ATOM     12  C   UNL     1       7.189   4.757  14.071  0.00  0.00    +0.000 C 
ATOM     13  O   UNL     1       7.316   4.640  15.484  0.00  0.00    +0.000 OA
ENDBRANCH   6  13
ENDBRANCH   1   9
BRANCH   5  14
ATOM     14  C   UNL     1       1.943   5.011  20.054  0.00  0.00    +0.000 A 
ATOM     15  C   UNL     1       2.440   4.564  21.282  0.00  0.00    +0.000 A 
ATOM     16  C   UNL     1       2.146   3.272  21.730  0.00  0.00    +0.000 A 
ATOM     17  C   UNL     1       1.378   2.416  20.940  0.00  0.00    +0.000 A 
ATOM     18  C   UNL     1       0.871   2.860  19.726  0.00  0.00    +0.000 A 
ATOM     19  C   UNL     1       1.129   4.160  19.303  0.00  0.00    +0.000 A 
ENDBRANCH   5  14
BRANCH   2  20
ATOM     20  C   UNL     1       1.472   9.012  17.930  0.00  0.00    +0.000 C 
BRANCH  20  21
ATOM     21  C   UNL     1       1.945  10.466  17.933  0.00  0.00    +0.000 C 
BRANCH  21  22
ATOM     22  S   UNL     1       0.821  11.433  18.996  0.00  0.00    +0.000 S 
BRANCH  22  23
ATOM     23  C   UNL     1       1.382  13.120  18.816  0.00  0.00    +0.000 A 
ATOM     24  C   UNL     1       0.627  14.257  19.117  0.00  0.00    +0.000 A 
ATOM     25  C   UNL     1       1.149  15.538  18.895  0.00  0.00    +0.000 A 
ATOM     26  C   UNL     1       2.436  15.694  18.384  0.00  0.00    +0.000 A 
ATOM     27  C   UNL     1       3.206  14.570  18.100  0.00  0.00    +0.000 A 
ATOM     28  C   UNL     1       2.680  13.295  18.314  0.00  0.00    +0.000 A 
ENDBRANCH  22  23
ENDBRANCH  21  22
ENDBRANCH  20  21
ENDBRANCH   2  20
TORSDOF 7
ENDMDL
MODEL 6
REMARK VINA RESULT:      -8.3      1.526      2.567
REMARK  Name = 
REMARK  8 active torsions:
REMARK  status: ('A' for Active; 'I' for Inactive)
REMARK    1  A    between atoms: C_1  and  O_2
REMARK    2  A    between atoms: O_2  and  C_3
REMARK    3  A    between atoms: C_6  and  C_7
REMARK    4  A    between atoms: C_8  and  C_9
REMARK    5  A    between atoms: C_9  and  C_10
REMARK    6  A    between atoms: C_10  and  S_11
REMARK    7  A    between atoms: S_11  and  C_12
REMARK    8  A    between atoms: N_20  and  C_21
REMARK                            x       y       z     vdW  Elec       q    Type
REMARK                         _______ _______ _______ _____ _____    ______ ____
ROOT
ATOM      1  C   UNL     1       2.408   6.718  18.187  0.00  0.00    +0.000 C 
ATOM      2  C   UNL     1       2.315   8.203  18.709  0.00  0.00    +0.000 C 
ATOM      3  C   UNL     1       1.910   7.552  20.054  0.00  0.00    +0.000 C 
ATOM      4  O   UNL     1       1.491   7.950  21.104  0.00  0.00    +0.000 OA
ATOM      5  N   UNL     1       2.213   6.314  19.583  0.00  0.00    +0.000 N 
ENDROOT
BRANCH   1   9
ATOM      6  C   UNL     1       6.191   5.282  16.409  0.00  0.00    +0.000 A 
ATOM      7  C   UNL     1       5.107   4.423  16.562  0.00  0.00    +0.000 A 
ATOM      8  C   UNL     1       3.890   4.897  17.050  0.00  0.00    +0.000 A 
ATOM      9  C   UNL     1       3.727   6.231  17.460  0.00  0.00    +0.000 A 
ATOM     10  C   UNL     1       4.823   7.091  17.234  0.00  0.00    +0.000 A 
ATOM     11  C   UNL     1       6.044   6.626  16.736  0.00  0.00    +0.000 A 
BRANCH   6  13
ATOM     12  C   UNL     1       7.471   4.656  14.523  0.00  0.00    +0.000 C 
ATOM     13  O   UNL     1       7.332   4.698  15.939  0.00  0.00    +0.000 OA
ENDBRANCH   6  13
ENDBRANCH   1   9
BRANCH   5  14
ATOM     14  C   UNL     1       1.938   5.054  20.093  0.00  0.00    +0.000 A 
ATOM     15  C   UNL     1       2.490   4.611  21.300  0.00  0.00    +0.000 A 
ATOM     16  C   UNL     1       2.259   3.303  21.739  0.00  0.00    +0.000 A 
ATOM     17  C   UNL     1       1.501   2.427  20.961  0.00  0.00    +0.000 A 
ATOM     18  C   UNL     1       0.941   2.866  19.769  0.00  0.00    +0.000 A 
ATOM     19  C   UNL     1       1.135   4.181  19.355  0.00  0.00    +0.000 A 
ENDBRANCH   5  14
BRANCH   2  20
ATOM     20  C   UNL     1       1.230   9.090  18.107  0.00  0.00    +0.000 C 
BRANCH  20  21
ATOM     21  C   UNL     1       1.135  10.412  18.871  0.00  0.00    +0.000 C 
BRANCH  21  22
ATOM     22  S   UNL     1      -0.572  11.037  18.723  0.00  0.00    +0.000 S 
BRANCH  22  23
ATOM     23  C   UNL     1      -1.032  11.471  20.395  0.00  0.00    +0.000 A 
ATOM     24  C   UNL     1      -1.768  12.601  20.761  0.00  0.00    +0.000 A 
ATOM     25  C   UNL     1      -2.035  12.870  22.109  0.00  0.00    +0.000 A 
ATOM     26  C   UNL     1      -1.582  12.006  23.103  0.00  0.00    +0.000 A 
ATOM     27  C   UNL     1      -0.865  10.865  22.750  0.00  0.00    +0.000 A 
ATOM     28  C   UNL     1      -0.593  10.603  21.406  0.00  0.00    +0.000 A 
ENDBRANCH  22  23
ENDBRANCH  21  22
ENDBRANCH  20  21
ENDBRANCH   2  20
TORSDOF 7
ENDMDL
MODEL 7
REMARK VINA RESULT:      -8.2      1.969      2.700
REMARK  Name = 
REMARK  8 active torsions:
REMARK  status: ('A' for Active; 'I' for Inactive)
REMARK    1  A    between atoms: C_1  and  O_2
REMARK    2  A    between atoms: O_2  and  C_3
REMARK    3  A    between atoms: C_6  and  C_7
REMARK    4  A    between atoms: C_8  and  C_9
REMARK    5  A    between atoms: C_9  and  C_10
REMARK    6  A    between atoms: C_10  and  S_11
REMARK    7  A    between atoms: S_11  and  C_12
REMARK    8  A    between atoms: N_20  and  C_21
REMARK                            x       y       z     vdW  Elec       q    Type
REMARK                         _______ _______ _______ _____ _____    ______ ____
ROOT
ATOM      1  C   UNL     1       2.674   6.517  18.011  0.00  0.00    +0.000 C 
ATOM      2  C   UNL     1       2.579   8.016  18.487  0.00  0.00    +0.000 C 
ATOM      3  C   UNL     1       2.084   7.410  19.822  0.00  0.00    +0.000 C 
ATOM      4  O   UNL     1       1.612   7.845  20.835  0.00  0.00    +0.000 OA
ATOM      5  N   UNL     1       2.391   6.155  19.404  0.00  0.00    +0.000 N 
ENDROOT
BRANCH   1   9
ATOM      6  C   UNL     1       6.353   5.125  15.992  0.00  0.00    +0.000 A 
ATOM      7  C   UNL     1       6.269   6.416  16.506  0.00  0.00    +0.000 A 
ATOM      8  C   UNL     1       5.139   6.827  17.211  0.00  0.00    +0.000 A 
ATOM      9  C   UNL     1       4.025   5.986  17.377  0.00  0.00    +0.000 A 
ATOM     10  C   UNL     1       4.164   4.665  16.900  0.00  0.00    +0.000 A 
ATOM     11  C   UNL     1       5.299   4.242  16.201  0.00  0.00    +0.000 A 
BRANCH   6  13
ATOM     12  C   UNL     1       7.398   4.870  13.888  0.00  0.00    +0.000 C 
ATOM     13  O   UNL     1       7.501   4.847  15.307  0.00  0.00    +0.000 OA
ENDBRANCH   6  13
ENDBRANCH   1   9
BRANCH   5  14
ATOM     14  C   UNL     1       2.063   4.914  19.930  0.00  0.00    +0.000 A 
ATOM     15  C   UNL     1       1.212   4.031  19.257  0.00  0.00    +0.000 A 
ATOM     16  C   UNL     1       0.836   2.825  19.857  0.00  0.00    +0.000 A 
ATOM     17  C   UNL     1       1.285   2.511  21.140  0.00  0.00    +0.000 A 
ATOM     18  C   UNL     1       2.141   3.378  21.806  0.00  0.00    +0.000 A 
ATOM     19  C   UNL     1       2.549   4.557  21.189  0.00  0.00    +0.000 A 
ENDBRANCH   5  14
BRANCH   2  20
ATOM     20  C   UNL     1       1.549   8.905  17.798  0.00  0.00    +0.000 C 
BRANCH  20  21
ATOM     21  C   UNL     1       1.860  10.381  18.052  0.00  0.00    +0.000 C 
BRANCH  21  22
ATOM     22  S   UNL     1       0.658  11.018  19.268  0.00  0.00    +0.000 S 
BRANCH  22  23
ATOM     23  C   UNL     1       1.187  12.698  19.575  0.00  0.00    +0.000 A 
ATOM     24  C   UNL     1       1.998  13.106  20.639  0.00  0.00    +0.000 A 
ATOM     25  C   UNL     1       2.316  14.459  20.812  0.00  0.00    +0.000 A 
ATOM     26  C   UNL     1       1.839  15.414  19.917  0.00  0.00    +0.000 A 
ATOM     27  C   UNL     1       1.048  15.018  18.843  0.00  0.00    +0.000 A 
ATOM     28  C   UNL     1       0.725  13.670  18.676  0.00  0.00    +0.000 A 
ENDBRANCH  22  23
ENDBRANCH  21  22
ENDBRANCH  20  21
ENDBRANCH   2  20
TORSDOF 7
ENDMDL
MODEL 8
REMARK VINA RESULT:      -8.2      4.803      7.272
REMARK  Name = 
REMARK  8 active torsions:
REMARK  status: ('A' for Active; 'I' for Inactive)
REMARK    1  A    between atoms: C_1  and  O_2
REMARK    2  A    between atoms: O_2  and  C_3
REMARK    3  A    between atoms: C_6  and  C_7
REMARK    4  A    between atoms: C_8  and  C_9
REMARK    5  A    between atoms: C_9  and  C_10
REMARK    6  A    between atoms: C_10  and  S_11
REMARK    7  A    between atoms: S_11  and  C_12
REMARK    8  A    between atoms: N_20  and  C_21
REMARK                            x       y       z     vdW  Elec       q    Type
REMARK                         _______ _______ _______ _____ _____    ______ ____
ROOT
ATOM      1  C   UNL     1       5.602   5.841  16.590  0.00  0.00    +0.000 C 
ATOM      2  C   UNL     1       6.793   6.389  17.466  0.00  0.00    +0.000 C 
ATOM      3  C   UNL     1       6.177   5.522  18.589  0.00  0.00    +0.000 C 
ATOM      4  O   UNL     1       6.362   5.391  19.767  0.00  0.00    +0.000 OA
ATOM      5  N   UNL     1       5.314   4.944  17.715  0.00  0.00    +0.000 N 
ENDROOT
BRANCH   1   9
ATOM      6  C   UNL     1       6.547   3.762  12.805  0.00  0.00    +0.000 A 
ATOM      7  C   UNL     1       5.281   3.660  13.375  0.00  0.00    +0.000 A 
ATOM      8  C   UNL     1       4.961   4.379  14.526  0.00  0.00    +0.000 A 
ATOM      9  C   UNL     1       5.911   5.178  15.186  0.00  0.00    +0.000 A 
ATOM     10  C   UNL     1       7.164   5.310  14.551  0.00  0.00    +0.000 A 
ATOM     11  C   UNL     1       7.490   4.601  13.390  0.00  0.00    +0.000 A 
BRANCH   6  13
ATOM     12  C   UNL     1       5.748   2.016  11.427  0.00  0.00    +0.000 C 
ATOM     13  O   UNL     1       6.745   2.997  11.691  0.00  0.00    +0.000 OA
ENDBRANCH   6  13
ENDBRANCH   1   9
BRANCH   5  14
ATOM     14  C   UNL     1       4.196   4.150  17.928  0.00  0.00    +0.000 A 
ATOM     15  C   UNL     1       4.260   2.754  17.856  0.00  0.00    +0.000 A 
ATOM     16  C   UNL     1       3.096   1.991  17.991  0.00  0.00    +0.000 A 
ATOM     17  C   UNL     1       1.864   2.619  18.171  0.00  0.00    +0.000 A 
ATOM     18  C   UNL     1       1.797   4.003  18.257  0.00  0.00    +0.000 A 
ATOM     19  C   UNL     1       2.962   4.759  18.165  0.00  0.00    +0.000 A 
ENDBRANCH   5  14
BRANCH   2  20
ATOM     20  C   UNL     1       6.801   7.882  17.779  0.00  0.00    +0.000 C 
BRANCH  20  21
ATOM     21  C   UNL     1       8.230   8.369  18.025  0.00  0.00    +0.000 C 
BRANCH  21  22
ATOM     22  S   UNL     1       8.331  10.122  17.530  0.00  0.00    +0.000 S 
BRANCH  22  23
ATOM     23  C   UNL     1       9.548  10.825  18.633  0.00  0.00    +0.000 A 
ATOM     24  C   UNL     1       9.396  10.969  20.015  0.00  0.00    +0.000 A 
ATOM     25  C   UNL     1      10.397  11.577  20.782  0.00  0.00    +0.000 A 
ATOM     26  C   UNL     1      11.566  12.035  20.178  0.00  0.00    +0.000 A 
ATOM     27  C   UNL     1      11.739  11.880  18.805  0.00  0.00    +0.000 A 
ATOM     28  C   UNL     1      10.736  11.280  18.042  0.00  0.00    +0.000 A 
ENDBRANCH  22  23
ENDBRANCH  21  22
ENDBRANCH  20  21
ENDBRANCH   2  20
TORSDOF 7
ENDMDL
MODEL 9
REMARK VINA RESULT:      -8.2      2.741      7.493
REMARK  Name = 
REMARK  8 active torsions:
REMARK  status: ('A' for Active; 'I' for Inactive)
REMARK    1  A    between atoms: C_1  and  O_2
REMARK    2  A    between atoms: O_2  and  C_3
REMARK    3  A    between atoms: C_6  and  C_7
REMARK    4  A    between atoms: C_8  and  C_9
REMARK    5  A    between atoms: C_9  and  C_10
REMARK    6  A    between atoms: C_10  and  S_11
REMARK    7  A    between atoms: S_11  and  C_12
REMARK    8  A    between atoms: N_20  and  C_21
REMARK                            x       y       z     vdW  Elec       q    Type
REMARK                         _______ _______ _______ _____ _____    ______ ____
ROOT
ATOM      1  C   UNL     1       3.506   6.422  18.757  0.00  0.00    +0.000 C 
ATOM      2  C   UNL     1       4.178   6.289  17.338  0.00  0.00    +0.000 C 
ATOM      3  C   UNL     1       3.788   4.796  17.452  0.00  0.00    +0.000 C 
ATOM      4  O   UNL     1       4.024   3.801  16.826  0.00  0.00    +0.000 OA
ATOM      5  N   UNL     1       3.054   5.040  18.568  0.00  0.00    +0.000 N 
ENDROOT
BRANCH   1   9
ATOM      6  C   UNL     1       0.621   9.696  19.462  0.00  0.00    +0.000 A 
ATOM      7  C   UNL     1       1.114   9.446  18.185  0.00  0.00    +0.000 A 
ATOM      8  C   UNL     1       1.962   8.365  17.951  0.00  0.00    +0.000 A 
ATOM      9  C   UNL     1       2.399   7.529  18.993  0.00  0.00    +0.000 A 
ATOM     10  C   UNL     1       1.833   7.769  20.263  0.00  0.00    +0.000 A 
ATOM     11  C   UNL     1       0.973   8.846  20.505  0.00  0.00    +0.000 A 
BRANCH   6  13
ATOM     12  C   UNL     1       0.335  12.002  19.027  0.00  0.00    +0.000 C 
ATOM     13  O   UNL     1      -0.186  10.793  19.568  0.00  0.00    +0.000 OA
ENDBRANCH   6  13
ENDBRANCH   1   9
BRANCH   5  14
ATOM     14  C   UNL     1       2.493   4.175  19.496  0.00  0.00    +0.000 A 
ATOM     15  C   UNL     1       1.113   3.950  19.553  0.00  0.00    +0.000 A 
ATOM     16  C   UNL     1       0.576   3.137  20.557  0.00  0.00    +0.000 A 
ATOM     17  C   UNL     1       1.410   2.572  21.521  0.00  0.00    +0.000 A 
ATOM     18  C   UNL     1       2.781   2.782  21.461  0.00  0.00    +0.000 A 
ATOM     19  C   UNL     1       3.319   3.555  20.436  0.00  0.00    +0.000 A 
ENDBRANCH   5  14
BRANCH   2  20
ATOM     20  C   UNL     1       5.683   6.524  17.252  0.00  0.00    +0.000 C 
BRANCH  20  21
ATOM     21  C   UNL     1       6.150   6.473  15.796  0.00  0.00    +0.000 C 
BRANCH  21  22
ATOM     22  S   UNL     1       7.173   4.979  15.575  0.00  0.00    +0.000 S 
BRANCH  22  23
ATOM     23  C   UNL     1       6.680   4.335  13.982  0.00  0.00    +0.000 A 
ATOM     24  C   UNL     1       7.490   4.294  12.843  0.00  0.00    +0.000 A 
ATOM     25  C   UNL     1       6.987   3.809  11.630  0.00  0.00    +0.000 A 
ATOM     26  C   UNL     1       5.676   3.348  11.545  0.00  0.00    +0.000 A 
ATOM     27  C   UNL     1       4.865   3.364  12.677  0.00  0.00    +0.000 A 
ATOM     28  C   UNL     1       5.365   3.856  13.884  0.00  0.00    +0.000 A 
ENDBRANCH  22  23
ENDBRANCH  21  22
ENDBRANCH  20  21
ENDBRANCH   2  20
TORSDOF 7
ENDMDL
