MODEL 1
REMARK VINA RESULT:      -6.7      0.000      0.000
REMARK  Name = 
REMARK  5 active torsions:
REMARK  status: ('A' for Active; 'I' for Inactive)
REMARK    1  A    between atoms: C_2  and  O_3
REMARK    2  A    between atoms: C_2  and  C_13
REMARK    3  A    between atoms: O_3  and  C_4
REMARK    4  A    between atoms: C_4  and  C_5
REMARK    5  A    between atoms: C_5  and  N_6
REMARK                            x       y       z     vdW  Elec       q    Type
REMARK                         _______ _______ _______ _____ _____    ______ ____
ROOT
ATOM      1  C   UNL     1       5.517   4.648  19.327  0.00  0.00    +0.000 C 
ENDROOT
BRANCH   1   2
ATOM      2  O   UNL     1       5.226   3.301  18.922  0.00  0.00    +0.000 OA
BRANCH   2   4
ATOM      3  O   UNL     1       5.167   1.834  20.680  0.00  0.00    +0.000 OA
ATOM      4  C   UNL     1       4.588   2.528  19.853  0.00  0.00    +0.000 C 
BRANCH   4   5
ATOM      5  C   UNL     1       3.130   2.621  19.764  0.00  0.00    +0.000 A 
ATOM      6  C   UNL     1       2.419   2.331  18.609  0.00  0.00    +0.000 A 
ATOM      7  S   UNL     1       0.739   2.547  18.864  0.00  0.00    +0.000 S 
ATOM      8  C   UNL     1       1.065   3.006  20.482  0.00  0.00    +0.000 A 
ATOM      9  N   UNL     1       2.328   3.008  20.842  0.00  0.00    +0.000 NA
ENDBRANCH   4   5
ENDBRANCH   2   4
ENDBRANCH   1   2
BRANCH   1  10
ATOM     10  C   UNL     1       4.765   5.666  18.459  0.00  0.00    +0.000 C 
BRANCH  10  11
ATOM     11  N   UNL     1       5.676   6.308  17.526  0.00  0.00    +0.000 N 
ATOM     12  C   UNL     1       6.047   5.669  16.352  0.00  0.00    +0.000 A 
ATOM     13  C   UNL     1       5.204   4.838  15.629  0.00  0.00    +0.000 A 
ATOM     14  C   UNL     1       5.638   4.294  14.423  0.00  0.00    +0.000 A 
ATOM     15  C   UNL     1       6.901   4.617  13.979  0.00  0.00    +0.000 A 
ATOM     16  N   UNL     1       7.716   5.422  14.681  0.00  0.00    +0.000 NA
ATOM     17  N   UNL     1       7.278   5.948  15.874  0.00  0.00    +0.000 NA
ATOM     18  H   UNL     1       6.517   6.722  17.927  0.00  0.00    +0.000 HD
ENDBRANCH  10  11
ENDBRANCH   1  10
TORSDOF 5
ENDMDL
MODEL 2
REMARK VINA RESULT:      -6.4      2.981      6.801
REMARK  Name = 
REMARK  5 active torsions:
REMARK  status: ('A' for Active; 'I' for Inactive)
REMARK    1  A    between atoms: C_2  and  O_3
REMARK    2  A    between atoms: C_2  and  C_13
REMARK    3  A    between atoms: O_3  and  C_4
REMARK    4  A    between atoms: C_4  and  C_5
REMARK    5  A    between atoms: C_5  and  N_6
REMARK                            x       y       z     vdW  Elec       q    Type
REMARK                         _______ _______ _______ _____ _____    ______ ____
ROOT
ATOM      1  C   UNL     1       5.145   4.619  17.723  0.00  0.00    +0.000 C 
ENDROOT
BRANCH   1   2
ATOM      2  O   UNL     1       5.383   5.362  16.517  0.00  0.00    +0.000 OA
BRANCH   2   4
ATOM      3  O   UNL     1       7.630   5.726  16.769  0.00  0.00    +0.000 OA
ATOM      4  C   UNL     1       6.678   5.382  16.078  0.00  0.00    +0.000 C 
BRANCH   4   5
ATOM      5  C   UNL     1       6.813   4.937  14.690  0.00  0.00    +0.000 A 
ATOM      6  C   UNL     1       6.051   3.916  14.142  0.00  0.00    +0.000 A 
ATOM      7  S   UNL     1       6.475   3.662  12.502  0.00  0.00    +0.000 S 
ATOM      8  C   UNL     1       7.633   4.919  12.627  0.00  0.00    +0.000 A 
ATOM      9  N   UNL     1       7.723   5.510  13.796  0.00  0.00    +0.000 NA
ENDBRANCH   4   5
ENDBRANCH   2   4
ENDBRANCH   1   2
BRANCH   1  10
ATOM     10  C   UNL     1       4.311   3.361  17.447  0.00  0.00    +0.000 C 
BRANCH  10  11
ATOM     11  N   UNL     1       4.243   2.528  18.636  0.00  0.00    +0.000 N 
ATOM     12  C   UNL     1       3.258   2.740  19.589  0.00  0.00    +0.000 A 
ATOM     13  C   UNL     1       1.972   3.165  19.284  0.00  0.00    +0.000 A 
ATOM     14  C   UNL     1       1.027   3.285  20.299  0.00  0.00    +0.000 A 
ATOM     15  C   UNL     1       1.403   2.959  21.583  0.00  0.00    +0.000 A 
ATOM     16  N   UNL     1       2.648   2.548  21.875  0.00  0.00    +0.000 NA
ATOM     17  N   UNL     1       3.576   2.441  20.866  0.00  0.00    +0.000 NA
ATOM     18  H   UNL     1       5.120   2.375  19.132  0.00  0.00    +0.000 HD
ENDBRANCH  10  11
ENDBRANCH   1  10
TORSDOF 5
ENDMDL
MODEL 3
REMARK VINA RESULT:      -6.4      1.649      2.240
REMARK  Name = 
REMARK  5 active torsions:
REMARK  status: ('A' for Active; 'I' for Inactive)
REMARK    1  A    between atoms: C_2  and  O_3
REMARK    2  A    between atoms: C_2  and  C_13
REMARK    3  A    between atoms: O_3  and  C_4
REMARK    4  A    between atoms: C_4  and  C_5
REMARK    5  A    between atoms: C_5  and  N_6
REMARK                            x       y       z     vdW  Elec       q    Type
REMARK                         _______ _______ _______ _____ _____    ______ ____
ROOT
ATOM      1  C   UNL     1       5.577   5.110  17.729  0.00  0.00    +0.000 C 
ENDROOT
BRANCH   1   2
ATOM      2  O   UNL     1       4.993   3.975  18.387  0.00  0.00    +0.000 OA
BRANCH   2   4
ATOM      3  O   UNL     1       3.300   3.564  16.901  0.00  0.00    +0.000 OA
ATOM      4  C   UNL     1       3.696   3.699  18.053  0.00  0.00    +0.000 C 
BRANCH   4   5
ATOM      5  C   UNL     1       2.823   3.572  19.221  0.00  0.00    +0.000 A 
ATOM      6  C   UNL     1       3.130   2.777  20.315  0.00  0.00    +0.000 A 
ATOM      7  S   UNL     1       1.888   2.866  21.492  0.00  0.00    +0.000 S 
ATOM      8  C   UNL     1       1.033   3.949  20.478  0.00  0.00    +0.000 A 
ATOM      9  N   UNL     1       1.605   4.248  19.334  0.00  0.00    +0.000 NA
ENDBRANCH   4   5
ENDBRANCH   2   4
ENDBRANCH   1   2
BRANCH   1  10
ATOM     10  C   UNL     1       6.949   4.764  17.135  0.00  0.00    +0.000 C 
BRANCH  10  11
ATOM     11  N   UNL     1       7.199   5.559  15.943  0.00  0.00    +0.000 N 
ATOM     12  C   UNL     1       7.083   4.992  14.682  0.00  0.00    +0.000 A 
ATOM     13  C   UNL     1       6.153   4.014  14.361  0.00  0.00    +0.000 A 
ATOM     14  C   UNL     1       6.061   3.552  13.051  0.00  0.00    +0.000 A 
ATOM     15  C   UNL     1       6.898   4.103  12.106  0.00  0.00    +0.000 A 
ATOM     16  N   UNL     1       7.797   5.050  12.419  0.00  0.00    +0.000 NA
ATOM     17  N   UNL     1       7.884   5.492  13.718  0.00  0.00    +0.000 NA
ATOM     18  H   UNL     1       8.047   6.124  15.947  0.00  0.00    +0.000 HD
ENDBRANCH  10  11
ENDBRANCH   1  10
TORSDOF 5
ENDMDL
MODEL 4
REMARK VINA RESULT:      -6.3      2.826      6.270
REMARK  Name = 
REMARK  5 active torsions:
REMARK  status: ('A' for Active; 'I' for Inactive)
REMARK    1  A    between atoms: C_2  and  O_3
REMARK    2  A    between atoms: C_2  and  C_13
REMARK    3  A    between atoms: O_3  and  C_4
REMARK    4  A    between atoms: C_4  and  C_5
REMARK    5  A    between atoms: C_5  and  N_6
REMARK                            x       y       z     vdW  Elec       q    Type
REMARK                         _______ _______ _______ _____ _____    ______ ____
ROOT
ATOM      1  C   UNL     1       6.832   4.853  18.444  0.00  0.00    +0.000 C 
ENDROOT
BRANCH   1   2
ATOM      2  O   UNL     1       6.357   4.755  17.093  0.00  0.00    +0.000 OA
BRANCH   2   4
ATOM      3  O   UNL     1       7.527   6.624  16.474  0.00  0.00    +0.000 OA
ATOM      4  C   UNL     1       6.981   5.565  16.185  0.00  0.00    +0.000 C 
BRANCH   4   5
ATOM      5  C   UNL     1       6.938   5.030  14.823  0.00  0.00    +0.000 A 
ATOM      6  C   UNL     1       6.011   4.086  14.408  0.00  0.00    +0.000 A 
ATOM      7  S   UNL     1       6.255   3.689  12.759  0.00  0.00    +0.000 S 
ATOM      8  C   UNL     1       7.564   4.792  12.707  0.00  0.00    +0.000 A 
ATOM      9  N   UNL     1       7.829   5.431  13.823  0.00  0.00    +0.000 NA
ENDBRANCH   4   5
ENDBRANCH   2   4
ENDBRANCH   1   2
BRANCH   1  10
ATOM     10  C   UNL     1       5.683   4.706  19.451  0.00  0.00    +0.000 C 
BRANCH  10  11
ATOM     11  N   UNL     1       5.069   3.394  19.330  0.00  0.00    +0.000 N 
ATOM     12  C   UNL     1       3.714   3.273  19.057  0.00  0.00    +0.000 A 
ATOM     13  C   UNL     1       3.011   4.155  18.249  0.00  0.00    +0.000 A 
ATOM     14  C   UNL     1       1.667   3.916  17.973  0.00  0.00    +0.000 A 
ATOM     15  C   UNL     1       1.081   2.790  18.508  0.00  0.00    +0.000 A 
ATOM     16  N   UNL     1       1.764   1.938  19.290  0.00  0.00    +0.000 NA
ATOM     17  N   UNL     1       3.089   2.188  19.561  0.00  0.00    +0.000 NA
ATOM     18  H   UNL     1       5.294   2.721  20.061  0.00  0.00    +0.000 HD
ENDBRANCH  10  11
ENDBRANCH   1  10
TORSDOF 5
ENDMDL
MODEL 5
REMARK VINA RESULT:      -6.2      1.953      2.610
REMARK  Name = 
REMARK  5 active torsions:
REMARK  status: ('A' for Active; 'I' for Inactive)
REMARK    1  A    between atoms: C_2  and  O_3
REMARK    2  A    between atoms: C_2  and  C_13
REMARK    3  A    between atoms: O_3  and  C_4
REMARK    4  A    between atoms: C_4  and  C_5
REMARK    5  A    between atoms: C_5  and  N_6
REMARK                            x       y       z     vdW  Elec       q    Type
REMARK                         _______ _______ _______ _____ _____    ______ ____
ROOT
ATOM      1  C   UNL     1       7.641   5.109  18.442  0.00  0.00    +0.000 C 
ENDROOT
BRANCH   1   2
ATOM      2  O   UNL     1       6.515   5.080  19.333  0.00  0.00    +0.000 OA
BRANCH   2   4
ATOM      3  O   UNL     1       4.863   6.148  18.161  0.00  0.00    +0.000 OA
ATOM      4  C   UNL     1       5.286   5.153  18.738  0.00  0.00    +0.000 C 
BRANCH   4   5
ATOM      5  C   UNL     1       4.524   3.908  18.854  0.00  0.00    +0.000 A 
ATOM      6  C   UNL     1       3.395   3.636  18.097  0.00  0.00    +0.000 A 
ATOM      7  S   UNL     1       2.760   2.095  18.495  0.00  0.00    +0.000 S 
ATOM      8  C   UNL     1       4.021   1.893  19.636  0.00  0.00    +0.000 A 
ATOM      9  N   UNL     1       4.875   2.885  19.740  0.00  0.00    +0.000 NA
ENDBRANCH   4   5
ENDBRANCH   2   4
ENDBRANCH   1   2
BRANCH   1  10
ATOM     10  C   UNL     1       7.318   4.413  17.113  0.00  0.00    +0.000 C 
BRANCH  10  11
ATOM     11  N   UNL     1       7.430   5.353  16.009  0.00  0.00    +0.000 N 
ATOM     12  C   UNL     1       7.242   4.928  14.702  0.00  0.00    +0.000 A 
ATOM     13  C   UNL     1       6.341   3.939  14.336  0.00  0.00    +0.000 A 
ATOM     14  C   UNL     1       6.169   3.625  12.991  0.00  0.00    +0.000 A 
ATOM     15  C   UNL     1       6.897   4.330  12.058  0.00  0.00    +0.000 A 
ATOM     16  N   UNL     1       7.768   5.288  12.415  0.00  0.00    +0.000 NA
ATOM     17  N   UNL     1       7.936   5.584  13.747  0.00  0.00    +0.000 NA
ATOM     18  H   UNL     1       8.244   5.965  16.017  0.00  0.00    +0.000 HD
ENDBRANCH  10  11
ENDBRANCH   1  10
TORSDOF 5
ENDMDL
MODEL 6
REMARK VINA RESULT:      -6.2      1.780      2.151
REMARK  Name = 
REMARK  5 active torsions:
REMARK  status: ('A' for Active; 'I' for Inactive)
REMARK    1  A    between atoms: C_2  and  O_3
REMARK    2  A    between atoms: C_2  and  C_13
REMARK    3  A    between atoms: O_3  and  C_4
REMARK    4  A    between atoms: C_4  and  C_5
REMARK    5  A    between atoms: C_5  and  N_6
REMARK                            x       y       z     vdW  Elec       q    Type
REMARK                         _______ _______ _______ _____ _____    ______ ____
ROOT
ATOM      1  C   UNL     1       5.157   5.323  19.333  0.00  0.00    +0.000 C 
ENDROOT
BRANCH   1   2
ATOM      2  O   UNL     1       4.077   5.763  18.494  0.00  0.00    +0.000 OA
BRANCH   2   4
ATOM      3  O   UNL     1       2.481   7.094  19.455  0.00  0.00    +0.000 OA
ATOM      4  C   UNL     1       2.887   5.985  19.129  0.00  0.00    +0.000 C 
BRANCH   4   5
ATOM      5  C   UNL     1       2.136   4.752  19.374  0.00  0.00    +0.000 A 
ATOM      6  C   UNL     1       1.716   3.905  18.359  0.00  0.00    +0.000 A 
ATOM      7  S   UNL     1       0.868   2.564  19.007  0.00  0.00    +0.000 S 
ATOM      8  C   UNL     1       1.116   3.193  20.581  0.00  0.00    +0.000 A 
ATOM      9  N   UNL     1       1.782   4.322  20.656  0.00  0.00    +0.000 NA
ENDBRANCH   4   5
ENDBRANCH   2   4
ENDBRANCH   1   2
BRANCH   1  10
ATOM     10  C   UNL     1       6.293   4.711  18.503  0.00  0.00    +0.000 C 
BRANCH  10  11
ATOM     11  N   UNL     1       6.670   5.606  17.421  0.00  0.00    +0.000 N 
ATOM     12  C   UNL     1       6.710   5.149  16.112  0.00  0.00    +0.000 A 
ATOM     13  C   UNL     1       5.839   4.198  15.602  0.00  0.00    +0.000 A 
ATOM     14  C   UNL     1       5.909   3.849  14.255  0.00  0.00    +0.000 A 
ATOM     15  C   UNL     1       6.842   4.483  13.465  0.00  0.00    +0.000 A 
ATOM     16  N   UNL     1       7.684   5.404  13.962  0.00  0.00    +0.000 NA
ATOM     17  N   UNL     1       7.612   5.734  15.294  0.00  0.00    +0.000 NA
ATOM     18  H   UNL     1       7.503   6.173  17.573  0.00  0.00    +0.000 HD
ENDBRANCH  10  11
ENDBRANCH   1  10
TORSDOF 5
ENDMDL
MODEL 7
REMARK VINA RESULT:      -6.2      1.844      2.190
REMARK  Name = 
REMARK  5 active torsions:
REMARK  status: ('A' for Active; 'I' for Inactive)
REMARK    1  A    between atoms: C_2  and  O_3
REMARK    2  A    between atoms: C_2  and  C_13
REMARK    3  A    between atoms: O_3  and  C_4
REMARK    4  A    between atoms: C_4  and  C_5
REMARK    5  A    between atoms: C_5  and  N_6
REMARK                            x       y       z     vdW  Elec       q    Type
REMARK                         _______ _______ _______ _____ _____    ______ ____
ROOT
ATOM      1  C   UNL     1       4.131   4.687  17.214  0.00  0.00    +0.000 C 
ENDROOT
BRANCH   1   2
ATOM      2  O   UNL     1       3.207   3.614  16.979  0.00  0.00    +0.000 OA
BRANCH   2   4
ATOM      3  O   UNL     1       3.675   1.517  17.769  0.00  0.00    +0.000 OA
ATOM      4  C   UNL     1       3.187   2.630  17.927  0.00  0.00    +0.000 C 
BRANCH   4   5
ATOM      5  C   UNL     1       2.525   3.047  19.164  0.00  0.00    +0.000 A 
ATOM      6  C   UNL     1       2.940   2.637  20.423  0.00  0.00    +0.000 A 
ATOM      7  S   UNL     1       1.938   3.314  21.637  0.00  0.00    +0.000 S 
ATOM      8  C   UNL     1       1.029   4.104  20.419  0.00  0.00    +0.000 A 
ATOM      9  N   UNL     1       1.417   3.900  19.181  0.00  0.00    +0.000 NA
ENDBRANCH   4   5
ENDBRANCH   2   4
ENDBRANCH   1   2
BRANCH   1  10
ATOM     10  C   UNL     1       5.570   4.266  16.885  0.00  0.00    +0.000 C 
BRANCH  10  11
ATOM     11  N   UNL     1       6.186   5.230  15.988  0.00  0.00    +0.000 N 
ATOM     12  C   UNL     1       6.553   4.860  14.702  0.00  0.00    +0.000 A 
ATOM     13  C   UNL     1       5.846   3.945  13.934  0.00  0.00    +0.000 A 
ATOM     14  C   UNL     1       6.248   3.686  12.626  0.00  0.00    +0.000 A 
ATOM     15  C   UNL     1       7.337   4.369  12.131  0.00  0.00    +0.000 A 
ATOM     16  N   UNL     1       8.019   5.253  12.877  0.00  0.00    +0.000 NA
ATOM     17  N   UNL     1       7.618   5.495  14.170  0.00  0.00    +0.000 NA
ATOM     18  H   UNL     1       6.949   5.784  16.375  0.00  0.00    +0.000 HD
ENDBRANCH  10  11
ENDBRANCH   1  10
TORSDOF 5
ENDMDL
MODEL 8
REMARK VINA RESULT:      -6.0      2.680      5.939
REMARK  Name = 
REMARK  5 active torsions:
REMARK  status: ('A' for Active; 'I' for Inactive)
REMARK    1  A    between atoms: C_2  and  O_3
REMARK    2  A    between atoms: C_2  and  C_13
REMARK    3  A    between atoms: O_3  and  C_4
REMARK    4  A    between atoms: C_4  and  C_5
REMARK    5  A    between atoms: C_5  and  N_6
REMARK                            x       y       z     vdW  Elec       q    Type
REMARK                         _______ _______ _______ _____ _____    ______ ____
ROOT
ATOM      1  C   UNL     1       4.789   5.985  17.429  0.00  0.00    +0.000 C 
ENDROOT
BRANCH   1   2
ATOM      2  O   UNL     1       5.604   5.100  18.214  0.00  0.00    +0.000 OA
BRANCH   2   4
ATOM      3  O   UNL     1       7.830   4.573  18.316  0.00  0.00    +0.000 OA
ATOM      4  C   UNL     1       6.810   4.762  17.665  0.00  0.00    +0.000 C 
BRANCH   4   5
ATOM      5  C   UNL     1       6.755   4.638  16.207  0.00  0.00    +0.000 A 
ATOM      6  C   UNL     1       5.950   3.717  15.553  0.00  0.00    +0.000 A 
ATOM      7  S   UNL     1       6.139   3.851  13.855  0.00  0.00    +0.000 S 
ATOM      8  C   UNL     1       7.266   5.118  14.101  0.00  0.00    +0.000 A 
ATOM      9  N   UNL     1       7.508   5.445  15.349  0.00  0.00    +0.000 NA
ENDBRANCH   4   5
ENDBRANCH   2   4
ENDBRANCH   1   2
BRANCH   1  10
ATOM     10  C   UNL     1       3.594   6.506  18.238  0.00  0.00    +0.000 C 
BRANCH  10  11
ATOM     11  N   UNL     1       2.375   5.820  17.840  0.00  0.00    +0.000 N 
ATOM     12  C   UNL     1       1.984   4.653  18.479  0.00  0.00    +0.000 A 
ATOM     13  C   UNL     1       2.198   4.405  19.827  0.00  0.00    +0.000 A 
ATOM     14  C   UNL     1       1.708   3.234  20.399  0.00  0.00    +0.000 A 
ATOM     15  C   UNL     1       1.006   2.361  19.599  0.00  0.00    +0.000 A 
ATOM     16  N   UNL     1       0.800   2.603  18.294  0.00  0.00    +0.000 NA
ATOM     17  N   UNL     1       1.295   3.759  17.738  0.00  0.00    +0.000 NA
ATOM     18  H   UNL     1       2.242   5.680  16.839  0.00  0.00    +0.000 HD
ENDBRANCH  10  11
ENDBRANCH   1  10
TORSDOF 5
ENDMDL
MODEL 9
REMARK VINA RESULT:      -6.0      3.009      6.537
REMARK  Name = 
REMARK  5 active torsions:
REMARK  status: ('A' for Active; 'I' for Inactive)
REMARK    1  A    between atoms: C_2  and  O_3
REMARK    2  A    between atoms: C_2  and  C_13
REMARK    3  A    between atoms: O_3  and  C_4
REMARK    4  A    between atoms: C_4  and  C_5
REMARK    5  A    between atoms: C_5  and  N_6
REMARK                            x       y       z     vdW  Elec       q    Type
REMARK                         _______ _______ _______ _____ _____    ______ ____
ROOT
ATOM      1  C   UNL     1       5.327   6.549  17.321  0.00  0.00    +0.000 C 
ENDROOT
BRANCH   1   2
ATOM      2  O   UNL     1       6.146   6.553  16.141  0.00  0.00    +0.000 OA
BRANCH   2   4
ATOM      3  O   UNL     1       7.610   4.954  16.880  0.00  0.00    +0.000 OA
ATOM      4  C   UNL     1       6.955   5.463  15.978  0.00  0.00    +0.000 C 
BRANCH   4   5
ATOM      5  C   UNL     1       6.954   4.956  14.604  0.00  0.00    +0.000 A 
ATOM      6  C   UNL     1       6.109   3.947  14.168  0.00  0.00    +0.000 A 
ATOM      7  S   UNL     1       6.381   3.608  12.510  0.00  0.00    +0.000 S 
ATOM      8  C   UNL     1       7.592   4.818  12.482  0.00  0.00    +0.000 A 
ATOM      9  N   UNL     1       7.805   5.453  13.612  0.00  0.00    +0.000 NA
ENDBRANCH   4   5
ENDBRANCH   2   4
ENDBRANCH   1   2
BRANCH   1  10
ATOM     10  C   UNL     1       4.352   5.364  17.318  0.00  0.00    +0.000 C 
BRANCH  10  11
ATOM     11  N   UNL     1       4.230   4.805  18.654  0.00  0.00    +0.000 N 
ATOM     12  C   UNL     1       3.023   4.274  19.088  0.00  0.00    +0.000 A 
ATOM     13  C   UNL     1       2.135   3.607  18.258  0.00  0.00    +0.000 A 
ATOM     14  C   UNL     1       0.979   3.045  18.794  0.00  0.00    +0.000 A 
ATOM     15  C   UNL     1       0.765   3.161  20.149  0.00  0.00    +0.000 A 
ATOM     16  N   UNL     1       1.628   3.808  20.951  0.00  0.00    +0.000 NA
ATOM     17  N   UNL     1       2.762   4.365  20.409  0.00  0.00    +0.000 NA
ATOM     18  H   UNL     1       4.607   5.368  19.416  0.00  0.00    +0.000 HD
ENDBRANCH  10  11
ENDBRANCH   1  10
TORSDOF 5
ENDMDL
