MODEL 1
REMARK VINA RESULT:      -8.3      0.000      0.000
REMARK  Name = 
REMARK  6 active torsions:
REMARK  status: ('A' for Active; 'I' for Inactive)
REMARK    1  A    between atoms: C_2  and  C_3
REMARK    2  A    between atoms: C_5  and  C_6
REMARK    3  A    between atoms: C_6  and  C_7
REMARK    4  A    between atoms: C_18  and  N_19
REMARK    5  A    between atoms: N_19  and  C_20
REMARK    6  A    between atoms: C_20  and  C_21
REMARK                            x       y       z     vdW  Elec       q    Type
REMARK                         _______ _______ _______ _____ _____    ______ ____
ROOT
ATOM      1  C   UNL     1       1.581   3.697  19.578  0.00  0.00    +0.000 A 
ATOM      2  N   UNL     1       0.917   4.792  20.091  0.00  0.00    +0.000 NA
ATOM      3  C   UNL     1       1.894   5.583  20.490  0.00  0.00    +0.000 A 
ATOM      4  O   UNL     1       3.151   5.093  20.248  0.00  0.00    +0.000 OA
ATOM      5  C   UNL     1       2.948   3.863  19.684  0.00  0.00    +0.000 A 
ENDROOT
BRANCH   1   7
ATOM      6  N   UNL     1       0.300   1.744  18.463  0.00  0.00    +0.000 NA
ATOM      7  C   UNL     1       0.871   2.612  18.978  0.00  0.00    +0.000 C 
ENDBRANCH   1   7
BRANCH   5   8
ATOM      8  N   UNL     1       4.072   3.181  19.374  0.00  0.00    +0.000 N 
ATOM      9  H   UNL     1       4.281   2.348  19.920  0.00  0.00    +0.000 HD
BRANCH   8  10
ATOM     10  C   UNL     1       4.639   3.169  18.036  0.00  0.00    +0.000 C 
BRANCH  10  11
ATOM     11  C   UNL     1       5.286   4.501  17.714  0.00  0.00    +0.000 A 
ATOM     12  C   UNL     1       4.723   5.352  16.732  0.00  0.00    +0.000 A 
ATOM     13  C   UNL     1       5.276   6.608  16.457  0.00  0.00    +0.000 A 
ATOM     14  C   UNL     1       6.391   6.988  17.170  0.00  0.00    +0.000 A 
ATOM     15  C   UNL     1       6.948   6.173  18.125  0.00  0.00    +0.000 A 
ATOM     16  C   UNL     1       6.423   4.930  18.421  0.00  0.00    +0.000 A 
ATOM     17  O   UNL     1       8.037   6.737  18.716  0.00  0.00    +0.000 OA
ATOM     18  C   UNL     1       8.121   7.985  17.993  0.00  0.00    +0.000 C 
ATOM     19  O   UNL     1       7.055   8.168  17.040  0.00  0.00    +0.000 OA
ENDBRANCH  10  11
ENDBRANCH   8  10
ENDBRANCH   5   8
BRANCH   3  20
ATOM     20  C   UNL     1       1.809   6.957  21.064  0.00  0.00    +0.000 C 
BRANCH  20  21
ATOM     21  C   UNL     1       1.628   8.060  20.034  0.00  0.00    +0.000 A 
ATOM     22  C   UNL     1       2.241   7.885  18.778  0.00  0.00    +0.000 A 
ATOM     23  C   UNL     1       2.186   8.881  17.809  0.00  0.00    +0.000 A 
ATOM     24  C   UNL     1       1.512  10.068  18.076  0.00  0.00    +0.000 A 
ATOM     25  C   UNL     1       0.861  10.266  19.300  0.00  0.00    +0.000 A 
ATOM     26  C   UNL     1       0.173  11.468  19.533  0.00  0.00    +0.000 A 
ATOM     27  C   UNL     1      -0.499  11.690  20.732  0.00  0.00    +0.000 A 
ATOM     28  C   UNL     1      -0.488  10.710  21.715  0.00  0.00    +0.000 A 
ATOM     29  C   UNL     1       0.203   9.513  21.504  0.00  0.00    +0.000 A 
ATOM     30  C   UNL     1       0.898   9.256  20.298  0.00  0.00    +0.000 A 
ENDBRANCH  20  21
ENDBRANCH   3  20
TORSDOF 6
ENDMDL
MODEL 2
REMARK VINA RESULT:      -8.2      2.045      2.998
REMARK  Name = 
REMARK  6 active torsions:
REMARK  status: ('A' for Active; 'I' for Inactive)
REMARK    1  A    between atoms: C_2  and  C_3
REMARK    2  A    between atoms: C_5  and  C_6
REMARK    3  A    between atoms: C_6  and  C_7
REMARK    4  A    between atoms: C_18  and  N_19
REMARK    5  A    between atoms: N_19  and  C_20
REMARK    6  A    between atoms: C_20  and  C_21
REMARK                            x       y       z     vdW  Elec       q    Type
REMARK                         _______ _______ _______ _____ _____    ______ ____
ROOT
ATOM      1  C   UNL     1       2.285   4.802  20.684  0.00  0.00    +0.000 A 
ATOM      2  N   UNL     1       1.543   5.964  20.690  0.00  0.00    +0.000 NA
ATOM      3  C   UNL     1       2.200   6.752  19.861  0.00  0.00    +0.000 A 
ATOM      4  O   UNL     1       3.307   6.176  19.293  0.00  0.00    +0.000 OA
ATOM      5  C   UNL     1       3.376   4.926  19.846  0.00  0.00    +0.000 A 
ENDROOT
BRANCH   1   7
ATOM      6  N   UNL     1       1.505   2.727  22.020  0.00  0.00    +0.000 NA
ATOM      7  C   UNL     1       1.871   3.652  21.424  0.00  0.00    +0.000 C 
ENDBRANCH   1   7
BRANCH   5   8
ATOM      8  N   UNL     1       4.420   4.174  19.433  0.00  0.00    +0.000 N 
ATOM      9  H   UNL     1       5.027   3.782  20.150  0.00  0.00    +0.000 HD
BRANCH   8  10
ATOM     10  C   UNL     1       4.399   3.414  18.194  0.00  0.00    +0.000 C 
BRANCH  10  11
ATOM     11  C   UNL     1       5.313   4.043  17.163  0.00  0.00    +0.000 A 
ATOM     12  C   UNL     1       6.248   5.036  17.545  0.00  0.00    +0.000 A 
ATOM     13  C   UNL     1       7.136   5.593  16.617  0.00  0.00    +0.000 A 
ATOM     14  C   UNL     1       7.067   5.146  15.316  0.00  0.00    +0.000 A 
ATOM     15  C   UNL     1       6.163   4.186  14.931  0.00  0.00    +0.000 A 
ATOM     16  C   UNL     1       5.278   3.616  15.824  0.00  0.00    +0.000 A 
ATOM     17  O   UNL     1       6.263   3.883  13.607  0.00  0.00    +0.000 OA
ATOM     18  C   UNL     1       7.306   4.794  13.199  0.00  0.00    +0.000 C 
ATOM     19  O   UNL     1       7.849   5.569  14.287  0.00  0.00    +0.000 OA
ENDBRANCH  10  11
ENDBRANCH   8  10
ENDBRANCH   5   8
BRANCH   3  20
ATOM     20  C   UNL     1       1.845   8.124  19.395  0.00  0.00    +0.000 C 
BRANCH  20  21
ATOM     21  C   UNL     1       1.100   8.963  20.419  0.00  0.00    +0.000 A 
ATOM     22  C   UNL     1       1.336   8.691  21.781  0.00  0.00    +0.000 A 
ATOM     23  C   UNL     1       0.637   9.363  22.778  0.00  0.00    +0.000 A 
ATOM     24  C   UNL     1      -0.308  10.323  22.432  0.00  0.00    +0.000 A 
ATOM     25  C   UNL     1      -0.547  10.646  21.091  0.00  0.00    +0.000 A 
ATOM     26  C   UNL     1      -1.495  11.633  20.773  0.00  0.00    +0.000 A 
ATOM     27  C   UNL     1      -1.745  11.991  19.451  0.00  0.00    +0.000 A 
ATOM     28  C   UNL     1      -1.050  11.360  18.428  0.00  0.00    +0.000 A 
ATOM     29  C   UNL     1      -0.112  10.366  18.726  0.00  0.00    +0.000 A 
ATOM     30  C   UNL     1       0.164   9.977  20.059  0.00  0.00    +0.000 A 
ENDBRANCH  20  21
ENDBRANCH   3  20
TORSDOF 6
ENDMDL
MODEL 3
REMARK VINA RESULT:      -8.2      1.536      2.411
REMARK  Name = 
REMARK  6 active torsions:
REMARK  status: ('A' for Active; 'I' for Inactive)
REMARK    1  A    between atoms: C_2  and  C_3
REMARK    2  A    between atoms: C_5  and  C_6
REMARK    3  A    between atoms: C_6  and  C_7
REMARK    4  A    between atoms: C_18  and  N_19
REMARK    5  A    between atoms: N_19  and  C_20
REMARK    6  A    between atoms: C_20  and  C_21
REMARK                            x       y       z     vdW  Elec       q    Type
REMARK                         _______ _______ _______ _____ _____    ______ ____
ROOT
ATOM      1  C   UNL     1       1.833   4.606  20.276  0.00  0.00    +0.000 A 
ATOM      2  N   UNL     1       1.872   5.927  20.670  0.00  0.00    +0.000 NA
ATOM      3  C   UNL     1       2.013   6.582  19.533  0.00  0.00    +0.000 A 
ATOM      4  O   UNL     1       2.043   5.781  18.421  0.00  0.00    +0.000 OA
ATOM      5  C   UNL     1       1.954   4.503  18.904  0.00  0.00    +0.000 A 
ENDROOT
BRANCH   1   7
ATOM      6  N   UNL     1       1.437   2.690  21.971  0.00  0.00    +0.000 NA
ATOM      7  C   UNL     1       1.627   3.555  21.221  0.00  0.00    +0.000 C 
ENDBRANCH   1   7
BRANCH   5   8
ATOM      8  N   UNL     1       1.981   3.532  17.965  0.00  0.00    +0.000 N 
ATOM      9  H   UNL     1       1.369   3.642  17.160  0.00  0.00    +0.000 HD
BRANCH   8  10
ATOM     10  C   UNL     1       3.161   2.723  17.706  0.00  0.00    +0.000 C 
BRANCH  10  11
ATOM     11  C   UNL     1       4.400   3.591  17.625  0.00  0.00    +0.000 A 
ATOM     12  C   UNL     1       4.863   4.063  16.372  0.00  0.00    +0.000 A 
ATOM     13  C   UNL     1       5.975   4.907  16.280  0.00  0.00    +0.000 A 
ATOM     14  C   UNL     1       6.610   5.261  17.450  0.00  0.00    +0.000 A 
ATOM     15  C   UNL     1       6.173   4.810  18.672  0.00  0.00    +0.000 A 
ATOM     16  C   UNL     1       5.076   3.980  18.794  0.00  0.00    +0.000 A 
ATOM     17  O   UNL     1       6.933   5.281  19.699  0.00  0.00    +0.000 OA
ATOM     18  C   UNL     1       7.921   6.046  18.977  0.00  0.00    +0.000 C 
ATOM     19  O   UNL     1       7.697   6.072  17.553  0.00  0.00    +0.000 OA
ENDBRANCH  10  11
ENDBRANCH   8  10
ENDBRANCH   5   8
BRANCH   3  20
ATOM     20  C   UNL     1       2.042   8.054  19.299  0.00  0.00    +0.000 C 
BRANCH  20  21
ATOM     21  C   UNL     1       1.225   8.865  20.291  0.00  0.00    +0.000 A 
ATOM     22  C   UNL     1       1.419   8.605  21.662  0.00  0.00    +0.000 A 
ATOM     23  C   UNL     1       0.655   9.251  22.628  0.00  0.00    +0.000 A 
ATOM     24  C   UNL     1      -0.313  10.172  22.243  0.00  0.00    +0.000 A 
ATOM     25  C   UNL     1      -0.513  10.482  20.892  0.00  0.00    +0.000 A 
ATOM     26  C   UNL     1      -1.486  11.430  20.535  0.00  0.00    +0.000 A 
ATOM     27  C   UNL     1      -1.698  11.775  19.203  0.00  0.00    +0.000 A 
ATOM     28  C   UNL     1      -0.939  11.170  18.210  0.00  0.00    +0.000 A 
ATOM     29  C   UNL     1       0.024  10.215  18.547  0.00  0.00    +0.000 A 
ATOM     30  C   UNL     1       0.265   9.840  19.891  0.00  0.00    +0.000 A 
ENDBRANCH  20  21
ENDBRANCH   3  20
TORSDOF 6
ENDMDL
MODEL 4
REMARK VINA RESULT:      -7.9      2.177      2.522
REMARK  Name = 
REMARK  6 active torsions:
REMARK  status: ('A' for Active; 'I' for Inactive)
REMARK    1  A    between atoms: C_2  and  C_3
REMARK    2  A    between atoms: C_5  and  C_6
REMARK    3  A    between atoms: C_6  and  C_7
REMARK    4  A    between atoms: C_18  and  N_19
REMARK    5  A    between atoms: N_19  and  C_20
REMARK    6  A    between atoms: C_20  and  C_21
REMARK                            x       y       z     vdW  Elec       q    Type
REMARK                         _______ _______ _______ _____ _____    ______ ____
ROOT
ATOM      1  C   UNL     1       2.817   3.878  18.782  0.00  0.00    +0.000 A 
ATOM      2  N   UNL     1       1.856   4.678  19.364  0.00  0.00    +0.000 NA
ATOM      3  C   UNL     1       2.562   5.560  20.045  0.00  0.00    +0.000 A 
ATOM      4  O   UNL     1       3.920   5.407  19.928  0.00  0.00    +0.000 OA
ATOM      5  C   UNL     1       4.083   4.304  19.134  0.00  0.00    +0.000 A 
ENDROOT
BRANCH   1   7
ATOM      6  N   UNL     1       2.201   1.939  17.183  0.00  0.00    +0.000 NA
ATOM      7  C   UNL     1       2.461   2.814  17.897  0.00  0.00    +0.000 C 
ENDBRANCH   1   7
BRANCH   5   8
ATOM      8  N   UNL     1       5.365   3.954  18.895  0.00  0.00    +0.000 N 
ATOM      9  H   UNL     1       5.560   2.968  18.737  0.00  0.00    +0.000 HD
BRANCH   8  10
ATOM     10  C   UNL     1       6.321   4.853  18.270  0.00  0.00    +0.000 C 
BRANCH  10  11
ATOM     11  C   UNL     1       6.405   4.598  16.779  0.00  0.00    +0.000 A 
ATOM     12  C   UNL     1       5.534   3.665  16.163  0.00  0.00    +0.000 A 
ATOM     13  C   UNL     1       5.561   3.452  14.780  0.00  0.00    +0.000 A 
ATOM     14  C   UNL     1       6.466   4.177  14.036  0.00  0.00    +0.000 A 
ATOM     15  C   UNL     1       7.317   5.083  14.621  0.00  0.00    +0.000 A 
ATOM     16  C   UNL     1       7.311   5.318  15.982  0.00  0.00    +0.000 A 
ATOM     17  O   UNL     1       8.124   5.696  13.712  0.00  0.00    +0.000 OA
ATOM     18  C   UNL     1       7.709   5.039  12.495  0.00  0.00    +0.000 C 
ATOM     19  O   UNL     1       6.628   4.105  12.688  0.00  0.00    +0.000 OA
ENDBRANCH  10  11
ENDBRANCH   8  10
ENDBRANCH   5   8
BRANCH   3  20
ATOM     20  C   UNL     1       2.086   6.737  20.827  0.00  0.00    +0.000 C 
BRANCH  20  21
ATOM     21  C   UNL     1       1.724   7.948  19.984  0.00  0.00    +0.000 A 
ATOM     22  C   UNL     1       2.216   7.995  18.665  0.00  0.00    +0.000 A 
ATOM     23  C   UNL     1       1.993   9.103  17.856  0.00  0.00    +0.000 A 
ATOM     24  C   UNL     1       1.267  10.183  18.348  0.00  0.00    +0.000 A 
ATOM     25  C   UNL     1       0.732  10.160  19.642  0.00  0.00    +0.000 A 
ATOM     26  C   UNL     1      -0.012  11.258  20.105  0.00  0.00    +0.000 A 
ATOM     27  C   UNL     1      -0.572  11.261  21.379  0.00  0.00    +0.000 A 
ATOM     28  C   UNL     1      -0.391  10.163  22.209  0.00  0.00    +0.000 A 
ATOM     29  C   UNL     1       0.357   9.067  21.769  0.00  0.00    +0.000 A 
ATOM     30  C   UNL     1       0.942   9.032  20.480  0.00  0.00    +0.000 A 
ENDBRANCH  20  21
ENDBRANCH   3  20
TORSDOF 6
ENDMDL
MODEL 5
REMARK VINA RESULT:      -7.9      2.929      5.257
REMARK  Name = 
REMARK  6 active torsions:
REMARK  status: ('A' for Active; 'I' for Inactive)
REMARK    1  A    between atoms: C_2  and  C_3
REMARK    2  A    between atoms: C_5  and  C_6
REMARK    3  A    between atoms: C_6  and  C_7
REMARK    4  A    between atoms: C_18  and  N_19
REMARK    5  A    between atoms: N_19  and  C_20
REMARK    6  A    between atoms: C_20  and  C_21
REMARK                            x       y       z     vdW  Elec       q    Type
REMARK                         _______ _______ _______ _____ _____    ______ ____
ROOT
ATOM      1  C   UNL     1       2.450   8.365  18.197  0.00  0.00    +0.000 A 
ATOM      2  N   UNL     1       1.854   9.469  17.622  0.00  0.00    +0.000 NA
ATOM      3  C   UNL     1       1.084   9.938  18.584  0.00  0.00    +0.000 A 
ATOM      4  O   UNL     1       1.155   9.232  19.758  0.00  0.00    +0.000 OA
ATOM      5  C   UNL     1       2.016   8.201  19.498  0.00  0.00    +0.000 A 
ENDROOT
BRANCH   1   7
ATOM      6  N   UNL     1       4.222   6.956  16.943  0.00  0.00    +0.000 NA
ATOM      7  C   UNL     1       3.421   7.593  17.489  0.00  0.00    +0.000 C 
ENDBRANCH   1   7
BRANCH   5   8
ATOM      8  N   UNL     1       2.225   7.355  20.530  0.00  0.00    +0.000 N 
ATOM      9  H   UNL     1       2.804   7.687  21.298  0.00  0.00    +0.000 HD
BRANCH   8  10
ATOM     10  C   UNL     1       1.269   6.328  20.909  0.00  0.00    +0.000 C 
BRANCH  10  11
ATOM     11  C   UNL     1       1.653   4.990  20.312  0.00  0.00    +0.000 A 
ATOM     12  C   UNL     1       0.758   3.893  20.378  0.00  0.00    +0.000 A 
ATOM     13  C   UNL     1       1.073   2.664  19.788  0.00  0.00    +0.000 A 
ATOM     14  C   UNL     1       2.285   2.553  19.143  0.00  0.00    +0.000 A 
ATOM     15  C   UNL     1       3.162   3.607  19.072  0.00  0.00    +0.000 A 
ATOM     16  C   UNL     1       2.878   4.833  19.641  0.00  0.00    +0.000 A 
ATOM     17  O   UNL     1       4.296   3.292  18.387  0.00  0.00    +0.000 OA
ATOM     18  C   UNL     1       4.045   1.905  18.072  0.00  0.00    +0.000 C 
ATOM     19  O   UNL     1       2.753   1.442  18.512  0.00  0.00    +0.000 OA
ENDBRANCH  10  11
ENDBRANCH   8  10
ENDBRANCH   5   8
BRANCH   3  20
ATOM     20  C   UNL     1       0.242  11.169  18.592  0.00  0.00    +0.000 C 
BRANCH  20  21
ATOM     21  C   UNL     1      -1.226  10.928  18.282  0.00  0.00    +0.000 A 
ATOM     22  C   UNL     1      -1.535   9.990  17.277  0.00  0.00    +0.000 A 
ATOM     23  C   UNL     1      -2.850   9.770  16.882  0.00  0.00    +0.000 A 
ATOM     24  C   UNL     1      -3.882  10.479  17.488  0.00  0.00    +0.000 A 
ATOM     25  C   UNL     1      -3.618  11.396  18.513  0.00  0.00    +0.000 A 
ATOM     26  C   UNL     1      -4.683  12.084  19.119  0.00  0.00    +0.000 A 
ATOM     27  C   UNL     1      -4.458  12.989  20.152  0.00  0.00    +0.000 A 
ATOM     28  C   UNL     1      -3.161  13.219  20.591  0.00  0.00    +0.000 A 
ATOM     29  C   UNL     1      -2.089  12.552  19.991  0.00  0.00    +0.000 A 
ATOM     30  C   UNL     1      -2.282  11.627  18.937  0.00  0.00    +0.000 A 
ENDBRANCH  20  21
ENDBRANCH   3  20
TORSDOF 6
ENDMDL
MODEL 6
REMARK VINA RESULT:      -7.9      3.366      8.253
REMARK  Name = 
REMARK  6 active torsions:
REMARK  status: ('A' for Active; 'I' for Inactive)
REMARK    1  A    between atoms: C_2  and  C_3
REMARK    2  A    between atoms: C_5  and  C_6
REMARK    3  A    between atoms: C_6  and  C_7
REMARK    4  A    between atoms: C_18  and  N_19
REMARK    5  A    between atoms: N_19  and  C_20
REMARK    6  A    between atoms: C_20  and  C_21
REMARK                            x       y       z     vdW  Elec       q    Type
REMARK                         _______ _______ _______ _____ _____    ______ ____
ROOT
ATOM      1  C   UNL     1       1.804   7.734  19.999  0.00  0.00    +0.000 A 
ATOM      2  N   UNL     1       2.255   6.437  20.131  0.00  0.00    +0.000 NA
ATOM      3  C   UNL     1       2.653   6.126  18.912  0.00  0.00    +0.000 A 
ATOM      4  O   UNL     1       2.517   7.139  17.998  0.00  0.00    +0.000 OA
ATOM      5  C   UNL     1       1.944   8.168  18.696  0.00  0.00    +0.000 A 
ENDROOT
BRANCH   1   7
ATOM      6  N   UNL     1       0.954   9.049  22.060  0.00  0.00    +0.000 NA
ATOM      7  C   UNL     1       1.332   8.474  21.127  0.00  0.00    +0.000 C 
ENDBRANCH   1   7
BRANCH   5   8
ATOM      8  N   UNL     1       1.701   9.284  17.974  0.00  0.00    +0.000 N 
ATOM      9  H   UNL     1       1.235   9.169  17.077  0.00  0.00    +0.000 HD
BRANCH   8  10
ATOM     10  C   UNL     1       1.493  10.586  18.587  0.00  0.00    +0.000 C 
BRANCH  10  11
ATOM     11  C   UNL     1       0.016  10.917  18.658  0.00  0.00    +0.000 A 
ATOM     12  C   UNL     1      -0.432  12.035  19.404  0.00  0.00    +0.000 A 
ATOM     13  C   UNL     1      -1.786  12.387  19.440  0.00  0.00    +0.000 A 
ATOM     14  C   UNL     1      -2.671  11.607  18.729  0.00  0.00    +0.000 A 
ATOM     15  C   UNL     1      -2.251  10.519  18.004  0.00  0.00    +0.000 A 
ATOM     16  C   UNL     1      -0.921  10.149  17.945  0.00  0.00    +0.000 A 
ATOM     17  O   UNL     1      -3.280   9.889  17.372  0.00  0.00    +0.000 OA
ATOM     18  C   UNL     1      -4.399  10.685  17.819  0.00  0.00    +0.000 C 
ATOM     19  O   UNL     1      -4.015  11.800  18.647  0.00  0.00    +0.000 OA
ENDBRANCH  10  11
ENDBRANCH   8  10
ENDBRANCH   5   8
BRANCH   3  20
ATOM     20  C   UNL     1       3.310   4.876  18.434  0.00  0.00    +0.000 C 
BRANCH  20  21
ATOM     21  C   UNL     1       4.809   4.996  18.218  0.00  0.00    +0.000 A 
ATOM     22  C   UNL     1       5.603   5.330  19.333  0.00  0.00    +0.000 A 
ATOM     23  C   UNL     1       6.973   5.533  19.203  0.00  0.00    +0.000 A 
ATOM     24  C   UNL     1       7.575   5.401  17.956  0.00  0.00    +0.000 A 
ATOM     25  C   UNL     1       6.826   5.037  16.830  0.00  0.00    +0.000 A 
ATOM     26  C   UNL     1       7.466   4.893  15.588  0.00  0.00    +0.000 A 
ATOM     27  C   UNL     1       6.754   4.517  14.453  0.00  0.00    +0.000 A 
ATOM     28  C   UNL     1       5.389   4.281  14.547  0.00  0.00    +0.000 A 
ATOM     29  C   UNL     1       4.734   4.432  15.773  0.00  0.00    +0.000 A 
ATOM     30  C   UNL     1       5.427   4.816  16.946  0.00  0.00    +0.000 A 
ENDBRANCH  20  21
ENDBRANCH   3  20
TORSDOF 6
ENDMDL
MODEL 7
REMARK VINA RESULT:      -7.9      2.706      7.496
REMARK  Name = 
REMARK  6 active torsions:
REMARK  status: ('A' for Active; 'I' for Inactive)
REMARK    1  A    between atoms: C_2  and  C_3
REMARK    2  A    between atoms: C_5  and  C_6
REMARK    3  A    between atoms: C_6  and  C_7
REMARK    4  A    between atoms: C_18  and  N_19
REMARK    5  A    between atoms: N_19  and  C_20
REMARK    6  A    between atoms: C_20  and  C_21
REMARK                            x       y       z     vdW  Elec       q    Type
REMARK                         _______ _______ _______ _____ _____    ______ ____
ROOT
ATOM      1  C   UNL     1       2.058   3.583  20.178  0.00  0.00    +0.000 A 
ATOM      2  N   UNL     1       2.572   2.845  19.132  0.00  0.00    +0.000 NA
ATOM      3  C   UNL     1       2.879   3.761  18.234  0.00  0.00    +0.000 A 
ATOM      4  O   UNL     1       2.625   5.048  18.630  0.00  0.00    +0.000 OA
ATOM      5  C   UNL     1       2.070   4.930  19.876  0.00  0.00    +0.000 A 
ENDROOT
BRANCH   1   7
ATOM      6  N   UNL     1       1.334   2.476  22.403  0.00  0.00    +0.000 NA
ATOM      7  C   UNL     1       1.652   2.958  21.397  0.00  0.00    +0.000 C 
ENDBRANCH   1   7
BRANCH   5   8
ATOM      8  N   UNL     1       1.720   6.097  20.460  0.00  0.00    +0.000 N 
ATOM      9  H   UNL     1       1.446   6.066  21.440  0.00  0.00    +0.000 HD
BRANCH   8  10
ATOM     10  C   UNL     1       2.256   7.379  20.036  0.00  0.00    +0.000 C 
BRANCH  10  11
ATOM     11  C   UNL     1       1.345   8.511  20.466  0.00  0.00    +0.000 A 
ATOM     12  C   UNL     1       0.810   9.404  19.505  0.00  0.00    +0.000 A 
ATOM     13  C   UNL     1      -0.074  10.424  19.875  0.00  0.00    +0.000 A 
ATOM     14  C   UNL     1      -0.404  10.534  21.208  0.00  0.00    +0.000 A 
ATOM     15  C   UNL     1       0.108   9.676  22.150  0.00  0.00    +0.000 A 
ATOM     16  C   UNL     1       0.979   8.658  21.815  0.00  0.00    +0.000 A 
ATOM     17  O   UNL     1      -0.348   9.952  23.403  0.00  0.00    +0.000 OA
ATOM     18  C   UNL     1      -1.173  11.108  23.143  0.00  0.00    +0.000 C 
ATOM     19  O   UNL     1      -1.246  11.457  21.746  0.00  0.00    +0.000 OA
ENDBRANCH  10  11
ENDBRANCH   8  10
ENDBRANCH   5   8
BRANCH   3  20
ATOM     20  C   UNL     1       3.546   3.587  16.911  0.00  0.00    +0.000 C 
BRANCH  20  21
ATOM     21  C   UNL     1       4.899   4.268  16.794  0.00  0.00    +0.000 A 
ATOM     22  C   UNL     1       5.430   4.867  17.953  0.00  0.00    +0.000 A 
ATOM     23  C   UNL     1       6.626   5.575  17.911  0.00  0.00    +0.000 A 
ATOM     24  C   UNL     1       7.317   5.694  16.709  0.00  0.00    +0.000 A 
ATOM     25  C   UNL     1       6.838   5.085  15.542  0.00  0.00    +0.000 A 
ATOM     26  C   UNL     1       7.567   5.208  14.347  0.00  0.00    +0.000 A 
ATOM     27  C   UNL     1       7.130   4.601  13.173  0.00  0.00    +0.000 A 
ATOM     28  C   UNL     1       5.953   3.865  13.180  0.00  0.00    +0.000 A 
ATOM     29  C   UNL     1       5.208   3.744  14.358  0.00  0.00    +0.000 A 
ATOM     30  C   UNL     1       5.623   4.349  15.568  0.00  0.00    +0.000 A 
ENDBRANCH  20  21
ENDBRANCH   3  20
TORSDOF 6
ENDMDL
MODEL 8
REMARK VINA RESULT:      -7.8      3.857      8.009
REMARK  Name = 
REMARK  6 active torsions:
REMARK  status: ('A' for Active; 'I' for Inactive)
REMARK    1  A    between atoms: C_2  and  C_3
REMARK    2  A    between atoms: C_5  and  C_6
REMARK    3  A    between atoms: C_6  and  C_7
REMARK    4  A    between atoms: C_18  and  N_19
REMARK    5  A    between atoms: N_19  and  C_20
REMARK    6  A    between atoms: C_20  and  C_21
REMARK                            x       y       z     vdW  Elec       q    Type
REMARK                         _______ _______ _______ _____ _____    ______ ____
ROOT
ATOM      1  C   UNL     1       7.997   6.989  18.587  0.00  0.00    +0.000 A 
ATOM      2  N   UNL     1       8.519   8.226  18.905  0.00  0.00    +0.000 NA
ATOM      3  C   UNL     1       8.241   8.958  17.844  0.00  0.00    +0.000 A 
ATOM      4  O   UNL     1       7.549   8.293  16.864  0.00  0.00    +0.000 OA
ATOM      5  C   UNL     1       7.416   7.014  17.334  0.00  0.00    +0.000 A 
ENDROOT
BRANCH   1   7
ATOM      6  N   UNL     1       8.075   5.045  20.293  0.00  0.00    +0.000 NA
ATOM      7  C   UNL     1       8.039   5.905  19.516  0.00  0.00    +0.000 C 
ENDBRANCH   1   7
BRANCH   5   8
ATOM      8  N   UNL     1       6.767   6.165  16.508  0.00  0.00    +0.000 N 
ATOM      9  H   UNL     1       7.072   5.194  16.500  0.00  0.00    +0.000 HD
BRANCH   8  10
ATOM     10  C   UNL     1       5.378   6.351  16.123  0.00  0.00    +0.000 C 
BRANCH  10  11
ATOM     11  C   UNL     1       4.448   5.919  17.239  0.00  0.00    +0.000 A 
ATOM     12  C   UNL     1       3.559   6.850  17.831  0.00  0.00    +0.000 A 
ATOM     13  C   UNL     1       2.657   6.459  18.827  0.00  0.00    +0.000 A 
ATOM     14  C   UNL     1       2.666   5.138  19.218  0.00  0.00    +0.000 A 
ATOM     15  C   UNL     1       3.524   4.225  18.654  0.00  0.00    +0.000 A 
ATOM     16  C   UNL     1       4.422   4.580  17.666  0.00  0.00    +0.000 A 
ATOM     17  O   UNL     1       3.367   2.977  19.175  0.00  0.00    +0.000 OA
ATOM     18  C   UNL     1       2.340   3.222  20.160  0.00  0.00    +0.000 C 
ATOM     19  O   UNL     1       1.861   4.582  20.163  0.00  0.00    +0.000 OA
ENDBRANCH  10  11
ENDBRANCH   8  10
ENDBRANCH   5   8
BRANCH   3  20
ATOM     20  C   UNL     1       8.487  10.412  17.620  0.00  0.00    +0.000 C 
BRANCH  20  21
ATOM     21  C   UNL     1       9.334  11.078  18.691  0.00  0.00    +0.000 A 
ATOM     22  C   UNL     1       9.080  10.732  20.032  0.00  0.00    +0.000 A 
ATOM     23  C   UNL     1       9.759  11.354  21.074  0.00  0.00    +0.000 A 
ATOM     24  C   UNL     1      10.710  12.330  20.794  0.00  0.00    +0.000 A 
ATOM     25  C   UNL     1      11.015  12.678  19.473  0.00  0.00    +0.000 A 
ATOM     26  C   UNL     1      11.993  13.654  19.221  0.00  0.00    +0.000 A 
ATOM     27  C   UNL     1      12.333  14.012  17.919  0.00  0.00    +0.000 A 
ATOM     28  C   UNL     1      11.695  13.396  16.851  0.00  0.00    +0.000 A 
ATOM     29  C   UNL     1      10.710  12.432  17.084  0.00  0.00    +0.000 A 
ATOM     30  C   UNL     1      10.338  12.046  18.395  0.00  0.00    +0.000 A 
ENDBRANCH  20  21
ENDBRANCH   3  20
TORSDOF 6
ENDMDL
MODEL 9
REMARK VINA RESULT:      -7.8      3.326      6.250
REMARK  Name = 
REMARK  6 active torsions:
REMARK  status: ('A' for Active; 'I' for Inactive)
REMARK    1  A    between atoms: C_2  and  C_3
REMARK    2  A    between atoms: C_5  and  C_6
REMARK    3  A    between atoms: C_6  and  C_7
REMARK    4  A    between atoms: C_18  and  N_19
REMARK    5  A    between atoms: N_19  and  C_20
REMARK    6  A    between atoms: C_20  and  C_21
REMARK                            x       y       z     vdW  Elec       q    Type
REMARK                         _______ _______ _______ _____ _____    ______ ____
ROOT
ATOM      1  C   UNL     1       6.732   5.811  17.674  0.00  0.00    +0.000 A 
ATOM      2  N   UNL     1       5.404   5.438  17.679  0.00  0.00    +0.000 NA
ATOM      3  C   UNL     1       4.764   6.583  17.537  0.00  0.00    +0.000 A 
ATOM      4  O   UNL     1       5.583   7.676  17.414  0.00  0.00    +0.000 OA
ATOM      5  C   UNL     1       6.853   7.179  17.530  0.00  0.00    +0.000 A 
ENDROOT
BRANCH   1   7
ATOM      6  N   UNL     1       8.644   4.072  17.819  0.00  0.00    +0.000 NA
ATOM      7  C   UNL     1       7.777   4.839  17.749  0.00  0.00    +0.000 C 
ENDBRANCH   1   7
BRANCH   5   8
ATOM      8  N   UNL     1       7.838   8.101  17.454  0.00  0.00    +0.000 N 
ATOM      9  H   UNL     1       7.709   8.870  16.800  0.00  0.00    +0.000 HD
BRANCH   8  10
ATOM     10  C   UNL     1       8.708   8.415  18.574  0.00  0.00    +0.000 C 
BRANCH  10  11
ATOM     11  C   UNL     1       8.923   9.911  18.685  0.00  0.00    +0.000 A 
ATOM     12  C   UNL     1       8.480  10.776  17.655  0.00  0.00    +0.000 A 
ATOM     13  C   UNL     1       8.622  12.164  17.762  0.00  0.00    +0.000 A 
ATOM     14  C   UNL     1       9.212  12.662  18.902  0.00  0.00    +0.000 A 
ATOM     15  C   UNL     1       9.648  11.835  19.909  0.00  0.00    +0.000 A 
ATOM     16  C   UNL     1       9.518  10.462  19.833  0.00  0.00    +0.000 A 
ATOM     17  O   UNL     1      10.194  12.526  20.947  0.00  0.00    +0.000 OA
ATOM     18  C   UNL     1      10.088  13.880  20.456  0.00  0.00    +0.000 C 
ATOM     19  O   UNL     1       9.428  13.977  19.178  0.00  0.00    +0.000 OA
ENDBRANCH  10  11
ENDBRANCH   8  10
ENDBRANCH   5   8
BRANCH   3  20
ATOM     20  C   UNL     1       3.299   6.824  17.395  0.00  0.00    +0.000 C 
BRANCH  20  21
ATOM     21  C   UNL     1       2.474   6.413  18.603  0.00  0.00    +0.000 A 
ATOM     22  C   UNL     1       2.216   7.394  19.580  0.00  0.00    +0.000 A 
ATOM     23  C   UNL     1       1.534   7.078  20.750  0.00  0.00    +0.000 A 
ATOM     24  C   UNL     1       1.091   5.777  20.962  0.00  0.00    +0.000 A 
ATOM     25  C   UNL     1       1.299   4.781  20.000  0.00  0.00    +0.000 A 
ATOM     26  C   UNL     1       0.825   3.480  20.234  0.00  0.00    +0.000 A 
ATOM     27  C   UNL     1       0.999   2.471  19.292  0.00  0.00    +0.000 A 
ATOM     28  C   UNL     1       1.654   2.752  18.100  0.00  0.00    +0.000 A 
ATOM     29  C   UNL     1       2.143   4.039  17.856  0.00  0.00    +0.000 A 
ATOM     30  C   UNL     1       1.986   5.087  18.794  0.00  0.00    +0.000 A 
ENDBRANCH  20  21
ENDBRANCH   3  20
TORSDOF 6
ENDMDL
