MODEL 1
REMARK VINA RESULT:      -7.7      0.000      0.000
REMARK  Name = 
REMARK  15 active torsions:
REMARK  status: ('A' for Active; 'I' for Inactive)
REMARK    1  A    between atoms: C_1  and  C_2
REMARK    2  A    between atoms: C_2  and  C_3
REMARK    3  A    between atoms: C_3  and  C_4
REMARK    4  A    between atoms: C_4  and  C_5
REMARK    5  A    between atoms: C_5  and  C_6
REMARK    6  A    between atoms: C_6  and  C_7
REMARK    7  A    between atoms: C_7  and  C_8
REMARK    8  A    between atoms: C_8  and  S_9
REMARK    9  A    between atoms: S_9  and  N_12
REMARK   10  A    between atoms: N_12  and  C_13
REMARK   11  A    between atoms: C_15  and  C_16
REMARK   12  A    between atoms: C_16  and  C_18
REMARK   13  A    between atoms: C_21  and  C_22
REMARK   14  A    between atoms: C_32  and  C_33
REMARK   15  A    between atoms: C_33  and  O_35
REMARK                            x       y       z     vdW  Elec       q    Type
REMARK                         _______ _______ _______ _____ _____    ______ ____
ROOT
ATOM      1  C   UNL     1       4.645   5.130  19.088  0.00  0.00    +0.000 A 
ATOM      2  C   UNL     1       4.240   6.378  18.581  0.00  0.00    +0.000 A 
ATOM      3  C   UNL     1       2.885   6.656  18.313  0.00  0.00    +0.000 A 
ATOM      4  C   UNL     1       1.939   5.632  18.424  0.00  0.00    +0.000 A 
ATOM      5  C   UNL     1       2.330   4.383  18.913  0.00  0.00    +0.000 A 
ATOM      6  C   UNL     1       3.670   4.135  19.272  0.00  0.00    +0.000 A 
ENDROOT
BRANCH   1   7
ATOM      7  N   UNL     1       6.038   4.945  19.438  0.00  0.00    +0.000 N 
ATOM      8  H   UNL     1       6.305   5.495  20.256  0.00  0.00    +0.000 HD
BRANCH   7   9
ATOM      9  S   UNL     1       7.213   5.211  18.234  0.00  0.00    +0.000 S 
ATOM     10  O   UNL     1       6.465   5.362  16.999  0.00  0.00    +0.000 OA
ATOM     11  O   UNL     1       8.272   4.236  18.361  0.00  0.00    +0.000 OA
BRANCH   9  12
ATOM     12  C   UNL     1       7.869   6.822  18.704  0.00  0.00    +0.000 C 
BRANCH  12  13
ATOM     13  C   UNL     1       7.844   7.777  17.510  0.00  0.00    +0.000 C 
BRANCH  13  14
ATOM     14  C   UNL     1       7.921   9.249  17.916  0.00  0.00    +0.000 C 
BRANCH  14  15
ATOM     15  C   UNL     1       9.058   9.462  18.920  0.00  0.00    +0.000 C 
BRANCH  15  16
ATOM     16  C   UNL     1       9.814  10.759  18.644  0.00  0.00    +0.000 C 
BRANCH  16  17
ATOM     17  C   UNL     1       8.913  11.785  17.955  0.00  0.00    +0.000 C 
BRANCH  17  19
ATOM     18  C   UNL     1      10.382  13.423  19.171  0.00  0.00    +0.000 C 
ATOM     19  C   UNL     1       8.980  13.136  18.662  0.00  0.00    +0.000 C 
ENDBRANCH  17  19
ENDBRANCH  16  17
ENDBRANCH  15  16
ENDBRANCH  14  15
ENDBRANCH  13  14
ENDBRANCH  12  13
ENDBRANCH   9  12
ENDBRANCH   7   9
ENDBRANCH   1   7
BRANCH   3  20
ATOM     20  C   UNL     1       2.427   8.037  17.939  0.00  0.00    +0.000 C 
ATOM     21  O   UNL     1       2.570   8.425  16.784  0.00  0.00    +0.000 OA
BRANCH  20  22
ATOM     22  C   UNL     1       1.771   8.928  18.944  0.00  0.00    +0.000 A 
ATOM     23  C   UNL     1       1.359  10.209  18.575  0.00  0.00    +0.000 A 
ATOM     24  C   UNL     1       0.685  11.024  19.481  0.00  0.00    +0.000 A 
ATOM     25  C   UNL     1       0.411  10.599  20.793  0.00  0.00    +0.000 A 
ATOM     26  C   UNL     1       0.875   9.327  21.170  0.00  0.00    +0.000 A 
ATOM     27  C   UNL     1       1.561   8.502  20.261  0.00  0.00    +0.000 A 
BRANCH  25  28
ATOM     28  C   UNL     1      -0.324  11.478  21.727  0.00  0.00    +0.000 A 
ATOM     29  C   UNL     1      -1.342  10.965  22.555  0.00  0.00    +0.000 A 
ATOM     30  C   UNL     1      -2.091  11.796  23.390  0.00  0.00    +0.000 A 
ATOM     31  C   UNL     1      -1.826  13.159  23.430  0.00  0.00    +0.000 A 
ATOM     32  C   UNL     1      -0.806  13.689  22.646  0.00  0.00    +0.000 A 
ATOM     33  C   UNL     1      -0.063  12.857  21.804  0.00  0.00    +0.000 A 
ENDBRANCH  25  28
ENDBRANCH  20  22
ENDBRANCH   3  20
BRANCH   6  34
ATOM     34  C   UNL     1       3.985   2.863  19.961  0.00  0.00    +0.000 C 
ATOM     35  O   UNL     1       4.887   2.133  19.642  0.00  0.00    +0.000 OA
BRANCH  34  36
ATOM     36  O   UNL     1       3.153   2.604  21.000  0.00  0.00    +0.000 OA
ATOM     37  H   UNL     1       2.711   3.367  21.393  0.00  0.00    +0.000 HD
ENDBRANCH  34  36
ENDBRANCH   6  34
TORSDOF 14
ENDMDL
MODEL 2
REMARK VINA RESULT:      -7.6      1.354      1.586
REMARK  Name = 
REMARK  15 active torsions:
REMARK  status: ('A' for Active; 'I' for Inactive)
REMARK    1  A    between atoms: C_1  and  C_2
REMARK    2  A    between atoms: C_2  and  C_3
REMARK    3  A    between atoms: C_3  and  C_4
REMARK    4  A    between atoms: C_4  and  C_5
REMARK    5  A    between atoms: C_5  and  C_6
REMARK    6  A    between atoms: C_6  and  C_7
REMARK    7  A    between atoms: C_7  and  C_8
REMARK    8  A    between atoms: C_8  and  S_9
REMARK    9  A    between atoms: S_9  and  N_12
REMARK   10  A    between atoms: N_12  and  C_13
REMARK   11  A    between atoms: C_15  and  C_16
REMARK   12  A    between atoms: C_16  and  C_18
REMARK   13  A    between atoms: C_21  and  C_22
REMARK   14  A    between atoms: C_32  and  C_33
REMARK   15  A    between atoms: C_33  and  O_35
REMARK                            x       y       z     vdW  Elec       q    Type
REMARK                         _______ _______ _______ _____ _____    ______ ____
ROOT
ATOM      1  C   UNL     1       3.710   5.119  17.959  0.00  0.00    +0.000 A 
ATOM      2  C   UNL     1       3.217   6.382  17.583  0.00  0.00    +0.000 A 
ATOM      3  C   UNL     1       2.550   7.214  18.505  0.00  0.00    +0.000 A 
ATOM      4  C   UNL     1       2.252   6.724  19.780  0.00  0.00    +0.000 A 
ATOM      5  C   UNL     1       2.723   5.465  20.162  0.00  0.00    +0.000 A 
ATOM      6  C   UNL     1       3.473   4.673  19.270  0.00  0.00    +0.000 A 
ENDROOT
BRANCH   1   7
ATOM      7  N   UNL     1       4.475   4.360  16.992  0.00  0.00    +0.000 N 
ATOM      8  H   UNL     1       4.709   3.426  17.335  0.00  0.00    +0.000 HD
BRANCH   7   9
ATOM      9  S   UNL     1       5.902   5.051  16.371  0.00  0.00    +0.000 S 
ATOM     10  O   UNL     1       5.457   6.042  15.408  0.00  0.00    +0.000 OA
ATOM     11  O   UNL     1       6.832   4.007  16.006  0.00  0.00    +0.000 OA
BRANCH   9  12
ATOM     12  C   UNL     1       6.556   5.912  17.813  0.00  0.00    +0.000 C 
BRANCH  12  13
ATOM     13  C   UNL     1       6.833   7.378  17.478  0.00  0.00    +0.000 C 
BRANCH  13  14
ATOM     14  C   UNL     1       8.147   7.891  18.069  0.00  0.00    +0.000 C 
BRANCH  14  15
ATOM     15  C   UNL     1       8.261   9.405  17.873  0.00  0.00    +0.000 C 
BRANCH  15  16
ATOM     16  C   UNL     1       9.037  10.061  19.011  0.00  0.00    +0.000 C 
BRANCH  16  17
ATOM     17  C   UNL     1      10.094  11.026  18.473  0.00  0.00    +0.000 C 
BRANCH  17  19
ATOM     18  C   UNL     1      10.269  13.340  17.507  0.00  0.00    +0.000 C 
ATOM     19  C   UNL     1       9.616  12.472  18.570  0.00  0.00    +0.000 C 
ENDBRANCH  17  19
ENDBRANCH  16  17
ENDBRANCH  15  16
ENDBRANCH  14  15
ENDBRANCH  13  14
ENDBRANCH  12  13
ENDBRANCH   9  12
ENDBRANCH   7   9
ENDBRANCH   1   7
BRANCH   3  20
ATOM     20  C   UNL     1       2.178   8.628  18.159  0.00  0.00    +0.000 C 
ATOM     21  O   UNL     1       2.611   9.127  17.125  0.00  0.00    +0.000 OA
BRANCH  20  22
ATOM     22  C   UNL     1       1.264   9.419  19.038  0.00  0.00    +0.000 A 
ATOM     23  C   UNL     1       0.717  10.616  18.574  0.00  0.00    +0.000 A 
ATOM     24  C   UNL     1      -0.190  11.328  19.356  0.00  0.00    +0.000 A 
ATOM     25  C   UNL     1      -0.575  10.882  20.632  0.00  0.00    +0.000 A 
ATOM     26  C   UNL     1       0.021   9.701  21.109  0.00  0.00    +0.000 A 
ATOM     27  C   UNL     1       0.942   8.981  20.328  0.00  0.00    +0.000 A 
BRANCH  25  28
ATOM     28  C   UNL     1      -1.555  11.648  21.430  0.00  0.00    +0.000 A 
ATOM     29  C   UNL     1      -2.467  12.525  20.810  0.00  0.00    +0.000 A 
ATOM     30  C   UNL     1      -3.350  13.307  21.556  0.00  0.00    +0.000 A 
ATOM     31  C   UNL     1      -3.354  13.215  22.942  0.00  0.00    +0.000 A 
ATOM     32  C   UNL     1      -2.487  12.335  23.581  0.00  0.00    +0.000 A 
ATOM     33  C   UNL     1      -1.597  11.560  22.832  0.00  0.00    +0.000 A 
ENDBRANCH  25  28
ENDBRANCH  20  22
ENDBRANCH   3  20
BRANCH   6  34
ATOM     34  C   UNL     1       4.106   3.441  19.792  0.00  0.00    +0.000 C 
ATOM     35  O   UNL     1       5.232   3.103  19.533  0.00  0.00    +0.000 OA
BRANCH  34  36
ATOM     36  O   UNL     1       3.286   2.727  20.603  0.00  0.00    +0.000 OA
ATOM     37  H   UNL     1       2.708   2.087  20.168  0.00  0.00    +0.000 HD
ENDBRANCH  34  36
ENDBRANCH   6  34
TORSDOF 14
ENDMDL
MODEL 3
REMARK VINA RESULT:      -7.5      4.166      5.715
REMARK  Name = 
REMARK  15 active torsions:
REMARK  status: ('A' for Active; 'I' for Inactive)
REMARK    1  A    between atoms: C_1  and  C_2
REMARK    2  A    between atoms: C_2  and  C_3
REMARK    3  A    between atoms: C_3  and  C_4
REMARK    4  A    between atoms: C_4  and  C_5
REMARK    5  A    between atoms: C_5  and  C_6
REMARK    6  A    between atoms: C_6  and  C_7
REMARK    7  A    between atoms: C_7  and  C_8
REMARK    8  A    between atoms: C_8  and  S_9
REMARK    9  A    between atoms: S_9  and  N_12
REMARK   10  A    between atoms: N_12  and  C_13
REMARK   11  A    between atoms: C_15  and  C_16
REMARK   12  A    between atoms: C_16  and  C_18
REMARK   13  A    between atoms: C_21  and  C_22
REMARK   14  A    between atoms: C_32  and  C_33
REMARK   15  A    between atoms: C_33  and  O_35
REMARK                            x       y       z     vdW  Elec       q    Type
REMARK                         _______ _______ _______ _____ _____    ______ ____
ROOT
ATOM      1  C   UNL     1       3.233   5.717  18.581  0.00  0.00    +0.000 A 
ATOM      2  C   UNL     1       2.876   7.002  18.133  0.00  0.00    +0.000 A 
ATOM      3  C   UNL     1       1.997   7.819  18.873  0.00  0.00    +0.000 A 
ATOM      4  C   UNL     1       1.362   7.295  20.003  0.00  0.00    +0.000 A 
ATOM      5  C   UNL     1       1.696   6.015  20.451  0.00  0.00    +0.000 A 
ATOM      6  C   UNL     1       2.648   5.235  19.764  0.00  0.00    +0.000 A 
ENDROOT
BRANCH   1   7
ATOM      7  N   UNL     1       4.219   4.972  17.827  0.00  0.00    +0.000 N 
ATOM      8  H   UNL     1       4.167   3.969  18.012  0.00  0.00    +0.000 HD
BRANCH   7   9
ATOM      9  S   UNL     1       5.853   5.433  17.961  0.00  0.00    +0.000 S 
ATOM     10  O   UNL     1       6.265   4.997  19.283  0.00  0.00    +0.000 OA
ATOM     11  O   UNL     1       6.010   6.805  17.536  0.00  0.00    +0.000 OA
BRANCH   9  12
ATOM     12  C   UNL     1       6.641   4.369  16.738  0.00  0.00    +0.000 C 
BRANCH  12  13
ATOM     13  C   UNL     1       5.656   4.017  15.623  0.00  0.00    +0.000 C 
BRANCH  13  14
ATOM     14  C   UNL     1       6.301   3.996  14.237  0.00  0.00    +0.000 C 
BRANCH  14  15
ATOM     15  C   UNL     1       5.227   4.107  13.151  0.00  0.00    +0.000 C 
BRANCH  15  16
ATOM     16  C   UNL     1       5.468   3.109  12.022  0.00  0.00    +0.000 C 
BRANCH  16  17
ATOM     17  C   UNL     1       6.942   3.081  11.616  0.00  0.00    +0.000 C 
BRANCH  17  19
ATOM     18  C   UNL     1       6.155   0.759  11.058  0.00  0.00    +0.000 C 
ATOM     19  C   UNL     1       7.351   1.693  11.131  0.00  0.00    +0.000 C 
ENDBRANCH  17  19
ENDBRANCH  16  17
ENDBRANCH  15  16
ENDBRANCH  14  15
ENDBRANCH  13  14
ENDBRANCH  12  13
ENDBRANCH   9  12
ENDBRANCH   7   9
ENDBRANCH   1   7
BRANCH   3  20
ATOM     20  C   UNL     1       1.750   9.251  18.492  0.00  0.00    +0.000 C 
ATOM     21  O   UNL     1       2.694   9.949  18.136  0.00  0.00    +0.000 OA
BRANCH  20  22
ATOM     22  C   UNL     1       0.370   9.824  18.510  0.00  0.00    +0.000 A 
ATOM     23  C   UNL     1      -0.029  10.645  19.566  0.00  0.00    +0.000 A 
ATOM     24  C   UNL     1      -1.288  11.240  19.561  0.00  0.00    +0.000 A 
ATOM     25  C   UNL     1      -2.201  11.029  18.513  0.00  0.00    +0.000 A 
ATOM     26  C   UNL     1      -1.808  10.160  17.480  0.00  0.00    +0.000 A 
ATOM     27  C   UNL     1      -0.540   9.551  17.483  0.00  0.00    +0.000 A 
BRANCH  25  28
ATOM     28  C   UNL     1      -3.522  11.691  18.525  0.00  0.00    +0.000 A 
ATOM     29  C   UNL     1      -3.950  12.435  19.642  0.00  0.00    +0.000 A 
ATOM     30  C   UNL     1      -5.222  13.006  19.695  0.00  0.00    +0.000 A 
ATOM     31  C   UNL     1      -6.092  12.862  18.622  0.00  0.00    +0.000 A 
ATOM     32  C   UNL     1      -5.686  12.158  17.492  0.00  0.00    +0.000 A 
ATOM     33  C   UNL     1      -4.414  11.580  17.445  0.00  0.00    +0.000 A 
ENDBRANCH  25  28
ENDBRANCH  20  22
ENDBRANCH   3  20
BRANCH   6  34
ATOM     34  C   UNL     1       3.101   3.973  20.391  0.00  0.00    +0.000 C 
ATOM     35  O   UNL     1       3.801   3.164  19.839  0.00  0.00    +0.000 OA
BRANCH  34  36
ATOM     36  O   UNL     1       2.651   3.821  21.661  0.00  0.00    +0.000 OA
ATOM     37  H   UNL     1       3.241   4.127  22.362  0.00  0.00    +0.000 HD
ENDBRANCH  34  36
ENDBRANCH   6  34
TORSDOF 14
ENDMDL
MODEL 4
REMARK VINA RESULT:      -7.5      1.868      2.750
REMARK  Name = 
REMARK  15 active torsions:
REMARK  status: ('A' for Active; 'I' for Inactive)
REMARK    1  A    between atoms: C_1  and  C_2
REMARK    2  A    between atoms: C_2  and  C_3
REMARK    3  A    between atoms: C_3  and  C_4
REMARK    4  A    between atoms: C_4  and  C_5
REMARK    5  A    between atoms: C_5  and  C_6
REMARK    6  A    between atoms: C_6  and  C_7
REMARK    7  A    between atoms: C_7  and  C_8
REMARK    8  A    between atoms: C_8  and  S_9
REMARK    9  A    between atoms: S_9  and  N_12
REMARK   10  A    between atoms: N_12  and  C_13
REMARK   11  A    between atoms: C_15  and  C_16
REMARK   12  A    between atoms: C_16  and  C_18
REMARK   13  A    between atoms: C_21  and  C_22
REMARK   14  A    between atoms: C_32  and  C_33
REMARK   15  A    between atoms: C_33  and  O_35
REMARK                            x       y       z     vdW  Elec       q    Type
REMARK                         _______ _______ _______ _____ _____    ______ ____
ROOT
ATOM      1  C   UNL     1       3.345   4.851  19.327  0.00  0.00    +0.000 A 
ATOM      2  C   UNL     1       3.097   6.136  18.812  0.00  0.00    +0.000 A 
ATOM      3  C   UNL     1       2.172   7.006  19.425  0.00  0.00    +0.000 A 
ATOM      4  C   UNL     1       1.387   6.538  20.483  0.00  0.00    +0.000 A 
ATOM      5  C   UNL     1       1.613   5.258  20.995  0.00  0.00    +0.000 A 
ATOM      6  C   UNL     1       2.605   4.423  20.442  0.00  0.00    +0.000 A 
ENDROOT
BRANCH   1   7
ATOM      7  N   UNL     1       4.380   4.047  18.711  0.00  0.00    +0.000 N 
ATOM      8  H   UNL     1       5.211   4.597  18.487  0.00  0.00    +0.000 HD
BRANCH   7   9
ATOM      9  S   UNL     1       3.979   3.138  17.328  0.00  0.00    +0.000 S 
ATOM     10  O   UNL     1       2.749   3.727  16.829  0.00  0.00    +0.000 OA
ATOM     11  O   UNL     1       4.073   1.728  17.625  0.00  0.00    +0.000 OA
BRANCH   9  12
ATOM     12  C   UNL     1       5.316   3.569  16.198  0.00  0.00    +0.000 C 
BRANCH  12  13
ATOM     13  C   UNL     1       6.403   4.353  16.934  0.00  0.00    +0.000 C 
BRANCH  13  14
ATOM     14  C   UNL     1       6.583   5.774  16.400  0.00  0.00    +0.000 C 
BRANCH  14  15
ATOM     15  C   UNL     1       6.456   6.788  17.541  0.00  0.00    +0.000 C 
BRANCH  15  16
ATOM     16  C   UNL     1       7.820   7.326  17.967  0.00  0.00    +0.000 C 
BRANCH  16  17
ATOM     17  C   UNL     1       7.928   8.827  17.699  0.00  0.00    +0.000 C 
BRANCH  17  19
ATOM     18  C   UNL     1       9.370  10.818  18.228  0.00  0.00    +0.000 C 
ATOM     19  C   UNL     1       8.798   9.511  18.751  0.00  0.00    +0.000 C 
ENDBRANCH  17  19
ENDBRANCH  16  17
ENDBRANCH  15  16
ENDBRANCH  14  15
ENDBRANCH  13  14
ENDBRANCH  12  13
ENDBRANCH   9  12
ENDBRANCH   7   9
ENDBRANCH   1   7
BRANCH   3  20
ATOM     20  C   UNL     1       2.031   8.436  18.987  0.00  0.00    +0.000 C 
ATOM     21  O   UNL     1       2.730   8.854  18.068  0.00  0.00    +0.000 OA
BRANCH  20  22
ATOM     22  C   UNL     1       1.032   9.342  19.629  0.00  0.00    +0.000 A 
ATOM     23  C   UNL     1       1.065   9.547  21.009  0.00  0.00    +0.000 A 
ATOM     24  C   UNL     1       0.184  10.442  21.613  0.00  0.00    +0.000 A 
ATOM     25  C   UNL     1      -0.772  11.153  20.866  0.00  0.00    +0.000 A 
ATOM     26  C   UNL     1      -0.830  10.900  19.485  0.00  0.00    +0.000 A 
ATOM     27  C   UNL     1       0.053   9.994  18.871  0.00  0.00    +0.000 A 
BRANCH  25  28
ATOM     28  C   UNL     1      -1.680  12.111  21.531  0.00  0.00    +0.000 A 
ATOM     29  C   UNL     1      -1.531  12.422  22.897  0.00  0.00    +0.000 A 
ATOM     30  C   UNL     1      -2.424  13.270  23.553  0.00  0.00    +0.000 A 
ATOM     31  C   UNL     1      -3.478  13.843  22.853  0.00  0.00    +0.000 A 
ATOM     32  C   UNL     1      -3.633  13.578  21.496  0.00  0.00    +0.000 A 
ATOM     33  C   UNL     1      -2.742  12.721  20.843  0.00  0.00    +0.000 A 
ENDBRANCH  25  28
ENDBRANCH  20  22
ENDBRANCH   3  20
BRANCH   6  34
ATOM     34  C   UNL     1       2.929   3.162  21.145  0.00  0.00    +0.000 C 
ATOM     35  O   UNL     1       3.833   2.431  20.832  0.00  0.00    +0.000 OA
BRANCH  34  36
ATOM     36  O   UNL     1       2.102   2.910  22.191  0.00  0.00    +0.000 OA
ATOM     37  H   UNL     1       1.160   2.853  21.984  0.00  0.00    +0.000 HD
ENDBRANCH  34  36
ENDBRANCH   6  34
TORSDOF 14
ENDMDL
MODEL 5
REMARK VINA RESULT:      -7.5      1.369      1.852
REMARK  Name = 
REMARK  15 active torsions:
REMARK  status: ('A' for Active; 'I' for Inactive)
REMARK    1  A    between atoms: C_1  and  C_2
REMARK    2  A    between atoms: C_2  and  C_3
REMARK    3  A    between atoms: C_3  and  C_4
REMARK    4  A    between atoms: C_4  and  C_5
REMARK    5  A    between atoms: C_5  and  C_6
REMARK    6  A    between atoms: C_6  and  C_7
REMARK    7  A    between atoms: C_7  and  C_8
REMARK    8  A    between atoms: C_8  and  S_9
REMARK    9  A    between atoms: S_9  and  N_12
REMARK   10  A    between atoms: N_12  and  C_13
REMARK   11  A    between atoms: C_15  and  C_16
REMARK   12  A    between atoms: C_16  and  C_18
REMARK   13  A    between atoms: C_21  and  C_22
REMARK   14  A    between atoms: C_32  and  C_33
REMARK   15  A    between atoms: C_33  and  O_35
REMARK                            x       y       z     vdW  Elec       q    Type
REMARK                         _______ _______ _______ _____ _____    ______ ____
ROOT
ATOM      1  C   UNL     1       3.541   5.773  17.834  0.00  0.00    +0.000 A 
ATOM      2  C   UNL     1       2.977   7.032  17.559  0.00  0.00    +0.000 A 
ATOM      3  C   UNL     1       2.332   7.782  18.563  0.00  0.00    +0.000 A 
ATOM      4  C   UNL     1       2.128   7.210  19.823  0.00  0.00    +0.000 A 
ATOM      5  C   UNL     1       2.670   5.954  20.105  0.00  0.00    +0.000 A 
ATOM      6  C   UNL     1       3.399   5.245  19.129  0.00  0.00    +0.000 A 
ENDROOT
BRANCH   1   7
ATOM      7  N   UNL     1       4.278   5.101  16.784  0.00  0.00    +0.000 N 
ATOM      8  H   UNL     1       4.513   4.139  17.035  0.00  0.00    +0.000 HD
BRANCH   7   9
ATOM      9  S   UNL     1       5.695   5.840  16.196  0.00  0.00    +0.000 S 
ATOM     10  O   UNL     1       5.253   6.710  15.121  0.00  0.00    +0.000 OA
ATOM     11  O   UNL     1       6.716   4.839  15.985  0.00  0.00    +0.000 OA
BRANCH   9  12
ATOM     12  C   UNL     1       6.188   6.865  17.593  0.00  0.00    +0.000 C 
BRANCH  12  13
ATOM     13  C   UNL     1       7.626   7.354  17.415  0.00  0.00    +0.000 C 
BRANCH  13  14
ATOM     14  C   UNL     1       7.783   8.856  17.651  0.00  0.00    +0.000 C 
BRANCH  14  15
ATOM     15  C   UNL     1       8.796   9.113  18.771  0.00  0.00    +0.000 C 
BRANCH  15  16
ATOM     16  C   UNL     1       8.947  10.605  19.057  0.00  0.00    +0.000 C 
BRANCH  16  17
ATOM     17  C   UNL     1      10.258  11.145  18.484  0.00  0.00    +0.000 C 
BRANCH  17  19
ATOM     18  C   UNL     1       8.562  12.801  17.645  0.00  0.00    +0.000 C 
ATOM     19  C   UNL     1      10.003  12.328  17.554  0.00  0.00    +0.000 C 
ENDBRANCH  17  19
ENDBRANCH  16  17
ENDBRANCH  15  16
ENDBRANCH  14  15
ENDBRANCH  13  14
ENDBRANCH  12  13
ENDBRANCH   9  12
ENDBRANCH   7   9
ENDBRANCH   1   7
BRANCH   3  20
ATOM     20  C   UNL     1       1.884   9.196  18.320  0.00  0.00    +0.000 C 
ATOM     21  O   UNL     1       2.101   9.715  17.230  0.00  0.00    +0.000 OA
BRANCH  20  22
ATOM     22  C   UNL     1       1.152   9.962  19.373  0.00  0.00    +0.000 A 
ATOM     23  C   UNL     1       1.273  11.350  19.435  0.00  0.00    +0.000 A 
ATOM     24  C   UNL     1       0.543  12.083  20.368  0.00  0.00    +0.000 A 
ATOM     25  C   UNL     1      -0.323  11.459  21.282  0.00  0.00    +0.000 A 
ATOM     26  C   UNL     1      -0.399  10.056  21.244  0.00  0.00    +0.000 A 
ATOM     27  C   UNL     1       0.340   9.310  20.309  0.00  0.00    +0.000 A 
BRANCH  25  28
ATOM     28  C   UNL     1      -1.101  12.265  22.247  0.00  0.00    +0.000 A 
ATOM     29  C   UNL     1      -0.614  13.500  22.718  0.00  0.00    +0.000 A 
ATOM     30  C   UNL     1      -1.305  14.237  23.681  0.00  0.00    +0.000 A 
ATOM     31  C   UNL     1      -2.510  13.763  24.183  0.00  0.00    +0.000 A 
ATOM     32  C   UNL     1      -3.031  12.561  23.714  0.00  0.00    +0.000 A 
ATOM     33  C   UNL     1      -2.333  11.821  22.756  0.00  0.00    +0.000 A 
ENDBRANCH  25  28
ENDBRANCH  20  22
ENDBRANCH   3  20
BRANCH   6  34
ATOM     34  C   UNL     1       4.110   4.015  19.543  0.00  0.00    +0.000 C 
ATOM     35  O   UNL     1       5.306   3.936  19.654  0.00  0.00    +0.000 OA
BRANCH  34  36
ATOM     36  O   UNL     1       3.272   2.978  19.793  0.00  0.00    +0.000 OA
ATOM     37  H   UNL     1       2.489   3.181  20.321  0.00  0.00    +0.000 HD
ENDBRANCH  34  36
ENDBRANCH   6  34
TORSDOF 14
ENDMDL
MODEL 6
REMARK VINA RESULT:      -7.5      4.145     10.455
REMARK  Name = 
REMARK  15 active torsions:
REMARK  status: ('A' for Active; 'I' for Inactive)
REMARK    1  A    between atoms: C_1  and  C_2
REMARK    2  A    between atoms: C_2  and  C_3
REMARK    3  A    between atoms: C_3  and  C_4
REMARK    4  A    between atoms: C_4  and  C_5
REMARK    5  A    between atoms: C_5  and  C_6
REMARK    6  A    between atoms: C_6  and  C_7
REMARK    7  A    between atoms: C_7  and  C_8
REMARK    8  A    between atoms: C_8  and  S_9
REMARK    9  A    between atoms: S_9  and  N_12
REMARK   10  A    between atoms: N_12  and  C_13
REMARK   11  A    between atoms: C_15  and  C_16
REMARK   12  A    between atoms: C_16  and  C_18
REMARK   13  A    between atoms: C_21  and  C_22
REMARK   14  A    between atoms: C_32  and  C_33
REMARK   15  A    between atoms: C_33  and  O_35
REMARK                            x       y       z     vdW  Elec       q    Type
REMARK                         _______ _______ _______ _____ _____    ______ ____
ROOT
ATOM      1  C   UNL     1       1.324   9.569  20.269  0.00  0.00    +0.000 A 
ATOM      2  C   UNL     1       1.925   8.298  20.301  0.00  0.00    +0.000 A 
ATOM      3  C   UNL     1       2.165   7.570  19.118  0.00  0.00    +0.000 A 
ATOM      4  C   UNL     1       1.676   8.057  17.902  0.00  0.00    +0.000 A 
ATOM      5  C   UNL     1       1.064   9.312  17.858  0.00  0.00    +0.000 A 
ATOM      6  C   UNL     1       0.911  10.082  19.028  0.00  0.00    +0.000 A 
ENDROOT
BRANCH   1   7
ATOM      7  N   UNL     1       1.200  10.306  21.509  0.00  0.00    +0.000 N 
ATOM      8  H   UNL     1       2.057  10.273  22.064  0.00  0.00    +0.000 HD
BRANCH   7   9
ATOM      9  S   UNL     1      -0.096   9.925  22.546  0.00  0.00    +0.000 S 
ATOM     10  O   UNL     1       0.520   9.563  23.810  0.00  0.00    +0.000 OA
ATOM     11  O   UNL     1      -1.016   9.037  21.874  0.00  0.00    +0.000 OA
BRANCH   9  12
ATOM     12  C   UNL     1      -0.898  11.527  22.743  0.00  0.00    +0.000 C 
BRANCH  12  13
ATOM     13  C   UNL     1      -1.952  11.733  21.654  0.00  0.00    +0.000 C 
BRANCH  13  14
ATOM     14  C   UNL     1      -1.973  13.158  21.101  0.00  0.00    +0.000 C 
BRANCH  14  15
ATOM     15  C   UNL     1      -3.347  13.794  21.330  0.00  0.00    +0.000 C 
BRANCH  15  16
ATOM     16  C   UNL     1      -3.280  14.917  22.361  0.00  0.00    +0.000 C 
BRANCH  16  17
ATOM     17  C   UNL     1      -4.221  14.644  23.534  0.00  0.00    +0.000 C 
BRANCH  17  19
ATOM     18  C   UNL     1      -4.394  12.403  24.660  0.00  0.00    +0.000 C 
ATOM     19  C   UNL     1      -3.585  13.683  24.535  0.00  0.00    +0.000 C 
ENDBRANCH  17  19
ENDBRANCH  16  17
ENDBRANCH  15  16
ENDBRANCH  14  15
ENDBRANCH  13  14
ENDBRANCH  12  13
ENDBRANCH   9  12
ENDBRANCH   7   9
ENDBRANCH   1   7
BRANCH   3  20
ATOM     20  C   UNL     1       2.961   6.295  19.129  0.00  0.00    +0.000 C 
ATOM     21  O   UNL     1       2.925   5.574  20.121  0.00  0.00    +0.000 OA
BRANCH  20  22
ATOM     22  C   UNL     1       3.765   5.880  17.940  0.00  0.00    +0.000 A 
ATOM     23  C   UNL     1       3.746   4.551  17.517  0.00  0.00    +0.000 A 
ATOM     24  C   UNL     1       4.436   4.164  16.370  0.00  0.00    +0.000 A 
ATOM     25  C   UNL     1       5.180   5.084  15.611  0.00  0.00    +0.000 A 
ATOM     26  C   UNL     1       5.232   6.410  16.074  0.00  0.00    +0.000 A 
ATOM     27  C   UNL     1       4.544   6.805  17.235  0.00  0.00    +0.000 A 
BRANCH  25  28
ATOM     28  C   UNL     1       5.884   4.649  14.387  0.00  0.00    +0.000 A 
ATOM     29  C   UNL     1       7.144   5.181  14.048  0.00  0.00    +0.000 A 
ATOM     30  C   UNL     1       7.788   4.831  12.860  0.00  0.00    +0.000 A 
ATOM     31  C   UNL     1       7.194   3.925  11.990  0.00  0.00    +0.000 A 
ATOM     32  C   UNL     1       5.964   3.360  12.313  0.00  0.00    +0.000 A 
ATOM     33  C   UNL     1       5.318   3.718  13.499  0.00  0.00    +0.000 A 
ENDBRANCH  25  28
ENDBRANCH  20  22
ENDBRANCH   3  20
BRANCH   6  34
ATOM     34  C   UNL     1       0.434  11.476  18.890  0.00  0.00    +0.000 C 
ATOM     35  O   UNL     1      -0.583  11.784  18.324  0.00  0.00    +0.000 OA
BRANCH  34  36
ATOM     36  O   UNL     1       1.260  12.380  19.473  0.00  0.00    +0.000 OA
ATOM     37  H   UNL     1       1.117  12.543  20.414  0.00  0.00    +0.000 HD
ENDBRANCH  34  36
ENDBRANCH   6  34
TORSDOF 14
ENDMDL
MODEL 7
REMARK VINA RESULT:      -7.4      4.183      5.805
REMARK  Name = 
REMARK  15 active torsions:
REMARK  status: ('A' for Active; 'I' for Inactive)
REMARK    1  A    between atoms: C_1  and  C_2
REMARK    2  A    between atoms: C_2  and  C_3
REMARK    3  A    between atoms: C_3  and  C_4
REMARK    4  A    between atoms: C_4  and  C_5
REMARK    5  A    between atoms: C_5  and  C_6
REMARK    6  A    between atoms: C_6  and  C_7
REMARK    7  A    between atoms: C_7  and  C_8
REMARK    8  A    between atoms: C_8  and  S_9
REMARK    9  A    between atoms: S_9  and  N_12
REMARK   10  A    between atoms: N_12  and  C_13
REMARK   11  A    between atoms: C_15  and  C_16
REMARK   12  A    between atoms: C_16  and  C_18
REMARK   13  A    between atoms: C_21  and  C_22
REMARK   14  A    between atoms: C_32  and  C_33
REMARK   15  A    between atoms: C_33  and  O_35
REMARK                            x       y       z     vdW  Elec       q    Type
REMARK                         _______ _______ _______ _____ _____    ______ ____
ROOT
ATOM      1  C   UNL     1       2.399   6.014  18.551  0.00  0.00    +0.000 A 
ATOM      2  C   UNL     1       1.964   7.227  17.986  0.00  0.00    +0.000 A 
ATOM      3  C   UNL     1       1.544   8.303  18.794  0.00  0.00    +0.000 A 
ATOM      4  C   UNL     1       1.428   8.120  20.175  0.00  0.00    +0.000 A 
ATOM      5  C   UNL     1       1.843   6.915  20.748  0.00  0.00    +0.000 A 
ATOM      6  C   UNL     1       2.354   5.873  19.948  0.00  0.00    +0.000 A 
ENDROOT
BRANCH   1   7
ATOM      7  N   UNL     1       2.914   4.987  17.670  0.00  0.00    +0.000 N 
ATOM      8  H   UNL     1       2.605   4.053  17.946  0.00  0.00    +0.000 HD
BRANCH   7   9
ATOM      9  S   UNL     1       4.596   4.915  17.414  0.00  0.00    +0.000 S 
ATOM     10  O   UNL     1       5.024   3.675  18.036  0.00  0.00    +0.000 OA
ATOM     11  O   UNL     1       5.199   6.181  17.762  0.00  0.00    +0.000 OA
BRANCH   9  12
ATOM     12  C   UNL     1       4.692   4.717  15.625  0.00  0.00    +0.000 C 
BRANCH  12  13
ATOM     13  C   UNL     1       5.773   5.630  15.044  0.00  0.00    +0.000 C 
BRANCH  13  14
ATOM     14  C   UNL     1       6.968   4.861  14.482  0.00  0.00    +0.000 C 
BRANCH  14  15
ATOM     15  C   UNL     1       6.499   3.568  13.809  0.00  0.00    +0.000 C 
BRANCH  15  16
ATOM     16  C   UNL     1       6.456   3.710  12.290  0.00  0.00    +0.000 C 
BRANCH  16  17
ATOM     17  C   UNL     1       5.360   2.833  11.686  0.00  0.00    +0.000 C 
BRANCH  17  19
ATOM     18  C   UNL     1       3.292   3.179  10.298  0.00  0.00    +0.000 C 
ATOM     19  C   UNL     1       4.054   3.609  11.540  0.00  0.00    +0.000 C 
ENDBRANCH  17  19
ENDBRANCH  16  17
ENDBRANCH  15  16
ENDBRANCH  14  15
ENDBRANCH  13  14
ENDBRANCH  12  13
ENDBRANCH   9  12
ENDBRANCH   7   9
ENDBRANCH   1   7
BRANCH   3  20
ATOM     20  C   UNL     1       1.245   9.654  18.207  0.00  0.00    +0.000 C 
ATOM     21  O   UNL     1       2.135  10.265  17.623  0.00  0.00    +0.000 OA
BRANCH  20  22
ATOM     22  C   UNL     1      -0.125  10.245  18.297  0.00  0.00    +0.000 A 
ATOM     23  C   UNL     1      -1.118   9.837  17.405  0.00  0.00    +0.000 A 
ATOM     24  C   UNL     1      -2.416  10.328  17.521  0.00  0.00    +0.000 A 
ATOM     25  C   UNL     1      -2.769  11.254  18.518  0.00  0.00    +0.000 A 
ATOM     26  C   UNL     1      -1.749  11.696  19.378  0.00  0.00    +0.000 A 
ATOM     27  C   UNL     1      -0.435  11.208  19.263  0.00  0.00    +0.000 A 
BRANCH  25  28
ATOM     28  C   UNL     1      -4.160  11.742  18.629  0.00  0.00    +0.000 A 
ATOM     29  C   UNL     1      -4.524  12.673  19.622  0.00  0.00    +0.000 A 
ATOM     30  C   UNL     1      -5.847  13.088  19.782  0.00  0.00    +0.000 A 
ATOM     31  C   UNL     1      -6.835  12.596  18.939  0.00  0.00    +0.000 A 
ATOM     32  C   UNL     1      -6.500  11.699  17.930  0.00  0.00    +0.000 A 
ATOM     33  C   UNL     1      -5.176  11.278  17.777  0.00  0.00    +0.000 A 
ENDBRANCH  25  28
ENDBRANCH  20  22
ENDBRANCH   3  20
BRANCH   6  34
ATOM     34  C   UNL     1       2.954   4.702  20.626  0.00  0.00    +0.000 C 
ATOM     35  O   UNL     1       2.323   3.899  21.262  0.00  0.00    +0.000 OA
BRANCH  34  36
ATOM     36  O   UNL     1       4.297   4.620  20.452  0.00  0.00    +0.000 OA
ATOM     37  H   UNL     1       4.635   3.771  20.141  0.00  0.00    +0.000 HD
ENDBRANCH  34  36
ENDBRANCH   6  34
TORSDOF 14
ENDMDL
MODEL 8
REMARK VINA RESULT:      -7.4      4.278     10.781
REMARK  Name = 
REMARK  15 active torsions:
REMARK  status: ('A' for Active; 'I' for Inactive)
REMARK    1  A    between atoms: C_1  and  C_2
REMARK    2  A    between atoms: C_2  and  C_3
REMARK    3  A    between atoms: C_3  and  C_4
REMARK    4  A    between atoms: C_4  and  C_5
REMARK    5  A    between atoms: C_5  and  C_6
REMARK    6  A    between atoms: C_6  and  C_7
REMARK    7  A    between atoms: C_7  and  C_8
REMARK    8  A    between atoms: C_8  and  S_9
REMARK    9  A    between atoms: S_9  and  N_12
REMARK   10  A    between atoms: N_12  and  C_13
REMARK   11  A    between atoms: C_15  and  C_16
REMARK   12  A    between atoms: C_16  and  C_18
REMARK   13  A    between atoms: C_21  and  C_22
REMARK   14  A    between atoms: C_32  and  C_33
REMARK   15  A    between atoms: C_33  and  O_35
REMARK                            x       y       z     vdW  Elec       q    Type
REMARK                         _______ _______ _______ _____ _____    ______ ____
ROOT
ATOM      1  C   UNL     1       1.315   9.348  20.345  0.00  0.00    +0.000 A 
ATOM      2  C   UNL     1       1.958   8.097  20.313  0.00  0.00    +0.000 A 
ATOM      3  C   UNL     1       2.265   7.462  19.092  0.00  0.00    +0.000 A 
ATOM      4  C   UNL     1       1.805   8.017  17.895  0.00  0.00    +0.000 A 
ATOM      5  C   UNL     1       1.152   9.251  17.913  0.00  0.00    +0.000 A 
ATOM      6  C   UNL     1       0.930   9.933  19.127  0.00  0.00    +0.000 A 
ENDROOT
BRANCH   1   7
ATOM      7  N   UNL     1       1.121   9.992  21.627  0.00  0.00    +0.000 N 
ATOM      8  H   UNL     1       1.921   9.861  22.248  0.00  0.00    +0.000 HD
BRANCH   7   9
ATOM      9  S   UNL     1      -0.284   9.616  22.513  0.00  0.00    +0.000 S 
ATOM     10  O   UNL     1       0.097   9.752  23.907  0.00  0.00    +0.000 OA
ATOM     11  O   UNL     1      -0.869   8.396  22.007  0.00  0.00    +0.000 OA
BRANCH   9  12
ATOM     12  C   UNL     1      -1.373  10.986  22.083  0.00  0.00    +0.000 C 
BRANCH  12  13
ATOM     13  C   UNL     1      -1.243  12.113  23.109  0.00  0.00    +0.000 C 
BRANCH  13  14
ATOM     14  C   UNL     1      -2.490  12.992  23.196  0.00  0.00    +0.000 C 
BRANCH  14  15
ATOM     15  C   UNL     1      -3.470  12.635  22.074  0.00  0.00    +0.000 C 
BRANCH  15  16
ATOM     16  C   UNL     1      -4.485  13.750  21.840  0.00  0.00    +0.000 C 
BRANCH  16  17
ATOM     17  C   UNL     1      -5.319  14.008  23.095  0.00  0.00    +0.000 C 
BRANCH  17  19
ATOM     18  C   UNL     1      -7.464  13.360  24.236  0.00  0.00    +0.000 C 
ATOM     19  C   UNL     1      -6.760  13.542  22.902  0.00  0.00    +0.000 C 
ENDBRANCH  17  19
ENDBRANCH  16  17
ENDBRANCH  15  16
ENDBRANCH  14  15
ENDBRANCH  13  14
ENDBRANCH  12  13
ENDBRANCH   9  12
ENDBRANCH   7   9
ENDBRANCH   1   7
BRANCH   3  20
ATOM     20  C   UNL     1       3.104   6.216  19.047  0.00  0.00    +0.000 C 
ATOM     21  O   UNL     1       3.203   5.521  20.054  0.00  0.00    +0.000 OA
BRANCH  20  22
ATOM     22  C   UNL     1       3.788   5.795  17.786  0.00  0.00    +0.000 A 
ATOM     23  C   UNL     1       4.528   6.724  17.054  0.00  0.00    +0.000 A 
ATOM     24  C   UNL     1       5.227   6.331  15.915  0.00  0.00    +0.000 A 
ATOM     25  C   UNL     1       5.203   5.002  15.456  0.00  0.00    +0.000 A 
ATOM     26  C   UNL     1       4.413   4.087  16.173  0.00  0.00    +0.000 A 
ATOM     27  C   UNL     1       3.700   4.479  17.319  0.00  0.00    +0.000 A 
BRANCH  25  28
ATOM     28  C   UNL     1       5.971   4.610  14.256  0.00  0.00    +0.000 A 
ATOM     29  C   UNL     1       7.194   5.235  13.942  0.00  0.00    +0.000 A 
ATOM     30  C   UNL     1       7.894   4.923  12.775  0.00  0.00    +0.000 A 
ATOM     31  C   UNL     1       7.396   3.964  11.903  0.00  0.00    +0.000 A 
ATOM     32  C   UNL     1       6.206   3.308  12.202  0.00  0.00    +0.000 A 
ATOM     33  C   UNL     1       5.502   3.628  13.366  0.00  0.00    +0.000 A 
ENDBRANCH  25  28
ENDBRANCH  20  22
ENDBRANCH   3  20
BRANCH   6  34
ATOM     34  C   UNL     1       0.410  11.317  19.066  0.00  0.00    +0.000 C 
ATOM     35  O   UNL     1      -0.664  11.611  18.607  0.00  0.00    +0.000 OA
BRANCH  34  36
ATOM     36  O   UNL     1       1.268  12.229  19.588  0.00  0.00    +0.000 OA
ATOM     37  H   UNL     1       1.219  12.361  20.544  0.00  0.00    +0.000 HD
ENDBRANCH  34  36
ENDBRANCH   6  34
TORSDOF 14
ENDMDL
MODEL 9
REMARK VINA RESULT:      -7.4      2.246      3.183
REMARK  Name = 
REMARK  15 active torsions:
REMARK  status: ('A' for Active; 'I' for Inactive)
REMARK    1  A    between atoms: C_1  and  C_2
REMARK    2  A    between atoms: C_2  and  C_3
REMARK    3  A    between atoms: C_3  and  C_4
REMARK    4  A    between atoms: C_4  and  C_5
REMARK    5  A    between atoms: C_5  and  C_6
REMARK    6  A    between atoms: C_6  and  C_7
REMARK    7  A    between atoms: C_7  and  C_8
REMARK    8  A    between atoms: C_8  and  S_9
REMARK    9  A    between atoms: S_9  and  N_12
REMARK   10  A    between atoms: N_12  and  C_13
REMARK   11  A    between atoms: C_15  and  C_16
REMARK   12  A    between atoms: C_16  and  C_18
REMARK   13  A    between atoms: C_21  and  C_22
REMARK   14  A    between atoms: C_32  and  C_33
REMARK   15  A    between atoms: C_33  and  O_35
REMARK                            x       y       z     vdW  Elec       q    Type
REMARK                         _______ _______ _______ _____ _____    ______ ____
ROOT
ATOM      1  C   UNL     1       3.729   5.510  19.189  0.00  0.00    +0.000 A 
ATOM      2  C   UNL     1       2.969   6.610  19.624  0.00  0.00    +0.000 A 
ATOM      3  C   UNL     1       1.713   6.436  20.241  0.00  0.00    +0.000 A 
ATOM      4  C   UNL     1       1.150   5.158  20.302  0.00  0.00    +0.000 A 
ATOM      5  C   UNL     1       1.888   4.057  19.860  0.00  0.00    +0.000 A 
ATOM      6  C   UNL     1       3.184   4.222  19.332  0.00  0.00    +0.000 A 
ENDROOT
BRANCH   1   7
ATOM      7  N   UNL     1       5.054   5.752  18.658  0.00  0.00    +0.000 N 
ATOM      8  H   UNL     1       5.506   6.553  19.102  0.00  0.00    +0.000 HD
BRANCH   7   9
ATOM      9  S   UNL     1       5.224   5.936  16.973  0.00  0.00    +0.000 S 
ATOM     10  O   UNL     1       4.572   7.194  16.659  0.00  0.00    +0.000 OA
ATOM     11  O   UNL     1       4.855   4.707  16.307  0.00  0.00    +0.000 OA
BRANCH   9  12
ATOM     12  C   UNL     1       7.005   6.158  16.802  0.00  0.00    +0.000 C 
BRANCH  12  13
ATOM     13  C   UNL     1       7.551   6.998  17.957  0.00  0.00    +0.000 C 
BRANCH  13  14
ATOM     14  C   UNL     1       7.809   8.454  17.571  0.00  0.00    +0.000 C 
BRANCH  14  15
ATOM     15  C   UNL     1       8.670   9.140  18.635  0.00  0.00    +0.000 C 
BRANCH  15  16
ATOM     16  C   UNL     1       9.025  10.569  18.234  0.00  0.00    +0.000 C 
BRANCH  16  17
ATOM     17  C   UNL     1      10.265  11.059  18.981  0.00  0.00    +0.000 C 
BRANCH  17  19
ATOM     18  C   UNL     1      10.639  12.943  17.358  0.00  0.00    +0.000 C 
ATOM     19  C   UNL     1      11.253  11.724  18.027  0.00  0.00    +0.000 C 
ENDBRANCH  17  19
ENDBRANCH  16  17
ENDBRANCH  15  16
ENDBRANCH  14  15
ENDBRANCH  13  14
ENDBRANCH  12  13
ENDBRANCH   9  12
ENDBRANCH   7   9
ENDBRANCH   1   7
BRANCH   3  20
ATOM     20  C   UNL     1       0.978   7.590  20.863  0.00  0.00    +0.000 C 
ATOM     21  O   UNL     1       0.269   7.392  21.844  0.00  0.00    +0.000 OA
BRANCH  20  22
ATOM     22  C   UNL     1       1.127   8.976  20.323  0.00  0.00    +0.000 A 
ATOM     23  C   UNL     1       0.924  10.074  21.160  0.00  0.00    +0.000 A 
ATOM     24  C   UNL     1       1.126  11.369  20.689  0.00  0.00    +0.000 A 
ATOM     25  C   UNL     1       1.524  11.619  19.364  0.00  0.00    +0.000 A 
ATOM     26  C   UNL     1       1.676  10.508  18.516  0.00  0.00    +0.000 A 
ATOM     27  C   UNL     1       1.467   9.199  18.984  0.00  0.00    +0.000 A 
BRANCH  25  28
ATOM     28  C   UNL     1       1.751  13.003  18.898  0.00  0.00    +0.000 A 
ATOM     29  C   UNL     1       2.929  13.351  18.209  0.00  0.00    +0.000 A 
ATOM     30  C   UNL     1       3.187  14.668  17.825  0.00  0.00    +0.000 A 
ATOM     31  C   UNL     1       2.263  15.666  18.107  0.00  0.00    +0.000 A 
ATOM     32  C   UNL     1       1.076  15.346  18.759  0.00  0.00    +0.000 A 
ATOM     33  C   UNL     1       0.824  14.029  19.150  0.00  0.00    +0.000 A 
ENDBRANCH  25  28
ENDBRANCH  20  22
ENDBRANCH   3  20
BRANCH   6  34
ATOM     34  C   UNL     1       3.988   3.009  19.062  0.00  0.00    +0.000 C 
ATOM     35  O   UNL     1       3.595   2.074  18.414  0.00  0.00    +0.000 OA
BRANCH  34  36
ATOM     36  O   UNL     1       5.225   3.059  19.617  0.00  0.00    +0.000 OA
ATOM     37  H   UNL     1       5.967   2.895  19.020  0.00  0.00    +0.000 HD
ENDBRANCH  34  36
ENDBRANCH   6  34
TORSDOF 14
ENDMDL
