MODEL 1
REMARK VINA RESULT:      -8.0      0.000      0.000
REMARK  Name = 
REMARK  9 active torsions:
REMARK  status: ('A' for Active; 'I' for Inactive)
REMARK    1  A    between atoms: C_1  and  O_2
REMARK    2  A    between atoms: O_2  and  C_3
REMARK    3  A    between atoms: C_6  and  C_7
REMARK    4  A    between atoms: C_7  and  O_9
REMARK    5  A    between atoms: O_9  and  C_10
REMARK    6  A    between atoms: C_10  and  C_11
REMARK    7  A    between atoms: N_13  and  C_14
REMARK    8  A    between atoms: C_24  and  O_25
REMARK    9  A    between atoms: O_25  and  C_26
REMARK                            x       y       z     vdW  Elec       q    Type
REMARK                         _______ _______ _______ _____ _____    ______ ____
ROOT
ATOM      1  C   UNL     1       8.138   7.089  18.316  0.00  0.00    +0.000 C 
ENDROOT
BRANCH   1   2
ATOM      2  C   UNL     1       8.231   8.618  18.261  0.00  0.00    +0.000 C 
ATOM      3  O   UNL     1       7.470   9.250  17.541  0.00  0.00    +0.000 OA
ATOM      4  N   UNL     1       9.191   9.142  19.111  0.00  0.00    +0.000 N 
ATOM      5  H   UNL     1       9.622   8.497  19.771  0.00  0.00    +0.000 HD
BRANCH   4   6
ATOM      6  C   UNL     1       9.459  10.514  19.300  0.00  0.00    +0.000 A 
ATOM      7  C   UNL     1       9.440  11.137  20.552  0.00  0.00    +0.000 A 
ATOM      8  C   UNL     1       9.959  12.426  20.709  0.00  0.00    +0.000 A 
ATOM      9  C   UNL     1      10.468  13.096  19.603  0.00  0.00    +0.000 A 
ATOM     10  C   UNL     1      10.311  12.540  18.334  0.00  0.00    +0.000 A 
ATOM     11  C   UNL     1       9.817  11.254  18.173  0.00  0.00    +0.000 A 
ATOM     12  O   UNL     1      10.692  13.211  17.207  0.00  0.00    +0.000 OA
ATOM     13  C   UNL     1      11.947  13.821  17.481  0.00  0.00    +0.000 C 
ATOM     14  C   UNL     1      11.876  14.749  18.694  0.00  0.00    +0.000 C 
ATOM     15  O   UNL     1      11.154  14.255  19.830  0.00  0.00    +0.000 OA
ENDBRANCH   4   6
ENDBRANCH   1   2
BRANCH   1  16
ATOM     16  O   UNL     1       6.794   6.610  18.258  0.00  0.00    +0.000 OA
BRANCH  16  17
ATOM     17  C   UNL     1       6.517   5.549  19.055  0.00  0.00    +0.000 C 
ATOM     18  O   UNL     1       7.244   5.127  19.942  0.00  0.00    +0.000 OA
BRANCH  17  22
ATOM     19  C   UNL     1       2.785   3.775  17.865  0.00  0.00    +0.000 A 
ATOM     20  C   UNL     1       2.899   4.448  19.083  0.00  0.00    +0.000 A 
ATOM     21  C   UNL     1       4.117   5.016  19.452  0.00  0.00    +0.000 A 
ATOM     22  C   UNL     1       5.241   4.926  18.605  0.00  0.00    +0.000 A 
ATOM     23  C   UNL     1       5.125   4.270  17.369  0.00  0.00    +0.000 A 
ATOM     24  C   UNL     1       3.892   3.696  17.020  0.00  0.00    +0.000 A 
BRANCH  19  26
ATOM     25  C   UNL     1       0.885   2.628  18.714  0.00  0.00    +0.000 C 
ATOM     26  O   UNL     1       1.548   3.249  17.614  0.00  0.00    +0.000 OA
ENDBRANCH  19  26
BRANCH  23  27
ATOM     27  O   UNL     1       6.234   4.217  16.569  0.00  0.00    +0.000 OA
ATOM     28  C   UNL     1       6.065   3.752  15.236  0.00  0.00    +0.000 C 
ENDBRANCH  23  27
ENDBRANCH  17  22
ENDBRANCH  16  17
ENDBRANCH   1  16
TORSDOF 7
ENDMDL
MODEL 2
REMARK VINA RESULT:      -7.7      5.246      7.739
REMARK  Name = 
REMARK  9 active torsions:
REMARK  status: ('A' for Active; 'I' for Inactive)
REMARK    1  A    between atoms: C_1  and  O_2
REMARK    2  A    between atoms: O_2  and  C_3
REMARK    3  A    between atoms: C_6  and  C_7
REMARK    4  A    between atoms: C_7  and  O_9
REMARK    5  A    between atoms: O_9  and  C_10
REMARK    6  A    between atoms: C_10  and  C_11
REMARK    7  A    between atoms: N_13  and  C_14
REMARK    8  A    between atoms: C_24  and  O_25
REMARK    9  A    between atoms: O_25  and  C_26
REMARK                            x       y       z     vdW  Elec       q    Type
REMARK                         _______ _______ _______ _____ _____    ______ ____
ROOT
ATOM      1  C   UNL     1       2.379   2.784  18.333  0.00  0.00    +0.000 C 
ENDROOT
BRANCH   1   2
ATOM      2  C   UNL     1       1.953   4.241  18.118  0.00  0.00    +0.000 C 
ATOM      3  O   UNL     1       1.050   4.504  17.335  0.00  0.00    +0.000 OA
ATOM      4  N   UNL     1       2.648   5.140  18.910  0.00  0.00    +0.000 N 
ATOM      5  H   UNL     1       3.246   4.747  19.635  0.00  0.00    +0.000 HD
BRANCH   4   6
ATOM      6  C   UNL     1       2.431   6.533  18.955  0.00  0.00    +0.000 A 
ATOM      7  C   UNL     1       2.623   7.377  17.856  0.00  0.00    +0.000 A 
ATOM      8  C   UNL     1       2.153   8.693  17.884  0.00  0.00    +0.000 A 
ATOM      9  C   UNL     1       1.518   9.167  19.026  0.00  0.00    +0.000 A 
ATOM     10  C   UNL     1       1.500   8.378  20.176  0.00  0.00    +0.000 A 
ATOM     11  C   UNL     1       1.946   7.064  20.149  0.00  0.00    +0.000 A 
ATOM     12  O   UNL     1       0.990   8.843  21.355  0.00  0.00    +0.000 OA
ATOM     13  C   UNL     1      -0.207   9.547  21.049  0.00  0.00    +0.000 C 
ATOM     14  C   UNL     1       0.037  10.680  20.053  0.00  0.00    +0.000 C 
ATOM     15  O   UNL     1       0.889  10.376  18.941  0.00  0.00    +0.000 OA
ENDBRANCH   4   6
ENDBRANCH   1   2
BRANCH   1  16
ATOM     16  O   UNL     1       3.669   2.496  17.794  0.00  0.00    +0.000 OA
BRANCH  16  17
ATOM     17  C   UNL     1       4.710   3.107  18.410  0.00  0.00    +0.000 C 
ATOM     18  O   UNL     1       4.878   3.163  19.620  0.00  0.00    +0.000 OA
BRANCH  17  22
ATOM     19  C   UNL     1       7.087   4.990  15.362  0.00  0.00    +0.000 A 
ATOM     20  C   UNL     1       6.034   4.140  15.021  0.00  0.00    +0.000 A 
ATOM     21  C   UNL     1       5.274   3.538  16.023  0.00  0.00    +0.000 A 
ATOM     22  C   UNL     1       5.553   3.782  17.383  0.00  0.00    +0.000 A 
ATOM     23  C   UNL     1       6.597   4.654  17.730  0.00  0.00    +0.000 A 
ATOM     24  C   UNL     1       7.356   5.243  16.707  0.00  0.00    +0.000 A 
BRANCH  19  26
ATOM     25  C   UNL     1       7.446   4.985  13.013  0.00  0.00    +0.000 C 
ATOM     26  O   UNL     1       7.769   5.514  14.298  0.00  0.00    +0.000 OA
ENDBRANCH  19  26
BRANCH  23  27
ATOM     27  O   UNL     1       6.827   4.876  19.062  0.00  0.00    +0.000 OA
ATOM     28  C   UNL     1       7.822   5.829  19.410  0.00  0.00    +0.000 C 
ENDBRANCH  23  27
ENDBRANCH  17  22
ENDBRANCH  16  17
ENDBRANCH   1  16
TORSDOF 7
ENDMDL
MODEL 3
REMARK VINA RESULT:      -7.6      1.630      2.769
REMARK  Name = 
REMARK  9 active torsions:
REMARK  status: ('A' for Active; 'I' for Inactive)
REMARK    1  A    between atoms: C_1  and  O_2
REMARK    2  A    between atoms: O_2  and  C_3
REMARK    3  A    between atoms: C_6  and  C_7
REMARK    4  A    between atoms: C_7  and  O_9
REMARK    5  A    between atoms: O_9  and  C_10
REMARK    6  A    between atoms: C_10  and  C_11
REMARK    7  A    between atoms: N_13  and  C_14
REMARK    8  A    between atoms: C_24  and  O_25
REMARK    9  A    between atoms: O_25  and  C_26
REMARK                            x       y       z     vdW  Elec       q    Type
REMARK                         _______ _______ _______ _____ _____    ______ ____
ROOT
ATOM      1  C   UNL     1       7.817   6.879  18.103  0.00  0.00    +0.000 C 
ENDROOT
BRANCH   1   2
ATOM      2  C   UNL     1       8.041   8.394  18.039  0.00  0.00    +0.000 C 
ATOM      3  O   UNL     1       7.396   9.073  17.250  0.00  0.00    +0.000 OA
ATOM      4  N   UNL     1       8.967   8.853  18.960  0.00  0.00    +0.000 N 
ATOM      5  H   UNL     1       9.287   8.187  19.661  0.00  0.00    +0.000 HD
BRANCH   4   6
ATOM      6  C   UNL     1       9.332  10.202  19.155  0.00  0.00    +0.000 A 
ATOM      7  C   UNL     1       9.634  11.077  18.106  0.00  0.00    +0.000 A 
ATOM      8  C   UNL     1       9.738  12.451  18.338  0.00  0.00    +0.000 A 
ATOM      9  C   UNL     1       9.568  12.940  19.628  0.00  0.00    +0.000 A 
ATOM     10  C   UNL     1       9.454  12.043  20.690  0.00  0.00    +0.000 A 
ATOM     11  C   UNL     1       9.329  10.680  20.465  0.00  0.00    +0.000 A 
ATOM     12  O   UNL     1       9.400  12.472  21.986  0.00  0.00    +0.000 OA
ATOM     13  C   UNL     1       8.544  13.607  22.020  0.00  0.00    +0.000 C 
ATOM     14  C   UNL     1       9.027  14.712  21.079  0.00  0.00    +0.000 C 
ATOM     15  O   UNL     1       9.465  14.293  19.781  0.00  0.00    +0.000 OA
ENDBRANCH   4   6
ENDBRANCH   1   2
BRANCH   1  16
ATOM     16  O   UNL     1       6.435   6.520  18.131  0.00  0.00    +0.000 OA
BRANCH  16  17
ATOM     17  C   UNL     1       5.940   6.010  16.978  0.00  0.00    +0.000 C 
ATOM     18  O   UNL     1       6.420   6.184  15.867  0.00  0.00    +0.000 OA
BRANCH  17  22
ATOM     19  C   UNL     1       2.315   3.843  17.789  0.00  0.00    +0.000 A 
ATOM     20  C   UNL     1       3.479   3.171  17.413  0.00  0.00    +0.000 A 
ATOM     21  C   UNL     1       4.645   3.890  17.154  0.00  0.00    +0.000 A 
ATOM     22  C   UNL     1       4.666   5.295  17.272  0.00  0.00    +0.000 A 
ATOM     23  C   UNL     1       3.504   5.973  17.672  0.00  0.00    +0.000 A 
ATOM     24  C   UNL     1       2.338   5.232  17.920  0.00  0.00    +0.000 A 
BRANCH  19  26
ATOM     25  C   UNL     1       0.835   2.858  19.365  0.00  0.00    +0.000 C 
ATOM     26  O   UNL     1       1.232   3.037  18.007  0.00  0.00    +0.000 OA
ENDBRANCH  19  26
BRANCH  23  27
ATOM     27  O   UNL     1       3.570   7.336  17.790  0.00  0.00    +0.000 OA
ATOM     28  C   UNL     1       2.349   8.042  17.974  0.00  0.00    +0.000 C 
ENDBRANCH  23  27
ENDBRANCH  17  22
ENDBRANCH  16  17
ENDBRANCH   1  16
TORSDOF 7
ENDMDL
MODEL 4
REMARK VINA RESULT:      -7.6      1.360      1.891
REMARK  Name = 
REMARK  9 active torsions:
REMARK  status: ('A' for Active; 'I' for Inactive)
REMARK    1  A    between atoms: C_1  and  O_2
REMARK    2  A    between atoms: O_2  and  C_3
REMARK    3  A    between atoms: C_6  and  C_7
REMARK    4  A    between atoms: C_7  and  O_9
REMARK    5  A    between atoms: O_9  and  C_10
REMARK    6  A    between atoms: C_10  and  C_11
REMARK    7  A    between atoms: N_13  and  C_14
REMARK    8  A    between atoms: C_24  and  O_25
REMARK    9  A    between atoms: O_25  and  C_26
REMARK                            x       y       z     vdW  Elec       q    Type
REMARK                         _______ _______ _______ _____ _____    ______ ____
ROOT
ATOM      1  C   UNL     1       8.134   7.201  18.592  0.00  0.00    +0.000 C 
ENDROOT
BRANCH   1   2
ATOM      2  C   UNL     1       8.286   8.681  18.226  0.00  0.00    +0.000 C 
ATOM      3  O   UNL     1       7.539   9.184  17.397  0.00  0.00    +0.000 OA
ATOM      4  N   UNL     1       9.279   9.326  18.944  0.00  0.00    +0.000 N 
ATOM      5  H   UNL     1       9.694   8.812  19.719  0.00  0.00    +0.000 HD
BRANCH   4   6
ATOM      6  C   UNL     1       9.605  10.695  18.846  0.00  0.00    +0.000 A 
ATOM      7  C   UNL     1      10.401  11.226  17.826  0.00  0.00    +0.000 A 
ATOM      8  C   UNL     1      10.479  12.609  17.636  0.00  0.00    +0.000 A 
ATOM      9  C   UNL     1       9.780  13.455  18.488  0.00  0.00    +0.000 A 
ATOM     10  C   UNL     1       9.144  12.924  19.609  0.00  0.00    +0.000 A 
ATOM     11  C   UNL     1       9.045  11.552  19.793  0.00  0.00    +0.000 A 
ATOM     12  O   UNL     1       8.541  13.726  20.537  0.00  0.00    +0.000 OA
ATOM     13  C   UNL     1       7.838  14.738  19.828  0.00  0.00    +0.000 C 
ATOM     14  C   UNL     1       8.762  15.535  18.907  0.00  0.00    +0.000 C 
ATOM     15  O   UNL     1       9.708  14.775  18.145  0.00  0.00    +0.000 OA
ENDBRANCH   4   6
ENDBRANCH   1   2
BRANCH   1  16
ATOM     16  O   UNL     1       7.428   6.451  17.603  0.00  0.00    +0.000 OA
BRANCH  16  17
ATOM     17  C   UNL     1       7.285   5.129  17.862  0.00  0.00    +0.000 C 
ATOM     18  O   UNL     1       8.205   4.338  18.015  0.00  0.00    +0.000 OA
BRANCH  17  22
ATOM     19  C   UNL     1       3.094   4.167  17.879  0.00  0.00    +0.000 A 
ATOM     20  C   UNL     1       3.670   4.864  18.942  0.00  0.00    +0.000 A 
ATOM     21  C   UNL     1       5.030   5.167  18.919  0.00  0.00    +0.000 A 
ATOM     22  C   UNL     1       5.837   4.782  17.829  0.00  0.00    +0.000 A 
ATOM     23  C   UNL     1       5.257   4.100  16.747  0.00  0.00    +0.000 A 
ATOM     24  C   UNL     1       3.888   3.796  16.792  0.00  0.00    +0.000 A 
BRANCH  19  26
ATOM     25  C   UNL     1       1.399   2.654  18.575  0.00  0.00    +0.000 C 
ATOM     26  O   UNL     1       1.756   3.916  18.014  0.00  0.00    +0.000 OA
ENDBRANCH  19  26
BRANCH  23  27
ATOM     27  O   UNL     1       6.071   3.757  15.700  0.00  0.00    +0.000 OA
ATOM     28  C   UNL     1       5.826   4.376  14.444  0.00  0.00    +0.000 C 
ENDBRANCH  23  27
ENDBRANCH  17  22
ENDBRANCH  16  17
ENDBRANCH   1  16
TORSDOF 7
ENDMDL
MODEL 5
REMARK VINA RESULT:      -7.5      6.404      9.612
REMARK  Name = 
REMARK  9 active torsions:
REMARK  status: ('A' for Active; 'I' for Inactive)
REMARK    1  A    between atoms: C_1  and  O_2
REMARK    2  A    between atoms: O_2  and  C_3
REMARK    3  A    between atoms: C_6  and  C_7
REMARK    4  A    between atoms: C_7  and  O_9
REMARK    5  A    between atoms: O_9  and  C_10
REMARK    6  A    between atoms: C_10  and  C_11
REMARK    7  A    between atoms: N_13  and  C_14
REMARK    8  A    between atoms: C_24  and  O_25
REMARK    9  A    between atoms: O_25  and  C_26
REMARK                            x       y       z     vdW  Elec       q    Type
REMARK                         _______ _______ _______ _____ _____    ______ ____
ROOT
ATOM      1  C   UNL     1       1.418   8.312  21.254  0.00  0.00    +0.000 C 
ENDROOT
BRANCH   1   2
ATOM      2  C   UNL     1       2.011   7.613  20.025  0.00  0.00    +0.000 C 
ATOM      3  O   UNL     1       2.070   8.206  18.956  0.00  0.00    +0.000 OA
ATOM      4  N   UNL     1       2.476   6.336  20.289  0.00  0.00    +0.000 N 
ATOM      5  H   UNL     1       2.512   6.052  21.267  0.00  0.00    +0.000 HD
BRANCH   4   6
ATOM      6  C   UNL     1       3.110   5.484  19.360  0.00  0.00    +0.000 A 
ATOM      7  C   UNL     1       2.435   4.852  18.310  0.00  0.00    +0.000 A 
ATOM      8  C   UNL     1       3.150   4.233  17.281  0.00  0.00    +0.000 A 
ATOM      9  C   UNL     1       4.539   4.225  17.324  0.00  0.00    +0.000 A 
ATOM     10  C   UNL     1       5.191   4.692  18.464  0.00  0.00    +0.000 A 
ATOM     11  C   UNL     1       4.490   5.326  19.480  0.00  0.00    +0.000 A 
ATOM     12  O   UNL     1       6.547   4.600  18.602  0.00  0.00    +0.000 OA
ATOM     13  C   UNL     1       7.124   4.954  17.351  0.00  0.00    +0.000 C 
ATOM     14  C   UNL     1       6.610   4.069  16.215  0.00  0.00    +0.000 C 
ATOM     15  O   UNL     1       5.201   3.803  16.206  0.00  0.00    +0.000 OA
ENDBRANCH   4   6
ENDBRANCH   1   2
BRANCH   1  16
ATOM     16  O   UNL     1       0.181   8.969  20.978  0.00  0.00    +0.000 OA
BRANCH  16  17
ATOM     17  C   UNL     1       0.263  10.305  20.765  0.00  0.00    +0.000 C 
ATOM     18  O   UNL     1       1.021  11.066  21.350  0.00  0.00    +0.000 OA
BRANCH  17  22
ATOM     19  C   UNL     1      -2.706  11.390  17.851  0.00  0.00    +0.000 A 
ATOM     20  C   UNL     1      -1.757  10.406  17.569  0.00  0.00    +0.000 A 
ATOM     21  C   UNL     1      -0.802  10.068  18.527  0.00  0.00    +0.000 A 
ATOM     22  C   UNL     1      -0.784  10.705  19.784  0.00  0.00    +0.000 A 
ATOM     23  C   UNL     1      -1.751  11.679  20.079  0.00  0.00    +0.000 A 
ATOM     24  C   UNL     1      -2.699  12.013  19.100  0.00  0.00    +0.000 A 
BRANCH  19  26
ATOM     25  C   UNL     1      -4.972  11.578  17.161  0.00  0.00    +0.000 C 
ATOM     26  O   UNL     1      -3.585  11.646  16.835  0.00  0.00    +0.000 OA
ENDBRANCH  19  26
BRANCH  23  27
ATOM     27  O   UNL     1      -1.709  12.264  21.317  0.00  0.00    +0.000 OA
ATOM     28  C   UNL     1      -1.580  13.679  21.373  0.00  0.00    +0.000 C 
ENDBRANCH  23  27
ENDBRANCH  17  22
ENDBRANCH  16  17
ENDBRANCH   1  16
TORSDOF 7
ENDMDL
MODEL 6
REMARK VINA RESULT:      -7.5      1.598      2.329
REMARK  Name = 
REMARK  9 active torsions:
REMARK  status: ('A' for Active; 'I' for Inactive)
REMARK    1  A    between atoms: C_1  and  O_2
REMARK    2  A    between atoms: O_2  and  C_3
REMARK    3  A    between atoms: C_6  and  C_7
REMARK    4  A    between atoms: C_7  and  O_9
REMARK    5  A    between atoms: O_9  and  C_10
REMARK    6  A    between atoms: C_10  and  C_11
REMARK    7  A    between atoms: N_13  and  C_14
REMARK    8  A    between atoms: C_24  and  O_25
REMARK    9  A    between atoms: O_25  and  C_26
REMARK                            x       y       z     vdW  Elec       q    Type
REMARK                         _______ _______ _______ _____ _____    ______ ____
ROOT
ATOM      1  C   UNL     1       7.642   6.819  18.065  0.00  0.00    +0.000 C 
ENDROOT
BRANCH   1   2
ATOM      2  C   UNL     1       7.969   8.315  17.988  0.00  0.00    +0.000 C 
ATOM      3  O   UNL     1       7.461   9.006  17.116  0.00  0.00    +0.000 OA
ATOM      4  N   UNL     1       8.817   8.744  18.995  0.00  0.00    +0.000 N 
ATOM      5  H   UNL     1       9.014   8.083  19.744  0.00  0.00    +0.000 HD
BRANCH   4   6
ATOM      6  C   UNL     1       9.246  10.073  19.196  0.00  0.00    +0.000 A 
ATOM      7  C   UNL     1       9.375  10.658  20.460  0.00  0.00    +0.000 A 
ATOM      8  C   UNL     1      10.040  11.878  20.611  0.00  0.00    +0.000 A 
ATOM      9  C   UNL     1      10.550  12.521  19.489  0.00  0.00    +0.000 A 
ATOM     10  C   UNL     1      10.253  12.023  18.221  0.00  0.00    +0.000 A 
ATOM     11  C   UNL     1       9.611  10.802  18.064  0.00  0.00    +0.000 A 
ATOM     12  O   UNL     1      10.633  12.681  17.086  0.00  0.00    +0.000 OA
ATOM     13  C   UNL     1      11.962  13.143  17.290  0.00  0.00    +0.000 C 
ATOM     14  C   UNL     1      12.070  14.038  18.526  0.00  0.00    +0.000 C 
ATOM     15  O   UNL     1      11.371  13.592  19.695  0.00  0.00    +0.000 OA
ENDBRANCH   4   6
ENDBRANCH   1   2
BRANCH   1  16
ATOM     16  O   UNL     1       7.381   6.239  16.787  0.00  0.00    +0.000 OA
BRANCH  16  17
ATOM     17  C   UNL     1       6.081   6.226  16.404  0.00  0.00    +0.000 C 
ATOM     18  O   UNL     1       5.644   6.729  15.379  0.00  0.00    +0.000 OA
BRANCH  17  22
ATOM     19  C   UNL     1       3.789   4.302  19.492  0.00  0.00    +0.000 A 
ATOM     20  C   UNL     1       4.893   3.666  18.921  0.00  0.00    +0.000 A 
ATOM     21  C   UNL     1       5.623   4.305  17.921  0.00  0.00    +0.000 A 
ATOM     22  C   UNL     1       5.265   5.595  17.479  0.00  0.00    +0.000 A 
ATOM     23  C   UNL     1       4.170   6.248  18.066  0.00  0.00    +0.000 A 
ATOM     24  C   UNL     1       3.441   5.584  19.065  0.00  0.00    +0.000 A 
BRANCH  19  26
ATOM     25  C   UNL     1       2.092   4.241  21.154  0.00  0.00    +0.000 C 
ATOM     26  O   UNL     1       3.143   3.576  20.454  0.00  0.00    +0.000 OA
ENDBRANCH  19  26
BRANCH  23  27
ATOM     27  O   UNL     1       3.863   7.506  17.620  0.00  0.00    +0.000 OA
ATOM     28  C   UNL     1       2.646   8.087  18.070  0.00  0.00    +0.000 C 
ENDBRANCH  23  27
ENDBRANCH  17  22
ENDBRANCH  16  17
ENDBRANCH   1  16
TORSDOF 7
ENDMDL
MODEL 7
REMARK VINA RESULT:      -7.4      6.707      9.596
REMARK  Name = 
REMARK  9 active torsions:
REMARK  status: ('A' for Active; 'I' for Inactive)
REMARK    1  A    between atoms: C_1  and  O_2
REMARK    2  A    between atoms: O_2  and  C_3
REMARK    3  A    between atoms: C_6  and  C_7
REMARK    4  A    between atoms: C_7  and  O_9
REMARK    5  A    between atoms: O_9  and  C_10
REMARK    6  A    between atoms: C_10  and  C_11
REMARK    7  A    between atoms: N_13  and  C_14
REMARK    8  A    between atoms: C_24  and  O_25
REMARK    9  A    between atoms: O_25  and  C_26
REMARK                            x       y       z     vdW  Elec       q    Type
REMARK                         _______ _______ _______ _____ _____    ______ ____
ROOT
ATOM      1  C   UNL     1       2.089   9.117  18.021  0.00  0.00    +0.000 C 
ENDROOT
BRANCH   1   2
ATOM      2  C   UNL     1       0.747   9.622  18.562  0.00  0.00    +0.000 C 
ATOM      3  O   UNL     1       0.551   9.658  19.770  0.00  0.00    +0.000 OA
ATOM      4  N   UNL     1      -0.123  10.042  17.570  0.00  0.00    +0.000 N 
ATOM      5  H   UNL     1       0.253  10.110  16.626  0.00  0.00    +0.000 HD
BRANCH   4   6
ATOM      6  C   UNL     1      -1.404  10.595  17.782  0.00  0.00    +0.000 A 
ATOM      7  C   UNL     1      -2.567  10.093  17.189  0.00  0.00    +0.000 A 
ATOM      8  C   UNL     1      -3.825  10.514  17.629  0.00  0.00    +0.000 A 
ATOM      9  C   UNL     1      -3.911  11.460  18.644  0.00  0.00    +0.000 A 
ATOM     10  C   UNL     1      -2.750  12.087  19.095  0.00  0.00    +0.000 A 
ATOM     11  C   UNL     1      -1.498  11.660  18.678  0.00  0.00    +0.000 A 
ATOM     12  O   UNL     1      -2.794  13.102  20.008  0.00  0.00    +0.000 OA
ATOM     13  C   UNL     1      -3.744  12.738  21.001  0.00  0.00    +0.000 C 
ATOM     14  C   UNL     1      -5.122  12.462  20.396  0.00  0.00    +0.000 C 
ATOM     15  O   UNL     1      -5.141  11.687  19.191  0.00  0.00    +0.000 OA
ENDBRANCH   4   6
ENDBRANCH   1   2
BRANCH   1  16
ATOM     16  O   UNL     1       2.058   7.739  17.650  0.00  0.00    +0.000 OA
BRANCH  16  17
ATOM     17  C   UNL     1       2.722   6.895  18.477  0.00  0.00    +0.000 C 
ATOM     18  O   UNL     1       2.648   6.903  19.698  0.00  0.00    +0.000 OA
BRANCH  17  22
ATOM     19  C   UNL     1       5.385   4.509  16.090  0.00  0.00    +0.000 A 
ATOM     20  C   UNL     1       5.519   5.897  16.136  0.00  0.00    +0.000 A 
ATOM     21  C   UNL     1       4.646   6.655  16.915  0.00  0.00    +0.000 A 
ATOM     22  C   UNL     1       3.628   6.034  17.667  0.00  0.00    +0.000 A 
ATOM     23  C   UNL     1       3.503   4.636  17.641  0.00  0.00    +0.000 A 
ATOM     24  C   UNL     1       4.385   3.891  16.843  0.00  0.00    +0.000 A 
BRANCH  19  26
ATOM     25  C   UNL     1       6.065   3.966  13.879  0.00  0.00    +0.000 C 
ATOM     26  O   UNL     1       6.288   3.871  15.285  0.00  0.00    +0.000 OA
ENDBRANCH  19  26
BRANCH  23  27
ATOM     27  O   UNL     1       2.510   4.070  18.396  0.00  0.00    +0.000 OA
ATOM     28  C   UNL     1       2.900   3.231  19.475  0.00  0.00    +0.000 C 
ENDBRANCH  23  27
ENDBRANCH  17  22
ENDBRANCH  16  17
ENDBRANCH   1  16
TORSDOF 7
ENDMDL
MODEL 8
REMARK VINA RESULT:      -7.4      5.392      7.961
REMARK  Name = 
REMARK  9 active torsions:
REMARK  status: ('A' for Active; 'I' for Inactive)
REMARK    1  A    between atoms: C_1  and  O_2
REMARK    2  A    between atoms: O_2  and  C_3
REMARK    3  A    between atoms: C_6  and  C_7
REMARK    4  A    between atoms: C_7  and  O_9
REMARK    5  A    between atoms: O_9  and  C_10
REMARK    6  A    between atoms: C_10  and  C_11
REMARK    7  A    between atoms: N_13  and  C_14
REMARK    8  A    between atoms: C_24  and  O_25
REMARK    9  A    between atoms: O_25  and  C_26
REMARK                            x       y       z     vdW  Elec       q    Type
REMARK                         _______ _______ _______ _____ _____    ______ ____
ROOT
ATOM      1  C   UNL     1       2.514   4.352  19.352  0.00  0.00    +0.000 C 
ENDROOT
BRANCH   1   2
ATOM      2  C   UNL     1       1.899   5.589  20.016  0.00  0.00    +0.000 C 
ATOM      3  O   UNL     1       1.255   5.470  21.050  0.00  0.00    +0.000 OA
ATOM      4  N   UNL     1       2.195   6.771  19.357  0.00  0.00    +0.000 N 
ATOM      5  H   UNL     1       2.886   6.721  18.610  0.00  0.00    +0.000 HD
BRANCH   4   6
ATOM      6  C   UNL     1       1.802   8.061  19.770  0.00  0.00    +0.000 A 
ATOM      7  C   UNL     1       1.544   9.109  18.880  0.00  0.00    +0.000 A 
ATOM      8  C   UNL     1       0.917  10.277  19.324  0.00  0.00    +0.000 A 
ATOM      9  C   UNL     1       0.577  10.401  20.666  0.00  0.00    +0.000 A 
ATOM     10  C   UNL     1       1.006   9.433  21.573  0.00  0.00    +0.000 A 
ATOM     11  C   UNL     1       1.610   8.262  21.137  0.00  0.00    +0.000 A 
ATOM     12  O   UNL     1       0.796   9.567  22.916  0.00  0.00    +0.000 OA
ATOM     13  C   UNL     1      -0.527  10.058  23.090  0.00  0.00    +0.000 C 
ATOM     14  C   UNL     1      -0.747  11.377  22.349  0.00  0.00    +0.000 C 
ATOM     15  O   UNL     1      -0.217  11.454  21.020  0.00  0.00    +0.000 OA
ENDBRANCH   4   6
ENDBRANCH   1   2
BRANCH   1  16
ATOM     16  O   UNL     1       3.677   4.653  18.581  0.00  0.00    +0.000 OA
BRANCH  16  17
ATOM     17  C   UNL     1       4.229   3.605  17.922  0.00  0.00    +0.000 C 
ATOM     18  O   UNL     1       3.976   2.428  18.134  0.00  0.00    +0.000 OA
BRANCH  17  22
ATOM     19  C   UNL     1       7.136   5.046  15.101  0.00  0.00    +0.000 A 
ATOM     20  C   UNL     1       5.889   4.591  14.670  0.00  0.00    +0.000 A 
ATOM     21  C   UNL     1       4.960   4.127  15.599  0.00  0.00    +0.000 A 
ATOM     22  C   UNL     1       5.260   4.117  16.976  0.00  0.00    +0.000 A 
ATOM     23  C   UNL     1       6.505   4.595  17.416  0.00  0.00    +0.000 A 
ATOM     24  C   UNL     1       7.431   5.049  16.465  0.00  0.00    +0.000 A 
BRANCH  19  26
ATOM     25  C   UNL     1       7.615   5.084  12.774  0.00  0.00    +0.000 C 
ATOM     26  O   UNL     1       7.971   5.466  14.101  0.00  0.00    +0.000 OA
ENDBRANCH  19  26
BRANCH  23  27
ATOM     27  O   UNL     1       6.753   4.582  18.762  0.00  0.00    +0.000 OA
ATOM     28  C   UNL     1       7.457   5.687  19.314  0.00  0.00    +0.000 C 
ENDBRANCH  23  27
ENDBRANCH  17  22
ENDBRANCH  16  17
ENDBRANCH   1  16
TORSDOF 7
ENDMDL
MODEL 9
REMARK VINA RESULT:      -7.4      4.933      7.659
REMARK  Name = 
REMARK  9 active torsions:
REMARK  status: ('A' for Active; 'I' for Inactive)
REMARK    1  A    between atoms: C_1  and  O_2
REMARK    2  A    between atoms: O_2  and  C_3
REMARK    3  A    between atoms: C_6  and  C_7
REMARK    4  A    between atoms: C_7  and  O_9
REMARK    5  A    between atoms: O_9  and  C_10
REMARK    6  A    between atoms: C_10  and  C_11
REMARK    7  A    between atoms: N_13  and  C_14
REMARK    8  A    between atoms: C_24  and  O_25
REMARK    9  A    between atoms: O_25  and  C_26
REMARK                            x       y       z     vdW  Elec       q    Type
REMARK                         _______ _______ _______ _____ _____    ______ ____
ROOT
ATOM      1  C   UNL     1       3.199   5.657  18.544  0.00  0.00    +0.000 C 
ENDROOT
BRANCH   1   2
ATOM      2  C   UNL     1       2.258   6.271  19.587  0.00  0.00    +0.000 C 
ATOM      3  O   UNL     1       1.737   5.556  20.433  0.00  0.00    +0.000 OA
ATOM      4  N   UNL     1       2.132   7.645  19.473  0.00  0.00    +0.000 N 
ATOM      5  H   UNL     1       2.765   8.113  18.827  0.00  0.00    +0.000 HD
BRANCH   4   6
ATOM      6  C   UNL     1       1.372   8.473  20.325  0.00  0.00    +0.000 A 
ATOM      7  C   UNL     1       1.381   8.358  21.719  0.00  0.00    +0.000 A 
ATOM      8  C   UNL     1       0.816   9.357  22.516  0.00  0.00    +0.000 A 
ATOM      9  C   UNL     1       0.216  10.455  21.910  0.00  0.00    +0.000 A 
ATOM     10  C   UNL     1       0.049  10.466  20.526  0.00  0.00    +0.000 A 
ATOM     11  C   UNL     1       0.626   9.488  19.728  0.00  0.00    +0.000 A 
ATOM     12  O   UNL     1      -0.635  11.466  19.895  0.00  0.00    +0.000 OA
ATOM     13  C   UNL     1      -0.238  12.693  20.496  0.00  0.00    +0.000 C 
ATOM     14  C   UNL     1      -0.493  12.697  22.004  0.00  0.00    +0.000 C 
ATOM     15  O   UNL     1      -0.133  11.504  22.712  0.00  0.00    +0.000 OA
ENDBRANCH   4   6
ENDBRANCH   1   2
BRANCH   1  16
ATOM     16  O   UNL     1       4.578   5.895  18.827  0.00  0.00    +0.000 OA
BRANCH  16  17
ATOM     17  C   UNL     1       5.398   4.827  18.680  0.00  0.00    +0.000 C 
ATOM     18  O   UNL     1       5.791   4.110  19.589  0.00  0.00    +0.000 OA
BRANCH  17  22
ATOM     19  C   UNL     1       6.534   4.478  14.548  0.00  0.00    +0.000 A 
ATOM     20  C   UNL     1       5.382   3.852  15.026  0.00  0.00    +0.000 A 
ATOM     21  C   UNL     1       5.030   3.976  16.369  0.00  0.00    +0.000 A 
ATOM     22  C   UNL     1       5.822   4.734  17.255  0.00  0.00    +0.000 A 
ATOM     23  C   UNL     1       6.970   5.384  16.773  0.00  0.00    +0.000 A 
ATOM     24  C   UNL     1       7.313   5.240  15.420  0.00  0.00    +0.000 A 
BRANCH  19  26
ATOM     25  C   UNL     1       5.886   3.418  12.522  0.00  0.00    +0.000 C 
ATOM     26  O   UNL     1       6.786   4.278  13.218  0.00  0.00    +0.000 OA
ENDBRANCH  19  26
BRANCH  23  27
ATOM     27  O   UNL     1       7.704   6.123  17.662  0.00  0.00    +0.000 OA
ATOM     28  C   UNL     1       7.603   7.539  17.585  0.00  0.00    +0.000 C 
ENDBRANCH  23  27
ENDBRANCH  17  22
ENDBRANCH  16  17
ENDBRANCH   1  16
TORSDOF 7
ENDMDL
