MODEL 1
REMARK VINA RESULT:      -6.4      0.000      0.000
REMARK  Name = 
REMARK  16 active torsions:
REMARK  status: ('A' for Active; 'I' for Inactive)
REMARK    1  A    between atoms: C_1  and  C_2
REMARK    2  A    between atoms: C_2  and  C_3
REMARK    3  A    between atoms: C_3  and  C_4
REMARK    4  A    between atoms: C_4  and  C_5
REMARK    5  A    between atoms: C_5  and  C_6
REMARK    6  A    between atoms: C_6  and  S_7
REMARK    7  A    between atoms: S_7  and  C_8
REMARK    8  A    between atoms: C_10  and  C_11
REMARK    9  A    between atoms: C_11  and  C_12
REMARK   10  A    between atoms: C_11  and  C_13
REMARK   11  A    between atoms: C_11  and  C_14
REMARK   12  A    between atoms: C_16  and  O_17
REMARK   13  A    between atoms: O_17  and  C_18
REMARK   14  A    between atoms: C_18  and  C_19
REMARK   15  A    between atoms: C_19  and  O_21
REMARK   16  A    between atoms: C_22  and  C_23
REMARK                            x       y       z     vdW  Elec       q    Type
REMARK                         _______ _______ _______ _____ _____    ______ ____
ROOT
ATOM      1  C   UNL     1       3.527   5.779  19.489  0.00  0.00    +0.000 A 
ATOM      2  N   UNL     1       4.722   6.152  18.979  0.00  0.00    +0.000 NA
ATOM      3  C   UNL     1       5.643   5.207  18.741  0.00  0.00    +0.000 A 
ATOM      4  N   UNL     1       5.446   3.907  18.997  0.00  0.00    +0.000 NA
ATOM      5  C   UNL     1       4.240   3.562  19.499  0.00  0.00    +0.000 A 
ATOM      6  C   UNL     1       3.230   4.465  19.797  0.00  0.00    +0.000 A 
ENDROOT
BRANCH   3   7
ATOM      7  C   UNL     1       6.975   5.625  18.129  0.00  0.00    +0.000 C 
ATOM      8  C   UNL     1       7.490   4.566  17.133  0.00  0.00    +0.000 C 
ATOM      9  C   UNL     1       6.802   6.960  17.386  0.00  0.00    +0.000 C 
ATOM     10  C   UNL     1       8.019   5.793  19.247  0.00  0.00    +0.000 C 
ENDBRANCH   3   7
BRANCH   6  11
ATOM     11  C   UNL     1       1.995   4.042  20.358  0.00  0.00    +0.000 C 
ATOM     12  N   UNL     1       0.983   3.711  20.817  0.00  0.00    +0.000 NA
ENDBRANCH   6  11
BRANCH   1  13
ATOM     13  S   UNL     1       2.383   7.145  19.752  0.00  0.00    +0.000 S 
BRANCH  13  14
ATOM     14  C   UNL     1       2.667   8.105  18.213  0.00  0.00    +0.000 C 
BRANCH  14  15
ATOM     15  C   UNL     1       1.420   8.857  17.741  0.00  0.00    +0.000 C 
BRANCH  15  16
ATOM     16  C   UNL     1       1.290  10.199  18.482  0.00  0.00    +0.000 C 
BRANCH  16  17
ATOM     17  C   UNL     1       0.123  10.188  19.472  0.00  0.00    +0.000 C 
BRANCH  17  19
ATOM     18  C   UNL     1      -0.192   9.282  21.797  0.00  0.00    +0.000 C 
ATOM     19  C   UNL     1       0.599  10.248  20.925  0.00  0.00    +0.000 C 
ENDBRANCH  17  19
ENDBRANCH  16  17
ENDBRANCH  15  16
ENDBRANCH  14  15
ENDBRANCH  13  14
ENDBRANCH   1  13
BRANCH   5  20
ATOM     20  O   UNL     1       4.032   2.218  19.755  0.00  0.00    +0.000 OA
BRANCH  20  21
ATOM     21  C   UNL     1       3.688   1.458  18.597  0.00  0.00    +0.000 C 
BRANCH  21  22
ATOM     22  C   UNL     1       2.423   1.912  17.871  0.00  0.00    +0.000 C 
ATOM     23  O   UNL     1       2.405   2.614  16.867  0.00  0.00    +0.000 OA
BRANCH  22  24
ATOM     24  O   UNL     1       1.281   1.483  18.457  0.00  0.00    +0.000 OA
ATOM     25  H   UNL     1       1.104   1.864  19.339  0.00  0.00    +0.000 HD
ENDBRANCH  22  24
ENDBRANCH  21  22
ENDBRANCH  20  21
ENDBRANCH   5  20
TORSDOF 12
ENDMDL
MODEL 2
REMARK VINA RESULT:      -6.4      3.760      7.291
REMARK  Name = 
REMARK  16 active torsions:
REMARK  status: ('A' for Active; 'I' for Inactive)
REMARK    1  A    between atoms: C_1  and  C_2
REMARK    2  A    between atoms: C_2  and  C_3
REMARK    3  A    between atoms: C_3  and  C_4
REMARK    4  A    between atoms: C_4  and  C_5
REMARK    5  A    between atoms: C_5  and  C_6
REMARK    6  A    between atoms: C_6  and  S_7
REMARK    7  A    between atoms: S_7  and  C_8
REMARK    8  A    between atoms: C_10  and  C_11
REMARK    9  A    between atoms: C_11  and  C_12
REMARK   10  A    between atoms: C_11  and  C_13
REMARK   11  A    between atoms: C_11  and  C_14
REMARK   12  A    between atoms: C_16  and  O_17
REMARK   13  A    between atoms: O_17  and  C_18
REMARK   14  A    between atoms: C_18  and  C_19
REMARK   15  A    between atoms: C_19  and  O_21
REMARK   16  A    between atoms: C_22  and  C_23
REMARK                            x       y       z     vdW  Elec       q    Type
REMARK                         _______ _______ _______ _____ _____    ______ ____
ROOT
ATOM      1  C   UNL     1       5.598   5.025  17.896  0.00  0.00    +0.000 A 
ATOM      2  N   UNL     1       4.774   4.050  18.341  0.00  0.00    +0.000 NA
ATOM      3  C   UNL     1       3.486   4.349  18.566  0.00  0.00    +0.000 A 
ATOM      4  N   UNL     1       2.973   5.573  18.384  0.00  0.00    +0.000 NA
ATOM      5  C   UNL     1       3.818   6.526  17.931  0.00  0.00    +0.000 A 
ATOM      6  C   UNL     1       5.168   6.321  17.687  0.00  0.00    +0.000 A 
ENDROOT
BRANCH   3   7
ATOM      7  C   UNL     1       2.550   3.239  19.030  0.00  0.00    +0.000 C 
ATOM      8  C   UNL     1       1.149   3.392  18.407  0.00  0.00    +0.000 C 
ATOM      9  C   UNL     1       3.129   1.875  18.618  0.00  0.00    +0.000 C 
ATOM     10  C   UNL     1       2.414   3.296  20.562  0.00  0.00    +0.000 C 
ENDBRANCH   3   7
BRANCH   6  11
ATOM     11  C   UNL     1       6.013   7.375  17.245  0.00  0.00    +0.000 C 
ATOM     12  N   UNL     1       6.690   8.242  16.879  0.00  0.00    +0.000 NA
ENDBRANCH   6  11
BRANCH   1  13
ATOM     13  S   UNL     1       7.296   4.485  17.629  0.00  0.00    +0.000 S 
BRANCH  13  14
ATOM     14  C   UNL     1       7.296   4.311  15.801  0.00  0.00    +0.000 C 
BRANCH  14  15
ATOM     15  C   UNL     1       5.997   3.708  15.261  0.00  0.00    +0.000 C 
BRANCH  15  16
ATOM     16  C   UNL     1       5.625   4.352  13.914  0.00  0.00    +0.000 C 
BRANCH  16  17
ATOM     17  C   UNL     1       6.302   3.641  12.740  0.00  0.00    +0.000 C 
BRANCH  17  19
ATOM     18  C   UNL     1       5.923   1.625  11.286  0.00  0.00    +0.000 C 
ATOM     19  C   UNL     1       5.298   2.885  11.867  0.00  0.00    +0.000 C 
ENDBRANCH  17  19
ENDBRANCH  16  17
ENDBRANCH  15  16
ENDBRANCH  14  15
ENDBRANCH  13  14
ENDBRANCH   1  13
BRANCH   5  20
ATOM     20  O   UNL     1       3.287   7.788  17.733  0.00  0.00    +0.000 OA
BRANCH  20  21
ATOM     21  C   UNL     1       2.195   8.096  18.598  0.00  0.00    +0.000 C 
BRANCH  21  22
ATOM     22  C   UNL     1       1.463   9.400  18.284  0.00  0.00    +0.000 C 
ATOM     23  O   UNL     1       0.414   9.758  18.807  0.00  0.00    +0.000 OA
BRANCH  22  24
ATOM     24  O   UNL     1       2.072  10.145  17.333  0.00  0.00    +0.000 OA
ATOM     25  H   UNL     1       2.681  10.827  17.674  0.00  0.00    +0.000 HD
ENDBRANCH  22  24
ENDBRANCH  21  22
ENDBRANCH  20  21
ENDBRANCH   5  20
TORSDOF 12
ENDMDL
MODEL 3
REMARK VINA RESULT:      -6.4      0.612      1.184
REMARK  Name = 
REMARK  16 active torsions:
REMARK  status: ('A' for Active; 'I' for Inactive)
REMARK    1  A    between atoms: C_1  and  C_2
REMARK    2  A    between atoms: C_2  and  C_3
REMARK    3  A    between atoms: C_3  and  C_4
REMARK    4  A    between atoms: C_4  and  C_5
REMARK    5  A    between atoms: C_5  and  C_6
REMARK    6  A    between atoms: C_6  and  S_7
REMARK    7  A    between atoms: S_7  and  C_8
REMARK    8  A    between atoms: C_10  and  C_11
REMARK    9  A    between atoms: C_11  and  C_12
REMARK   10  A    between atoms: C_11  and  C_13
REMARK   11  A    between atoms: C_11  and  C_14
REMARK   12  A    between atoms: C_16  and  O_17
REMARK   13  A    between atoms: O_17  and  C_18
REMARK   14  A    between atoms: C_18  and  C_19
REMARK   15  A    between atoms: C_19  and  O_21
REMARK   16  A    between atoms: C_22  and  C_23
REMARK                            x       y       z     vdW  Elec       q    Type
REMARK                         _______ _______ _______ _____ _____    ______ ____
ROOT
ATOM      1  C   UNL     1       3.496   5.816  19.491  0.00  0.00    +0.000 A 
ATOM      2  N   UNL     1       4.690   6.192  18.981  0.00  0.00    +0.000 NA
ATOM      3  C   UNL     1       5.618   5.251  18.753  0.00  0.00    +0.000 A 
ATOM      4  N   UNL     1       5.427   3.951  19.019  0.00  0.00    +0.000 NA
ATOM      5  C   UNL     1       4.222   3.603  19.520  0.00  0.00    +0.000 A 
ATOM      6  C   UNL     1       3.206   4.503  19.807  0.00  0.00    +0.000 A 
ENDROOT
BRANCH   3   7
ATOM      7  C   UNL     1       6.949   5.672  18.141  0.00  0.00    +0.000 C 
ATOM      8  C   UNL     1       6.816   7.002  17.373  0.00  0.00    +0.000 C 
ATOM      9  C   UNL     1       7.993   5.848  19.257  0.00  0.00    +0.000 C 
ATOM     10  C   UNL     1       7.426   4.586  17.162  0.00  0.00    +0.000 C 
ENDBRANCH   3   7
BRANCH   6  11
ATOM     11  C   UNL     1       1.972   4.077  20.369  0.00  0.00    +0.000 C 
ATOM     12  N   UNL     1       0.972   3.717  20.833  0.00  0.00    +0.000 NA
ENDBRANCH   6  11
BRANCH   1  13
ATOM     13  S   UNL     1       2.342   7.177  19.740  0.00  0.00    +0.000 S 
BRANCH  13  14
ATOM     14  C   UNL     1       2.367   7.930  18.065  0.00  0.00    +0.000 C 
BRANCH  14  15
ATOM     15  C   UNL     1       1.998   9.416  18.075  0.00  0.00    +0.000 C 
BRANCH  15  16
ATOM     16  C   UNL     1       0.478   9.594  17.917  0.00  0.00    +0.000 C 
BRANCH  16  17
ATOM     17  C   UNL     1      -0.164  10.143  19.192  0.00  0.00    +0.000 C 
BRANCH  17  19
ATOM     18  C   UNL     1       0.756  12.200  20.308  0.00  0.00    +0.000 C 
ATOM     19  C   UNL     1       0.876  10.688  20.173  0.00  0.00    +0.000 C 
ENDBRANCH  17  19
ENDBRANCH  16  17
ENDBRANCH  15  16
ENDBRANCH  14  15
ENDBRANCH  13  14
ENDBRANCH   1  13
BRANCH   5  20
ATOM     20  O   UNL     1       4.021   2.260  19.785  0.00  0.00    +0.000 OA
BRANCH  20  21
ATOM     21  C   UNL     1       3.687   1.489  18.633  0.00  0.00    +0.000 C 
BRANCH  21  22
ATOM     22  C   UNL     1       2.414   1.921  17.906  0.00  0.00    +0.000 C 
ATOM     23  O   UNL     1       2.385   2.620  16.901  0.00  0.00    +0.000 OA
BRANCH  22  24
ATOM     24  O   UNL     1       1.280   1.474  18.494  0.00  0.00    +0.000 OA
ATOM     25  H   UNL     1       1.013   1.965  19.296  0.00  0.00    +0.000 HD
ENDBRANCH  22  24
ENDBRANCH  21  22
ENDBRANCH  20  21
ENDBRANCH   5  20
TORSDOF 12
ENDMDL
MODEL 4
REMARK VINA RESULT:      -6.3      3.825      7.257
REMARK  Name = 
REMARK  16 active torsions:
REMARK  status: ('A' for Active; 'I' for Inactive)
REMARK    1  A    between atoms: C_1  and  C_2
REMARK    2  A    between atoms: C_2  and  C_3
REMARK    3  A    between atoms: C_3  and  C_4
REMARK    4  A    between atoms: C_4  and  C_5
REMARK    5  A    between atoms: C_5  and  C_6
REMARK    6  A    between atoms: C_6  and  S_7
REMARK    7  A    between atoms: S_7  and  C_8
REMARK    8  A    between atoms: C_10  and  C_11
REMARK    9  A    between atoms: C_11  and  C_12
REMARK   10  A    between atoms: C_11  and  C_13
REMARK   11  A    between atoms: C_11  and  C_14
REMARK   12  A    between atoms: C_16  and  O_17
REMARK   13  A    between atoms: O_17  and  C_18
REMARK   14  A    between atoms: C_18  and  C_19
REMARK   15  A    between atoms: C_19  and  O_21
REMARK   16  A    between atoms: C_22  and  C_23
REMARK                            x       y       z     vdW  Elec       q    Type
REMARK                         _______ _______ _______ _____ _____    ______ ____
ROOT
ATOM      1  C   UNL     1       5.563   5.060  17.908  0.00  0.00    +0.000 A 
ATOM      2  N   UNL     1       4.703   4.118  18.355  0.00  0.00    +0.000 NA
ATOM      3  C   UNL     1       3.436   4.475  18.615  0.00  0.00    +0.000 A 
ATOM      4  N   UNL     1       2.980   5.726  18.467  0.00  0.00    +0.000 NA
ATOM      5  C   UNL     1       3.860   6.645  18.011  0.00  0.00    +0.000 A 
ATOM      6  C   UNL     1       5.192   6.379  17.732  0.00  0.00    +0.000 A 
ENDROOT
BRANCH   3   7
ATOM      7  C   UNL     1       2.458   3.404  19.082  0.00  0.00    +0.000 C 
ATOM      8  C   UNL     1       3.093   2.000  19.020  0.00  0.00    +0.000 C 
ATOM      9  C   UNL     1       2.036   3.691  20.533  0.00  0.00    +0.000 C 
ATOM     10  C   UNL     1       1.215   3.419  18.176  0.00  0.00    +0.000 C 
ENDBRANCH   3   7
BRANCH   6  11
ATOM     11  C   UNL     1       6.077   7.399  17.289  0.00  0.00    +0.000 C 
ATOM     12  N   UNL     1       6.810   8.221  16.926  0.00  0.00    +0.000 NA
ENDBRANCH   6  11
BRANCH   1  13
ATOM     13  S   UNL     1       7.226   4.444  17.592  0.00  0.00    +0.000 S 
BRANCH  13  14
ATOM     14  C   UNL     1       7.281   4.588  15.763  0.00  0.00    +0.000 C 
BRANCH  14  15
ATOM     15  C   UNL     1       6.354   3.593  15.059  0.00  0.00    +0.000 C 
BRANCH  15  16
ATOM     16  C   UNL     1       5.661   4.261  13.859  0.00  0.00    +0.000 C 
BRANCH  16  17
ATOM     17  C   UNL     1       6.218   3.753  12.528  0.00  0.00    +0.000 C 
BRANCH  17  19
ATOM     18  C   UNL     1       4.193   3.159  11.160  0.00  0.00    +0.000 C 
ATOM     19  C   UNL     1       5.376   2.614  11.947  0.00  0.00    +0.000 C 
ENDBRANCH  17  19
ENDBRANCH  16  17
ENDBRANCH  15  16
ENDBRANCH  14  15
ENDBRANCH  13  14
ENDBRANCH   1  13
BRANCH   5  20
ATOM     20  O   UNL     1       3.386   7.934  17.849  0.00  0.00    +0.000 OA
BRANCH  20  21
ATOM     21  C   UNL     1       2.139   8.177  18.497  0.00  0.00    +0.000 C 
BRANCH  21  22
ATOM     22  C   UNL     1       1.562   9.578  18.295  0.00  0.00    +0.000 C 
ATOM     23  O   UNL     1       0.521   9.985  18.797  0.00  0.00    +0.000 OA
BRANCH  22  24
ATOM     24  O   UNL     1       2.304  10.353  17.471  0.00  0.00    +0.000 OA
ATOM     25  H   UNL     1       1.789  10.968  16.913  0.00  0.00    +0.000 HD
ENDBRANCH  22  24
ENDBRANCH  21  22
ENDBRANCH  20  21
ENDBRANCH   5  20
TORSDOF 12
ENDMDL
MODEL 5
REMARK VINA RESULT:      -6.3      1.568      2.196
REMARK  Name = 
REMARK  16 active torsions:
REMARK  status: ('A' for Active; 'I' for Inactive)
REMARK    1  A    between atoms: C_1  and  C_2
REMARK    2  A    between atoms: C_2  and  C_3
REMARK    3  A    between atoms: C_3  and  C_4
REMARK    4  A    between atoms: C_4  and  C_5
REMARK    5  A    between atoms: C_5  and  C_6
REMARK    6  A    between atoms: C_6  and  S_7
REMARK    7  A    between atoms: S_7  and  C_8
REMARK    8  A    between atoms: C_10  and  C_11
REMARK    9  A    between atoms: C_11  and  C_12
REMARK   10  A    between atoms: C_11  and  C_13
REMARK   11  A    between atoms: C_11  and  C_14
REMARK   12  A    between atoms: C_16  and  O_17
REMARK   13  A    between atoms: O_17  and  C_18
REMARK   14  A    between atoms: C_18  and  C_19
REMARK   15  A    between atoms: C_19  and  O_21
REMARK   16  A    between atoms: C_22  and  C_23
REMARK                            x       y       z     vdW  Elec       q    Type
REMARK                         _______ _______ _______ _____ _____    ______ ____
ROOT
ATOM      1  C   UNL     1       2.939   5.829  18.360  0.00  0.00    +0.000 A 
ATOM      2  N   UNL     1       3.920   6.078  17.464  0.00  0.00    +0.000 NA
ATOM      3  C   UNL     1       4.458   5.046  16.797  0.00  0.00    +0.000 A 
ATOM      4  N   UNL     1       4.082   3.774  16.983  0.00  0.00    +0.000 NA
ATOM      5  C   UNL     1       3.094   3.556  17.878  0.00  0.00    +0.000 A 
ATOM      6  C   UNL     1       2.488   4.552  18.630  0.00  0.00    +0.000 A 
ENDROOT
BRANCH   3   7
ATOM      7  C   UNL     1       5.537   5.332  15.759  0.00  0.00    +0.000 C 
ATOM      8  C   UNL     1       5.488   4.312  14.604  0.00  0.00    +0.000 C 
ATOM      9  C   UNL     1       5.332   6.743  15.181  0.00  0.00    +0.000 C 
ATOM     10  C   UNL     1       6.921   5.250  16.426  0.00  0.00    +0.000 C 
ENDBRANCH   3   7
BRANCH   6  11
ATOM     11  C   UNL     1       1.477   4.253  19.584  0.00  0.00    +0.000 C 
ATOM     12  N   UNL     1       0.654   3.994  20.358  0.00  0.00    +0.000 NA
ENDBRANCH   6  11
BRANCH   1  13
ATOM     13  S   UNL     1       2.301   7.303  19.177  0.00  0.00    +0.000 S 
BRANCH  13  14
ATOM     14  C   UNL     1       2.422   8.512  17.801  0.00  0.00    +0.000 C 
BRANCH  14  15
ATOM     15  C   UNL     1       1.728   9.841  18.113  0.00  0.00    +0.000 C 
BRANCH  15  16
ATOM     16  C   UNL     1       0.199   9.676  18.050  0.00  0.00    +0.000 C 
BRANCH  16  17
ATOM     17  C   UNL     1      -0.488  10.301  19.266  0.00  0.00    +0.000 C 
BRANCH  17  19
ATOM     18  C   UNL     1      -0.187   9.093  21.451  0.00  0.00    +0.000 C 
ATOM     19  C   UNL     1       0.359  10.178  20.534  0.00  0.00    +0.000 C 
ENDBRANCH  17  19
ENDBRANCH  16  17
ENDBRANCH  15  16
ENDBRANCH  14  15
ENDBRANCH  13  14
ENDBRANCH   1  13
BRANCH   5  20
ATOM     20  O   UNL     1       2.699   2.244  18.063  0.00  0.00    +0.000 OA
BRANCH  20  21
ATOM     21  C   UNL     1       3.648   1.449  18.773  0.00  0.00    +0.000 C 
BRANCH  21  22
ATOM     22  C   UNL     1       4.331   2.145  19.949  0.00  0.00    +0.000 C 
ATOM     23  O   UNL     1       3.934   2.114  21.108  0.00  0.00    +0.000 OA
BRANCH  22  24
ATOM     24  O   UNL     1       5.435   2.843  19.596  0.00  0.00    +0.000 OA
ATOM     25  H   UNL     1       5.511   3.726  20.007  0.00  0.00    +0.000 HD
ENDBRANCH  22  24
ENDBRANCH  21  22
ENDBRANCH  20  21
ENDBRANCH   5  20
TORSDOF 12
ENDMDL
MODEL 6
REMARK VINA RESULT:      -6.3      0.848      1.477
REMARK  Name = 
REMARK  16 active torsions:
REMARK  status: ('A' for Active; 'I' for Inactive)
REMARK    1  A    between atoms: C_1  and  C_2
REMARK    2  A    between atoms: C_2  and  C_3
REMARK    3  A    between atoms: C_3  and  C_4
REMARK    4  A    between atoms: C_4  and  C_5
REMARK    5  A    between atoms: C_5  and  C_6
REMARK    6  A    between atoms: C_6  and  S_7
REMARK    7  A    between atoms: S_7  and  C_8
REMARK    8  A    between atoms: C_10  and  C_11
REMARK    9  A    between atoms: C_11  and  C_12
REMARK   10  A    between atoms: C_11  and  C_13
REMARK   11  A    between atoms: C_11  and  C_14
REMARK   12  A    between atoms: C_16  and  O_17
REMARK   13  A    between atoms: O_17  and  C_18
REMARK   14  A    between atoms: C_18  and  C_19
REMARK   15  A    between atoms: C_19  and  O_21
REMARK   16  A    between atoms: C_22  and  C_23
REMARK                            x       y       z     vdW  Elec       q    Type
REMARK                         _______ _______ _______ _____ _____    ______ ____
ROOT
ATOM      1  C   UNL     1       3.493   5.875  19.421  0.00  0.00    +0.000 A 
ATOM      2  N   UNL     1       4.700   6.227  18.925  0.00  0.00    +0.000 NA
ATOM      3  C   UNL     1       5.621   5.271  18.737  0.00  0.00    +0.000 A 
ATOM      4  N   UNL     1       5.412   3.980  19.028  0.00  0.00    +0.000 NA
ATOM      5  C   UNL     1       4.194   3.656  19.515  0.00  0.00    +0.000 A 
ATOM      6  C   UNL     1       3.183   4.573  19.763  0.00  0.00    +0.000 A 
ENDROOT
BRANCH   3   7
ATOM      7  C   UNL     1       6.968   5.663  18.141  0.00  0.00    +0.000 C 
ATOM      8  C   UNL     1       8.028   5.870  19.241  0.00  0.00    +0.000 C 
ATOM      9  C   UNL     1       7.452   4.554  17.191  0.00  0.00    +0.000 C 
ATOM     10  C   UNL     1       6.814   6.978  17.356  0.00  0.00    +0.000 C 
ENDBRANCH   3   7
BRANCH   6  11
ATOM     11  C   UNL     1       1.933   4.173  20.310  0.00  0.00    +0.000 C 
ATOM     12  N   UNL     1       0.911   3.861  20.759  0.00  0.00    +0.000 NA
ENDBRANCH   6  11
BRANCH   1  13
ATOM     13  S   UNL     1       2.350   7.254  19.617  0.00  0.00    +0.000 S 
BRANCH  13  14
ATOM     14  C   UNL     1       2.462   8.005  17.945  0.00  0.00    +0.000 C 
BRANCH  14  15
ATOM     15  C   UNL     1       1.977   9.457  17.911  0.00  0.00    +0.000 C 
BRANCH  15  16
ATOM     16  C   UNL     1       0.775   9.645  18.853  0.00  0.00    +0.000 C 
BRANCH  16  17
ATOM     17  C   UNL     1       0.097  11.000  18.643  0.00  0.00    +0.000 C 
BRANCH  17  19
ATOM     18  C   UNL     1      -2.299  11.619  18.195  0.00  0.00    +0.000 C 
ATOM     19  C   UNL     1      -1.327  11.026  19.204  0.00  0.00    +0.000 C 
ENDBRANCH  17  19
ENDBRANCH  16  17
ENDBRANCH  15  16
ENDBRANCH  14  15
ENDBRANCH  13  14
ENDBRANCH   1  13
BRANCH   5  20
ATOM     20  O   UNL     1       3.973   2.322  19.807  0.00  0.00    +0.000 OA
BRANCH  20  21
ATOM     21  C   UNL     1       3.659   1.526  18.666  0.00  0.00    +0.000 C 
BRANCH  21  22
ATOM     22  C   UNL     1       2.387   1.928  17.921  0.00  0.00    +0.000 C 
ATOM     23  O   UNL     1       2.357   2.600  16.897  0.00  0.00    +0.000 OA
BRANCH  22  24
ATOM     24  O   UNL     1       1.253   1.488  18.514  0.00  0.00    +0.000 OA
ATOM     25  H   UNL     1       1.119   0.521  18.476  0.00  0.00    +0.000 HD
ENDBRANCH  22  24
ENDBRANCH  21  22
ENDBRANCH  20  21
ENDBRANCH   5  20
TORSDOF 12
ENDMDL
MODEL 7
REMARK VINA RESULT:      -6.3      1.247      1.629
REMARK  Name = 
REMARK  16 active torsions:
REMARK  status: ('A' for Active; 'I' for Inactive)
REMARK    1  A    between atoms: C_1  and  C_2
REMARK    2  A    between atoms: C_2  and  C_3
REMARK    3  A    between atoms: C_3  and  C_4
REMARK    4  A    between atoms: C_4  and  C_5
REMARK    5  A    between atoms: C_5  and  C_6
REMARK    6  A    between atoms: C_6  and  S_7
REMARK    7  A    between atoms: S_7  and  C_8
REMARK    8  A    between atoms: C_10  and  C_11
REMARK    9  A    between atoms: C_11  and  C_12
REMARK   10  A    between atoms: C_11  and  C_13
REMARK   11  A    between atoms: C_11  and  C_14
REMARK   12  A    between atoms: C_16  and  O_17
REMARK   13  A    between atoms: O_17  and  C_18
REMARK   14  A    between atoms: C_18  and  C_19
REMARK   15  A    between atoms: C_19  and  O_21
REMARK   16  A    between atoms: C_22  and  C_23
REMARK                            x       y       z     vdW  Elec       q    Type
REMARK                         _______ _______ _______ _____ _____    ______ ____
ROOT
ATOM      1  C   UNL     1       3.383   6.005  19.104  0.00  0.00    +0.000 A 
ATOM      2  N   UNL     1       4.296   6.375  18.179  0.00  0.00    +0.000 NA
ATOM      3  C   UNL     1       5.163   5.457  17.727  0.00  0.00    +0.000 A 
ATOM      4  N   UNL     1       5.180   4.188  18.156  0.00  0.00    +0.000 NA
ATOM      5  C   UNL     1       4.251   3.844  19.075  0.00  0.00    +0.000 A 
ATOM      6  C   UNL     1       3.325   4.723  19.617  0.00  0.00    +0.000 A 
ENDROOT
BRANCH   3   7
ATOM      7  C   UNL     1       6.167   5.867  16.655  0.00  0.00    +0.000 C 
ATOM      8  C   UNL     1       6.988   4.658  16.167  0.00  0.00    +0.000 C 
ATOM      9  C   UNL     1       5.418   6.473  15.456  0.00  0.00    +0.000 C 
ATOM     10  C   UNL     1       7.133   6.913  17.237  0.00  0.00    +0.000 C 
ENDBRANCH   3   7
BRANCH   6  11
ATOM     11  C   UNL     1       2.395   4.307  20.608  0.00  0.00    +0.000 C 
ATOM     12  N   UNL     1       1.642   3.978  21.426  0.00  0.00    +0.000 NA
ENDBRANCH   6  11
BRANCH   1  13
ATOM     13  S   UNL     1       2.278   7.332  19.617  0.00  0.00    +0.000 S 
BRANCH  13  14
ATOM     14  C   UNL     1       1.938   8.115  17.991  0.00  0.00    +0.000 C 
BRANCH  14  15
ATOM     15  C   UNL     1       2.104   9.637  18.017  0.00  0.00    +0.000 C 
BRANCH  15  16
ATOM     16  C   UNL     1       0.812  10.310  18.513  0.00  0.00    +0.000 C 
BRANCH  16  17
ATOM     17  C   UNL     1      -0.425   9.750  17.809  0.00  0.00    +0.000 C 
BRANCH  17  19
ATOM     18  C   UNL     1      -2.928   9.844  17.591  0.00  0.00    +0.000 C 
ATOM     19  C   UNL     1      -1.725  10.288  18.410  0.00  0.00    +0.000 C 
ENDBRANCH  17  19
ENDBRANCH  16  17
ENDBRANCH  15  16
ENDBRANCH  14  15
ENDBRANCH  13  14
ENDBRANCH   1  13
BRANCH   5  20
ATOM     20  O   UNL     1       4.261   2.531  19.511  0.00  0.00    +0.000 OA
BRANCH  20  21
ATOM     21  C   UNL     1       3.729   1.605  18.565  0.00  0.00    +0.000 C 
BRANCH  21  22
ATOM     22  C   UNL     1       2.382   1.993  17.960  0.00  0.00    +0.000 C 
ATOM     23  O   UNL     1       2.237   2.686  16.959  0.00  0.00    +0.000 OA
BRANCH  22  24
ATOM     24  O   UNL     1       1.321   1.515  18.651  0.00  0.00    +0.000 OA
ATOM     25  H   UNL     1       1.117   0.574  18.490  0.00  0.00    +0.000 HD
ENDBRANCH  22  24
ENDBRANCH  21  22
ENDBRANCH  20  21
ENDBRANCH   5  20
TORSDOF 12
ENDMDL
MODEL 8
REMARK VINA RESULT:      -6.3      1.738      2.649
REMARK  Name = 
REMARK  16 active torsions:
REMARK  status: ('A' for Active; 'I' for Inactive)
REMARK    1  A    between atoms: C_1  and  C_2
REMARK    2  A    between atoms: C_2  and  C_3
REMARK    3  A    between atoms: C_3  and  C_4
REMARK    4  A    between atoms: C_4  and  C_5
REMARK    5  A    between atoms: C_5  and  C_6
REMARK    6  A    between atoms: C_6  and  S_7
REMARK    7  A    between atoms: S_7  and  C_8
REMARK    8  A    between atoms: C_10  and  C_11
REMARK    9  A    between atoms: C_11  and  C_12
REMARK   10  A    between atoms: C_11  and  C_13
REMARK   11  A    between atoms: C_11  and  C_14
REMARK   12  A    between atoms: C_16  and  O_17
REMARK   13  A    between atoms: O_17  and  C_18
REMARK   14  A    between atoms: C_18  and  C_19
REMARK   15  A    between atoms: C_19  and  O_21
REMARK   16  A    between atoms: C_22  and  C_23
REMARK                            x       y       z     vdW  Elec       q    Type
REMARK                         _______ _______ _______ _____ _____    ______ ____
ROOT
ATOM      1  C   UNL     1       2.926   5.875  18.477  0.00  0.00    +0.000 A 
ATOM      2  N   UNL     1       3.900   6.153  17.583  0.00  0.00    +0.000 NA
ATOM      3  C   UNL     1       4.428   5.146  16.873  0.00  0.00    +0.000 A 
ATOM      4  N   UNL     1       4.048   3.869  17.012  0.00  0.00    +0.000 NA
ATOM      5  C   UNL     1       3.067   3.621  17.908  0.00  0.00    +0.000 A 
ATOM      6  C   UNL     1       2.471   4.590  18.702  0.00  0.00    +0.000 A 
ENDROOT
BRANCH   3   7
ATOM      7  C   UNL     1       5.500   5.468  15.837  0.00  0.00    +0.000 C 
ATOM      8  C   UNL     1       6.901   5.514  16.478  0.00  0.00    +0.000 C 
ATOM      9  C   UNL     1       5.493   4.389  14.740  0.00  0.00    +0.000 C 
ATOM     10  C   UNL     1       5.203   6.840  15.207  0.00  0.00    +0.000 C 
ENDBRANCH   3   7
BRANCH   6  11
ATOM     11  C   UNL     1       1.468   4.258  19.652  0.00  0.00    +0.000 C 
ATOM     12  N   UNL     1       0.656   3.995  20.438  0.00  0.00    +0.000 NA
ENDBRANCH   6  11
BRANCH   1  13
ATOM     13  S   UNL     1       2.301   7.318  19.356  0.00  0.00    +0.000 S 
BRANCH  13  14
ATOM     14  C   UNL     1       2.461   8.590  18.041  0.00  0.00    +0.000 C 
BRANCH  14  15
ATOM     15  C   UNL     1       1.132   9.274  17.709  0.00  0.00    +0.000 C 
BRANCH  15  16
ATOM     16  C   UNL     1       0.804  10.349  18.760  0.00  0.00    +0.000 C 
BRANCH  16  17
ATOM     17  C   UNL     1      -0.684  10.357  19.116  0.00  0.00    +0.000 C 
BRANCH  17  19
ATOM     18  C   UNL     1      -2.164  11.512  17.442  0.00  0.00    +0.000 C 
ATOM     19  C   UNL     1      -1.573  10.180  17.883  0.00  0.00    +0.000 C 
ENDBRANCH  17  19
ENDBRANCH  16  17
ENDBRANCH  15  16
ENDBRANCH  14  15
ENDBRANCH  13  14
ENDBRANCH   1  13
BRANCH   5  20
ATOM     20  O   UNL     1       2.667   2.304  18.046  0.00  0.00    +0.000 OA
BRANCH  20  21
ATOM     21  C   UNL     1       3.614   1.481  18.724  0.00  0.00    +0.000 C 
BRANCH  21  22
ATOM     22  C   UNL     1       4.326   2.143  19.903  0.00  0.00    +0.000 C 
ATOM     23  O   UNL     1       3.957   2.079  21.070  0.00  0.00    +0.000 OA
BRANCH  22  24
ATOM     24  O   UNL     1       5.422   2.851  19.543  0.00  0.00    +0.000 OA
ATOM     25  H   UNL     1       6.238   2.322  19.447  0.00  0.00    +0.000 HD
ENDBRANCH  22  24
ENDBRANCH  21  22
ENDBRANCH  20  21
ENDBRANCH   5  20
TORSDOF 12
ENDMDL
MODEL 9
REMARK VINA RESULT:      -6.1      4.143      7.345
REMARK  Name = 
REMARK  16 active torsions:
REMARK  status: ('A' for Active; 'I' for Inactive)
REMARK    1  A    between atoms: C_1  and  C_2
REMARK    2  A    between atoms: C_2  and  C_3
REMARK    3  A    between atoms: C_3  and  C_4
REMARK    4  A    between atoms: C_4  and  C_5
REMARK    5  A    between atoms: C_5  and  C_6
REMARK    6  A    between atoms: C_6  and  S_7
REMARK    7  A    between atoms: S_7  and  C_8
REMARK    8  A    between atoms: C_10  and  C_11
REMARK    9  A    between atoms: C_11  and  C_12
REMARK   10  A    between atoms: C_11  and  C_13
REMARK   11  A    between atoms: C_11  and  C_14
REMARK   12  A    between atoms: C_16  and  O_17
REMARK   13  A    between atoms: O_17  and  C_18
REMARK   14  A    between atoms: C_18  and  C_19
REMARK   15  A    between atoms: C_19  and  O_21
REMARK   16  A    between atoms: C_22  and  C_23
REMARK                            x       y       z     vdW  Elec       q    Type
REMARK                         _______ _______ _______ _____ _____    ______ ____
ROOT
ATOM      1  C   UNL     1       4.721   4.627  17.406  0.00  0.00    +0.000 A 
ATOM      2  N   UNL     1       3.845   3.749  17.942  0.00  0.00    +0.000 NA
ATOM      3  C   UNL     1       2.793   4.226  18.624  0.00  0.00    +0.000 A 
ATOM      4  N   UNL     1       2.571   5.533  18.814  0.00  0.00    +0.000 NA
ATOM      5  C   UNL     1       3.459   6.388  18.261  0.00  0.00    +0.000 A 
ATOM      6  C   UNL     1       4.586   5.994  17.555  0.00  0.00    +0.000 A 
ENDROOT
BRANCH   3   7
ATOM      7  C   UNL     1       1.784   3.235  19.195  0.00  0.00    +0.000 C 
ATOM      8  C   UNL     1       0.490   3.209  18.357  0.00  0.00    +0.000 C 
ATOM      9  C   UNL     1       2.398   1.825  19.200  0.00  0.00    +0.000 C 
ATOM     10  C   UNL     1       1.427   3.644  20.634  0.00  0.00    +0.000 C 
ENDBRANCH   3   7
BRANCH   6  11
ATOM     11  C   UNL     1       5.502   6.944  17.027  0.00  0.00    +0.000 C 
ATOM     12  N   UNL     1       6.261   7.708  16.598  0.00  0.00    +0.000 NA
ENDBRANCH   6  11
BRANCH   1  13
ATOM     13  S   UNL     1       6.081   3.854  16.512  0.00  0.00    +0.000 S 
BRANCH  13  14
ATOM     14  C   UNL     1       5.563   4.191  14.783  0.00  0.00    +0.000 C 
BRANCH  14  15
ATOM     15  C   UNL     1       6.706   4.034  13.777  0.00  0.00    +0.000 C 
BRANCH  15  16
ATOM     16  C   UNL     1       6.173   3.506  12.434  0.00  0.00    +0.000 C 
BRANCH  16  17
ATOM     17  C   UNL     1       4.663   3.717  12.302  0.00  0.00    +0.000 C 
BRANCH  17  19
ATOM     18  C   UNL     1       3.268   3.843  10.214  0.00  0.00    +0.000 C 
ATOM     19  C   UNL     1       4.070   2.931  11.131  0.00  0.00    +0.000 C 
ENDBRANCH  17  19
ENDBRANCH  16  17
ENDBRANCH  15  16
ENDBRANCH  14  15
ENDBRANCH  13  14
ENDBRANCH   1  13
BRANCH   5  20
ATOM     20  O   UNL     1       3.225   7.738  18.448  0.00  0.00    +0.000 OA
BRANCH  20  21
ATOM     21  C   UNL     1       1.954   8.029  19.027  0.00  0.00    +0.000 C 
BRANCH  21  22
ATOM     22  C   UNL     1       1.293   9.316  18.537  0.00  0.00    +0.000 C 
ATOM     23  O   UNL     1       0.342   9.866  19.079  0.00  0.00    +0.000 OA
BRANCH  22  24
ATOM     24  O   UNL     1       1.844   9.807  17.403  0.00  0.00    +0.000 OA
ATOM     25  H   UNL     1       2.388  10.609  17.525  0.00  0.00    +0.000 HD
ENDBRANCH  22  24
ENDBRANCH  21  22
ENDBRANCH  20  21
ENDBRANCH   5  20
TORSDOF 12
ENDMDL
