MODEL 1
REMARK VINA RESULT:      -8.6      0.000      0.000
REMARK  Name = 
REMARK  7 active torsions:
REMARK  status: ('A' for Active; 'I' for Inactive)
REMARK    1  A    between atoms: C_1  and  C_2
REMARK    2  A    between atoms: C_7  and  C_8
REMARK    3  A    between atoms: C_8  and  N_9
REMARK    4  A    between atoms: C_10  and  C_12
REMARK    5  A    between atoms: C_14  and  N_15
REMARK    6  A    between atoms: N_15  and  C_16
REMARK    7  A    between atoms: N_15  and  C_17
REMARK                            x       y       z     vdW  Elec       q    Type
REMARK                         _______ _______ _______ _____ _____    ______ ____
ROOT
ATOM      1  C   UNL     1       2.987   6.192  18.546  0.00  0.00    +0.000 A 
ATOM      2  C   UNL     1       4.043   6.177  17.620  0.00  0.00    +0.000 A 
ATOM      3  C   UNL     1       4.550   4.980  17.147  0.00  0.00    +0.000 A 
ATOM      4  N   UNL     1       4.076   3.830  17.653  0.00  0.00    +0.000 NA
ATOM      5  C   UNL     1       3.080   3.811  18.555  0.00  0.00    +0.000 A 
ATOM      6  C   UNL     1       2.633   2.565  18.990  0.00  0.00    +0.000 A 
ATOM      7  C   UNL     1       1.565   2.427  19.876  0.00  0.00    +0.000 A 
ATOM      8  C   UNL     1       0.923   3.558  20.348  0.00  0.00    +0.000 A 
ATOM      9  C   UNL     1       1.363   4.819  19.935  0.00  0.00    +0.000 A 
ATOM     10  C   UNL     1       2.457   4.972  19.038  0.00  0.00    +0.000 A 
ENDROOT
BRANCH   1  12
ATOM     11  N   UNL     1       2.433   8.518  18.032  0.00  0.00    +0.000 N 
ATOM     12  C   UNL     1       2.481   7.526  18.997  0.00  0.00    +0.000 C 
ATOM     13  O   UNL     1       2.150   7.719  20.160  0.00  0.00    +0.000 OA
ATOM     14  H   UNL     1       2.642   8.301  17.070  0.00  0.00    +0.000 HD
BRANCH  11  15
ATOM     15  C   UNL     1       2.041   9.887  18.314  0.00  0.00    +0.000 C 
BRANCH  15  22
ATOM     16  C   UNL     1       0.598  11.248  20.656  0.00  0.00    +0.000 C 
ATOM     17  C   UNL     1      -0.129  10.693  19.460  0.00  0.00    +0.000 A 
ATOM     18  C   UNL     1      -1.527  10.849  19.410  0.00  0.00    +0.000 A 
ATOM     19  C   UNL     1      -2.268  10.371  18.330  0.00  0.00    +0.000 A 
ATOM     20  C   UNL     1      -1.623   9.726  17.285  0.00  0.00    +0.000 A 
ATOM     21  C   UNL     1      -0.238   9.567  17.314  0.00  0.00    +0.000 A 
ATOM     22  C   UNL     1       0.535  10.044  18.394  0.00  0.00    +0.000 A 
ENDBRANCH  15  22
ENDBRANCH  11  15
ENDBRANCH   1  12
BRANCH   3  23
ATOM     23  N   UNL     1       5.507   4.936  16.152  0.00  0.00    +0.000 N 
ATOM     24  C   UNL     1       5.134   4.542  14.796  0.00  0.00    +0.000 C 
BRANCH  23  25
ATOM     25  C   UNL     1       6.959   5.105  16.396  0.00  0.00    +0.000 C 
ATOM     26  C   UNL     1       7.487   6.522  16.173  0.00  0.00    +0.000 C 
ATOM     27  C   UNL     1       7.373   7.444  17.378  0.00  0.00    +0.000 C 
ATOM     28  C   UNL     1       7.844   6.806  18.684  0.00  0.00    +0.000 C 
ATOM     29  C   UNL     1       7.384   5.370  18.926  0.00  0.00    +0.000 C 
ATOM     30  C   UNL     1       7.479   4.480  17.694  0.00  0.00    +0.000 C 
ENDBRANCH  23  25
ENDBRANCH   3  23
TORSDOF 5
ENDMDL
MODEL 2
REMARK VINA RESULT:      -8.6      1.450      2.081
REMARK  Name = 
REMARK  7 active torsions:
REMARK  status: ('A' for Active; 'I' for Inactive)
REMARK    1  A    between atoms: C_1  and  C_2
REMARK    2  A    between atoms: C_7  and  C_8
REMARK    3  A    between atoms: C_8  and  N_9
REMARK    4  A    between atoms: C_10  and  C_12
REMARK    5  A    between atoms: C_14  and  N_15
REMARK    6  A    between atoms: N_15  and  C_16
REMARK    7  A    between atoms: N_15  and  C_17
REMARK                            x       y       z     vdW  Elec       q    Type
REMARK                         _______ _______ _______ _____ _____    ______ ____
ROOT
ATOM      1  C   UNL     1       3.131   6.544  18.216  0.00  0.00    +0.000 A 
ATOM      2  C   UNL     1       4.203   6.266  17.353  0.00  0.00    +0.000 A 
ATOM      3  C   UNL     1       4.836   5.036  17.387  0.00  0.00    +0.000 A 
ATOM      4  N   UNL     1       4.468   4.144  18.320  0.00  0.00    +0.000 NA
ATOM      5  C   UNL     1       3.459   4.387  19.174  0.00  0.00    +0.000 A 
ATOM      6  C   UNL     1       3.129   3.382  20.080  0.00  0.00    +0.000 A 
ATOM      7  C   UNL     1       2.060   3.503  20.968  0.00  0.00    +0.000 A 
ATOM      8  C   UNL     1       1.299   4.658  20.961  0.00  0.00    +0.000 A 
ATOM      9  C   UNL     1       1.621   5.686  20.069  0.00  0.00    +0.000 A 
ATOM     10  C   UNL     1       2.714   5.576  19.165  0.00  0.00    +0.000 A 
ENDROOT
BRANCH   1  12
ATOM     11  N   UNL     1       1.811   8.336  19.229  0.00  0.00    +0.000 N 
ATOM     12  C   UNL     1       2.485   7.889  18.106  0.00  0.00    +0.000 C 
ATOM     13  O   UNL     1       2.542   8.537  17.067  0.00  0.00    +0.000 OA
ATOM     14  H   UNL     1       1.850   7.809  20.088  0.00  0.00    +0.000 HD
BRANCH  11  15
ATOM     15  C   UNL     1       1.066   9.581  19.271  0.00  0.00    +0.000 C 
BRANCH  15  22
ATOM     16  C   UNL     1      -0.399  12.173  20.016  0.00  0.00    +0.000 C 
ATOM     17  C   UNL     1      -0.227  11.027  20.977  0.00  0.00    +0.000 A 
ATOM     18  C   UNL     1      -0.803  11.149  22.255  0.00  0.00    +0.000 A 
ATOM     19  C   UNL     1      -0.695  10.126  23.196  0.00  0.00    +0.000 A 
ATOM     20  C   UNL     1      -0.005   8.966  22.874  0.00  0.00    +0.000 A 
ATOM     21  C   UNL     1       0.568   8.825  21.610  0.00  0.00    +0.000 A 
ATOM     22  C   UNL     1       0.469   9.844  20.640  0.00  0.00    +0.000 A 
ENDBRANCH  15  22
ENDBRANCH  11  15
ENDBRANCH   1  12
BRANCH   3  23
ATOM     23  N   UNL     1       5.815   4.694  16.474  0.00  0.00    +0.000 N 
ATOM     24  C   UNL     1       5.494   3.813  15.354  0.00  0.00    +0.000 C 
BRANCH  23  25
ATOM     25  C   UNL     1       7.250   5.029  16.637  0.00  0.00    +0.000 C 
ATOM     26  C   UNL     1       7.619   6.465  16.267  0.00  0.00    +0.000 C 
ATOM     27  C   UNL     1       7.453   7.478  17.390  0.00  0.00    +0.000 C 
ATOM     28  C   UNL     1       8.034   7.013  18.725  0.00  0.00    +0.000 C 
ATOM     29  C   UNL     1       7.734   5.567  19.113  0.00  0.00    +0.000 C 
ATOM     30  C   UNL     1       7.877   4.581  17.961  0.00  0.00    +0.000 C 
ENDBRANCH  23  25
ENDBRANCH   3  23
TORSDOF 5
ENDMDL
MODEL 3
REMARK VINA RESULT:      -8.4      1.694      2.893
REMARK  Name = 
REMARK  7 active torsions:
REMARK  status: ('A' for Active; 'I' for Inactive)
REMARK    1  A    between atoms: C_1  and  C_2
REMARK    2  A    between atoms: C_7  and  C_8
REMARK    3  A    between atoms: C_8  and  N_9
REMARK    4  A    between atoms: C_10  and  C_12
REMARK    5  A    between atoms: C_14  and  N_15
REMARK    6  A    between atoms: N_15  and  C_16
REMARK    7  A    between atoms: N_15  and  C_17
REMARK                            x       y       z     vdW  Elec       q    Type
REMARK                         _______ _______ _______ _____ _____    ______ ____
ROOT
ATOM      1  C   UNL     1       3.157   6.136  19.003  0.00  0.00    +0.000 A 
ATOM      2  C   UNL     1       4.538   6.255  18.775  0.00  0.00    +0.000 A 
ATOM      3  C   UNL     1       5.397   5.215  19.086  0.00  0.00    +0.000 A 
ATOM      4  N   UNL     1       4.901   4.123  19.690  0.00  0.00    +0.000 NA
ATOM      5  C   UNL     1       3.587   3.988  19.941  0.00  0.00    +0.000 A 
ATOM      6  C   UNL     1       3.168   2.801  20.538  0.00  0.00    +0.000 A 
ATOM      7  C   UNL     1       1.823   2.528  20.784  0.00  0.00    +0.000 A 
ATOM      8  C   UNL     1       0.864   3.463  20.433  0.00  0.00    +0.000 A 
ATOM      9  C   UNL     1       1.264   4.666  19.845  0.00  0.00    +0.000 A 
ATOM     10  C   UNL     1       2.635   4.958  19.596  0.00  0.00    +0.000 A 
ENDROOT
BRANCH   1  12
ATOM     11  N   UNL     1       1.962   8.169  19.645  0.00  0.00    +0.000 N 
ATOM     12  C   UNL     1       2.292   7.295  18.624  0.00  0.00    +0.000 C 
ATOM     13  O   UNL     1       1.889   7.438  17.476  0.00  0.00    +0.000 OA
ATOM     14  H   UNL     1       2.373   8.061  20.560  0.00  0.00    +0.000 HD
BRANCH  11  15
ATOM     15  C   UNL     1       1.071   9.302  19.470  0.00  0.00    +0.000 C 
BRANCH  15  22
ATOM     16  C   UNL     1      -0.799  11.723  19.728  0.00  0.00    +0.000 C 
ATOM     17  C   UNL     1      -0.441  10.840  20.893  0.00  0.00    +0.000 A 
ATOM     18  C   UNL     1      -1.028  11.127  22.140  0.00  0.00    +0.000 A 
ATOM     19  C   UNL     1      -0.753  10.348  23.263  0.00  0.00    +0.000 A 
ATOM     20  C   UNL     1       0.118   9.273  23.158  0.00  0.00    +0.000 A 
ATOM     21  C   UNL     1       0.706   8.970  21.930  0.00  0.00    +0.000 A 
ATOM     22  C   UNL     1       0.440   9.741  20.778  0.00  0.00    +0.000 A 
ENDBRANCH  15  22
ENDBRANCH  11  15
ENDBRANCH   1  12
BRANCH   3  23
ATOM     23  N   UNL     1       6.740   5.258  18.767  0.00  0.00    +0.000 N 
ATOM     24  C   UNL     1       7.732   5.498  19.811  0.00  0.00    +0.000 C 
BRANCH  23  25
ATOM     25  C   UNL     1       7.260   5.242  17.378  0.00  0.00    +0.000 C 
ATOM     26  C   UNL     1       6.868   4.011  16.561  0.00  0.00    +0.000 C 
ATOM     27  C   UNL     1       5.526   4.114  15.853  0.00  0.00    +0.000 C 
ATOM     28  C   UNL     1       5.323   5.438  15.116  0.00  0.00    +0.000 C 
ATOM     29  C   UNL     1       5.749   6.693  15.874  0.00  0.00    +0.000 C 
ATOM     30  C   UNL     1       7.080   6.548  16.600  0.00  0.00    +0.000 C 
ENDBRANCH  23  25
ENDBRANCH   3  23
TORSDOF 5
ENDMDL
MODEL 4
REMARK VINA RESULT:      -8.3      0.954      1.026
REMARK  Name = 
REMARK  7 active torsions:
REMARK  status: ('A' for Active; 'I' for Inactive)
REMARK    1  A    between atoms: C_1  and  C_2
REMARK    2  A    between atoms: C_7  and  C_8
REMARK    3  A    between atoms: C_8  and  N_9
REMARK    4  A    between atoms: C_10  and  C_12
REMARK    5  A    between atoms: C_14  and  N_15
REMARK    6  A    between atoms: N_15  and  C_16
REMARK    7  A    between atoms: N_15  and  C_17
REMARK                            x       y       z     vdW  Elec       q    Type
REMARK                         _______ _______ _______ _____ _____    ______ ____
ROOT
ATOM      1  C   UNL     1       2.523   6.485  19.239  0.00  0.00    +0.000 A 
ATOM      2  C   UNL     1       3.562   6.805  18.349  0.00  0.00    +0.000 A 
ATOM      3  C   UNL     1       4.230   5.811  17.657  0.00  0.00    +0.000 A 
ATOM      4  N   UNL     1       3.930   4.528  17.915  0.00  0.00    +0.000 NA
ATOM      5  C   UNL     1       2.956   4.188  18.776  0.00  0.00    +0.000 A 
ATOM      6  C   UNL     1       2.696   2.830  18.946  0.00  0.00    +0.000 A 
ATOM      7  C   UNL     1       1.666   2.367  19.765  0.00  0.00    +0.000 A 
ATOM      8  C   UNL     1       0.874   3.278  20.440  0.00  0.00    +0.000 A 
ATOM      9  C   UNL     1       1.125   4.646  20.294  0.00  0.00    +0.000 A 
ATOM     10  C   UNL     1       2.178   5.128  19.468  0.00  0.00    +0.000 A 
ENDROOT
BRANCH   1  12
ATOM     11  N   UNL     1       1.588   8.743  19.170  0.00  0.00    +0.000 N 
ATOM     12  C   UNL     1       1.836   7.616  19.935  0.00  0.00    +0.000 C 
ATOM     13  O   UNL     1       1.534   7.542  21.120  0.00  0.00    +0.000 OA
ATOM     14  H   UNL     1       1.783   8.738  18.181  0.00  0.00    +0.000 HD
BRANCH  11  15
ATOM     15  C   UNL     1       0.999   9.958  19.706  0.00  0.00    +0.000 C 
BRANCH  15  22
ATOM     16  C   UNL     1      -1.020  11.967  20.849  0.00  0.00    +0.000 C 
ATOM     17  C   UNL     1      -1.238  11.240  19.549  0.00  0.00    +0.000 A 
ATOM     18  C   UNL     1      -2.405  11.535  18.819  0.00  0.00    +0.000 A 
ATOM     19  C   UNL     1      -2.671  10.909  17.602  0.00  0.00    +0.000 A 
ATOM     20  C   UNL     1      -1.777   9.976  17.098  0.00  0.00    +0.000 A 
ATOM     21  C   UNL     1      -0.613   9.675  17.805  0.00  0.00    +0.000 A 
ATOM     22  C   UNL     1      -0.319  10.296  19.036  0.00  0.00    +0.000 A 
ENDBRANCH  15  22
ENDBRANCH  11  15
ENDBRANCH   1  12
BRANCH   3  23
ATOM     23  N   UNL     1       5.175   6.102  16.692  0.00  0.00    +0.000 N 
ATOM     24  C   UNL     1       4.760   6.660  15.408  0.00  0.00    +0.000 C 
BRANCH  23  25
ATOM     25  C   UNL     1       6.606   5.731  16.799  0.00  0.00    +0.000 C 
ATOM     26  C   UNL     1       7.586   6.886  16.601  0.00  0.00    +0.000 C 
ATOM     27  C   UNL     1       7.898   7.685  17.859  0.00  0.00    +0.000 C 
ATOM     28  C   UNL     1       8.206   6.813  19.075  0.00  0.00    +0.000 C 
ATOM     29  C   UNL     1       7.283   5.613  19.286  0.00  0.00    +0.000 C 
ATOM     30  C   UNL     1       6.963   4.855  18.004  0.00  0.00    +0.000 C 
ENDBRANCH  23  25
ENDBRANCH   3  23
TORSDOF 5
ENDMDL
MODEL 5
REMARK VINA RESULT:      -8.3      1.555      2.476
REMARK  Name = 
REMARK  7 active torsions:
REMARK  status: ('A' for Active; 'I' for Inactive)
REMARK    1  A    between atoms: C_1  and  C_2
REMARK    2  A    between atoms: C_7  and  C_8
REMARK    3  A    between atoms: C_8  and  N_9
REMARK    4  A    between atoms: C_10  and  C_12
REMARK    5  A    between atoms: C_14  and  N_15
REMARK    6  A    between atoms: N_15  and  C_16
REMARK    7  A    between atoms: N_15  and  C_17
REMARK                            x       y       z     vdW  Elec       q    Type
REMARK                         _______ _______ _______ _____ _____    ______ ____
ROOT
ATOM      1  C   UNL     1       2.976   5.325  19.741  0.00  0.00    +0.000 A 
ATOM      2  C   UNL     1       4.313   5.738  19.617  0.00  0.00    +0.000 A 
ATOM      3  C   UNL     1       5.232   4.959  18.937  0.00  0.00    +0.000 A 
ATOM      4  N   UNL     1       4.848   3.758  18.475  0.00  0.00    +0.000 NA
ATOM      5  C   UNL     1       3.582   3.325  18.596  0.00  0.00    +0.000 A 
ATOM      6  C   UNL     1       3.275   2.081  18.049  0.00  0.00    +0.000 A 
ATOM      7  C   UNL     1       1.980   1.563  18.061  0.00  0.00    +0.000 A 
ATOM      8  C   UNL     1       0.959   2.298  18.638  0.00  0.00    +0.000 A 
ATOM      9  C   UNL     1       1.248   3.543  19.205  0.00  0.00    +0.000 A 
ATOM     10  C   UNL     1       2.566   4.078  19.205  0.00  0.00    +0.000 A 
ENDROOT
BRANCH   1  12
ATOM     11  N   UNL     1       2.339   7.581  20.435  0.00  0.00    +0.000 N 
ATOM     12  C   UNL     1       2.038   6.231  20.473  0.00  0.00    +0.000 C 
ATOM     13  O   UNL     1       1.073   5.786  21.084  0.00  0.00    +0.000 OA
ATOM     14  H   UNL     1       3.097   7.917  19.861  0.00  0.00    +0.000 HD
BRANCH  11  15
ATOM     15  C   UNL     1       1.580   8.590  21.152  0.00  0.00    +0.000 C 
BRANCH  15  22
ATOM     16  C   UNL     1      -0.606  10.500  22.151  0.00  0.00    +0.000 C 
ATOM     17  C   UNL     1      -0.314  10.285  20.690  0.00  0.00    +0.000 A 
ATOM     18  C   UNL     1      -1.057  11.030  19.755  0.00  0.00    +0.000 A 
ATOM     19  C   UNL     1      -0.837  10.894  18.385  0.00  0.00    +0.000 A 
ATOM     20  C   UNL     1       0.128  10.006  17.928  0.00  0.00    +0.000 A 
ATOM     21  C   UNL     1       0.877   9.264  18.840  0.00  0.00    +0.000 A 
ATOM     22  C   UNL     1       0.676   9.386  20.231  0.00  0.00    +0.000 A 
ENDBRANCH  15  22
ENDBRANCH  11  15
ENDBRANCH   1  12
BRANCH   3  23
ATOM     23  N   UNL     1       6.522   5.392  18.700  0.00  0.00    +0.000 N 
ATOM     24  C   UNL     1       7.454   5.558  19.812  0.00  0.00    +0.000 C 
BRANCH  23  25
ATOM     25  C   UNL     1       7.002   5.873  17.382  0.00  0.00    +0.000 C 
ATOM     26  C   UNL     1       7.473   4.773  16.431  0.00  0.00    +0.000 C 
ATOM     27  C   UNL     1       6.374   4.145  15.586  0.00  0.00    +0.000 C 
ATOM     28  C   UNL     1       5.440   5.167  14.939  0.00  0.00    +0.000 C 
ATOM     29  C   UNL     1       4.984   6.314  15.838  0.00  0.00    +0.000 C 
ATOM     30  C   UNL     1       6.098   6.900  16.695  0.00  0.00    +0.000 C 
ENDBRANCH  23  25
ENDBRANCH   3  23
TORSDOF 5
ENDMDL
MODEL 6
REMARK VINA RESULT:      -8.0      1.476      2.618
REMARK  Name = 
REMARK  7 active torsions:
REMARK  status: ('A' for Active; 'I' for Inactive)
REMARK    1  A    between atoms: C_1  and  C_2
REMARK    2  A    between atoms: C_7  and  C_8
REMARK    3  A    between atoms: C_8  and  N_9
REMARK    4  A    between atoms: C_10  and  C_12
REMARK    5  A    between atoms: C_14  and  N_15
REMARK    6  A    between atoms: N_15  and  C_16
REMARK    7  A    between atoms: N_15  and  C_17
REMARK                            x       y       z     vdW  Elec       q    Type
REMARK                         _______ _______ _______ _____ _____    ______ ____
ROOT
ATOM      1  C   UNL     1       3.009   5.342  19.716  0.00  0.00    +0.000 A 
ATOM      2  C   UNL     1       4.352   5.733  19.588  0.00  0.00    +0.000 A 
ATOM      3  C   UNL     1       5.266   4.917  18.945  0.00  0.00    +0.000 A 
ATOM      4  N   UNL     1       4.870   3.706  18.524  0.00  0.00    +0.000 NA
ATOM      5  C   UNL     1       3.597   3.293  18.650  0.00  0.00    +0.000 A 
ATOM      6  C   UNL     1       3.279   2.034  18.148  0.00  0.00    +0.000 A 
ATOM      7  C   UNL     1       1.977   1.532  18.169  0.00  0.00    +0.000 A 
ATOM      8  C   UNL     1       0.962   2.301  18.709  0.00  0.00    +0.000 A 
ATOM      9  C   UNL     1       1.262   3.563  19.232  0.00  0.00    +0.000 A 
ATOM     10  C   UNL     1       2.587   4.081  19.223  0.00  0.00    +0.000 A 
ENDROOT
BRANCH   1  12
ATOM     11  N   UNL     1       2.323   7.635  20.216  0.00  0.00    +0.000 N 
ATOM     12  C   UNL     1       2.076   6.286  20.406  0.00  0.00    +0.000 C 
ATOM     13  O   UNL     1       1.164   5.874  21.112  0.00  0.00    +0.000 OA
ATOM     14  H   UNL     1       3.036   7.935  19.569  0.00  0.00    +0.000 HD
BRANCH  11  15
ATOM     15  C   UNL     1       1.564   8.685  20.871  0.00  0.00    +0.000 C 
BRANCH  15  22
ATOM     16  C   UNL     1       2.082   8.825  17.849  0.00  0.00    +0.000 C 
ATOM     17  C   UNL     1       0.895   9.479  18.506  0.00  0.00    +0.000 A 
ATOM     18  C   UNL     1      -0.029  10.146  17.679  0.00  0.00    +0.000 A 
ATOM     19  C   UNL     1      -1.157  10.766  18.213  0.00  0.00    +0.000 A 
ATOM     20  C   UNL     1      -1.377  10.734  19.583  0.00  0.00    +0.000 A 
ATOM     21  C   UNL     1      -0.475  10.073  20.417  0.00  0.00    +0.000 A 
ATOM     22  C   UNL     1       0.672   9.435  19.901  0.00  0.00    +0.000 A 
ENDBRANCH  15  22
ENDBRANCH  11  15
ENDBRANCH   1  12
BRANCH   3  23
ATOM     23  N   UNL     1       6.563   5.326  18.703  0.00  0.00    +0.000 N 
ATOM     24  C   UNL     1       7.506   5.461  19.810  0.00  0.00    +0.000 C 
BRANCH  23  25
ATOM     25  C   UNL     1       7.044   5.809  17.386  0.00  0.00    +0.000 C 
ATOM     26  C   UNL     1       7.452   4.707  16.408  0.00  0.00    +0.000 C 
ATOM     27  C   UNL     1       6.316   4.142  15.570  0.00  0.00    +0.000 C 
ATOM     28  C   UNL     1       5.417   5.214  14.955  0.00  0.00    +0.000 C 
ATOM     29  C   UNL     1       5.025   6.364  15.881  0.00  0.00    +0.000 C 
ATOM     30  C   UNL     1       6.176   6.886  16.731  0.00  0.00    +0.000 C 
ENDBRANCH  23  25
ENDBRANCH   3  23
TORSDOF 5
ENDMDL
MODEL 7
REMARK VINA RESULT:      -7.9      2.031      7.438
REMARK  Name = 
REMARK  7 active torsions:
REMARK  status: ('A' for Active; 'I' for Inactive)
REMARK    1  A    between atoms: C_1  and  C_2
REMARK    2  A    between atoms: C_7  and  C_8
REMARK    3  A    between atoms: C_8  and  N_9
REMARK    4  A    between atoms: C_10  and  C_12
REMARK    5  A    between atoms: C_14  and  N_15
REMARK    6  A    between atoms: N_15  and  C_16
REMARK    7  A    between atoms: N_15  and  C_17
REMARK                            x       y       z     vdW  Elec       q    Type
REMARK                         _______ _______ _______ _____ _____    ______ ____
ROOT
ATOM      1  C   UNL     1       4.101   5.682  18.187  0.00  0.00    +0.000 A 
ATOM      2  C   UNL     1       3.567   6.878  18.696  0.00  0.00    +0.000 A 
ATOM      3  C   UNL     1       2.320   6.895  19.294  0.00  0.00    +0.000 A 
ATOM      4  N   UNL     1       1.588   5.770  19.301  0.00  0.00    +0.000 NA
ATOM      5  C   UNL     1       2.062   4.614  18.804  0.00  0.00    +0.000 A 
ATOM      6  C   UNL     1       1.240   3.493  18.892  0.00  0.00    +0.000 A 
ATOM      7  C   UNL     1       1.655   2.232  18.466  0.00  0.00    +0.000 A 
ATOM      8  C   UNL     1       2.921   2.078  17.930  0.00  0.00    +0.000 A 
ATOM      9  C   UNL     1       3.758   3.193  17.820  0.00  0.00    +0.000 A 
ATOM     10  C   UNL     1       3.342   4.486  18.244  0.00  0.00    +0.000 A 
ENDROOT
BRANCH   1  12
ATOM     11  N   UNL     1       5.523   5.548  16.203  0.00  0.00    +0.000 N 
ATOM     12  C   UNL     1       5.464   5.740  17.573  0.00  0.00    +0.000 C 
ATOM     13  O   UNL     1       6.462   5.926  18.258  0.00  0.00    +0.000 OA
ATOM     14  H   UNL     1       4.675   5.473  15.663  0.00  0.00    +0.000 HD
BRANCH  11  15
ATOM     15  C   UNL     1       6.768   5.497  15.458  0.00  0.00    +0.000 C 
BRANCH  15  22
ATOM     16  C   UNL     1       8.710   5.869  13.110  0.00  0.00    +0.000 C 
ATOM     17  C   UNL     1       7.508   4.965  13.040  0.00  0.00    +0.000 A 
ATOM     18  C   UNL     1       7.302   4.236  11.854  0.00  0.00    +0.000 A 
ATOM     19  C   UNL     1       6.217   3.372  11.718  0.00  0.00    +0.000 A 
ATOM     20  C   UNL     1       5.318   3.226  12.765  0.00  0.00    +0.000 A 
ATOM     21  C   UNL     1       5.509   3.936  13.950  0.00  0.00    +0.000 A 
ATOM     22  C   UNL     1       6.601   4.815  14.113  0.00  0.00    +0.000 A 
ENDBRANCH  15  22
ENDBRANCH  11  15
ENDBRANCH   1  12
BRANCH   3  23
ATOM     23  N   UNL     1       1.820   8.029  19.905  0.00  0.00    +0.000 N 
ATOM     24  C   UNL     1       1.196   7.934  21.222  0.00  0.00    +0.000 C 
BRANCH  23  25
ATOM     25  C   UNL     1       1.717   9.349  19.239  0.00  0.00    +0.000 C 
ATOM     26  C   UNL     1       1.212   9.303  17.797  0.00  0.00    +0.000 C 
ATOM     27  C   UNL     1      -0.302   9.325  17.648  0.00  0.00    +0.000 C 
ATOM     28  C   UNL     1      -0.986  10.385  18.510  0.00  0.00    +0.000 C 
ATOM     29  C   UNL     1      -0.478  10.504  19.945  0.00  0.00    +0.000 C 
ATOM     30  C   UNL     1       1.039  10.445  20.065  0.00  0.00    +0.000 C 
ENDBRANCH  23  25
ENDBRANCH   3  23
TORSDOF 5
ENDMDL
MODEL 8
REMARK VINA RESULT:      -7.9      1.391      2.148
REMARK  Name = 
REMARK  7 active torsions:
REMARK  status: ('A' for Active; 'I' for Inactive)
REMARK    1  A    between atoms: C_1  and  C_2
REMARK    2  A    between atoms: C_7  and  C_8
REMARK    3  A    between atoms: C_8  and  N_9
REMARK    4  A    between atoms: C_10  and  C_12
REMARK    5  A    between atoms: C_14  and  N_15
REMARK    6  A    between atoms: N_15  and  C_16
REMARK    7  A    between atoms: N_15  and  C_17
REMARK                            x       y       z     vdW  Elec       q    Type
REMARK                         _______ _______ _______ _____ _____    ______ ____
ROOT
ATOM      1  C   UNL     1       2.640   6.443  19.004  0.00  0.00    +0.000 A 
ATOM      2  C   UNL     1       3.631   6.586  18.020  0.00  0.00    +0.000 A 
ATOM      3  C   UNL     1       4.203   5.475  17.425  0.00  0.00    +0.000 A 
ATOM      4  N   UNL     1       3.859   4.255  17.868  0.00  0.00    +0.000 NA
ATOM      5  C   UNL     1       2.929   4.084  18.822  0.00  0.00    +0.000 A 
ATOM      6  C   UNL     1       2.615   2.776  19.185  0.00  0.00    +0.000 A 
ATOM      7  C   UNL     1       1.621   2.481  20.118  0.00  0.00    +0.000 A 
ATOM      8  C   UNL     1       0.921   3.515  20.714  0.00  0.00    +0.000 A 
ATOM      9  C   UNL     1       1.228   4.836  20.374  0.00  0.00    +0.000 A 
ATOM     10  C   UNL     1       2.246   5.148  19.430  0.00  0.00    +0.000 A 
ENDROOT
BRANCH   1  12
ATOM     11  N   UNL     1       1.788   8.713  18.691  0.00  0.00    +0.000 N 
ATOM     12  C   UNL     1       2.056   7.691  19.586  0.00  0.00    +0.000 C 
ATOM     13  O   UNL     1       1.852   7.795  20.789  0.00  0.00    +0.000 OA
ATOM     14  H   UNL     1       1.898   8.563  17.700  0.00  0.00    +0.000 HD
BRANCH  11  15
ATOM     15  C   UNL     1       1.292  10.017  19.094  0.00  0.00    +0.000 C 
BRANCH  15  22
ATOM     16  C   UNL     1      -0.676  11.807  20.626  0.00  0.00    +0.000 C 
ATOM     17  C   UNL     1      -1.047  11.080  19.360  0.00  0.00    +0.000 A 
ATOM     18  C   UNL     1      -2.345  11.271  18.850  0.00  0.00    +0.000 A 
ATOM     19  C   UNL     1      -2.759  10.640  17.677  0.00  0.00    +0.000 A 
ATOM     20  C   UNL     1      -1.883   9.804  17.000  0.00  0.00    +0.000 A 
ATOM     21  C   UNL     1      -0.592   9.606  17.488  0.00  0.00    +0.000 A 
ATOM     22  C   UNL     1      -0.148  10.236  18.670  0.00  0.00    +0.000 A 
ENDBRANCH  15  22
ENDBRANCH  11  15
ENDBRANCH   1  12
BRANCH   3  23
ATOM     23  N   UNL     1       5.094   5.586  16.376  0.00  0.00    +0.000 N 
ATOM     24  C   UNL     1       5.061   6.762  15.511  0.00  0.00    +0.000 C 
BRANCH  23  25
ATOM     25  C   UNL     1       6.002   4.497  15.945  0.00  0.00    +0.000 C 
ATOM     26  C   UNL     1       5.373   3.469  15.005  0.00  0.00    +0.000 C 
ATOM     27  C   UNL     1       5.424   3.835  13.530  0.00  0.00    +0.000 C 
ATOM     28  C   UNL     1       6.794   4.336  13.071  0.00  0.00    +0.000 C 
ATOM     29  C   UNL     1       7.486   5.327  14.005  0.00  0.00    +0.000 C 
ATOM     30  C   UNL     1       7.388   4.951  15.478  0.00  0.00    +0.000 C 
ENDBRANCH  23  25
ENDBRANCH   3  23
TORSDOF 5
ENDMDL
MODEL 9
REMARK VINA RESULT:      -7.8      1.792      2.705
REMARK  Name = 
REMARK  7 active torsions:
REMARK  status: ('A' for Active; 'I' for Inactive)
REMARK    1  A    between atoms: C_1  and  C_2
REMARK    2  A    between atoms: C_7  and  C_8
REMARK    3  A    between atoms: C_8  and  N_9
REMARK    4  A    between atoms: C_10  and  C_12
REMARK    5  A    between atoms: C_14  and  N_15
REMARK    6  A    between atoms: N_15  and  C_16
REMARK    7  A    between atoms: N_15  and  C_17
REMARK                            x       y       z     vdW  Elec       q    Type
REMARK                         _______ _______ _______ _____ _____    ______ ____
ROOT
ATOM      1  C   UNL     1       2.936   5.520  19.629  0.00  0.00    +0.000 A 
ATOM      2  C   UNL     1       4.281   5.907  19.512  0.00  0.00    +0.000 A 
ATOM      3  C   UNL     1       5.212   5.060  18.935  0.00  0.00    +0.000 A 
ATOM      4  N   UNL     1       4.827   3.827  18.569  0.00  0.00    +0.000 NA
ATOM      5  C   UNL     1       3.552   3.419  18.687  0.00  0.00    +0.000 A 
ATOM      6  C   UNL     1       3.247   2.135  18.244  0.00  0.00    +0.000 A 
ATOM      7  C   UNL     1       1.945   1.632  18.260  0.00  0.00    +0.000 A 
ATOM      8  C   UNL     1       0.916   2.426  18.735  0.00  0.00    +0.000 A 
ATOM      9  C   UNL     1       1.203   3.715  19.197  0.00  0.00    +0.000 A 
ATOM     10  C   UNL     1       2.528   4.234  19.193  0.00  0.00    +0.000 A 
ENDROOT
BRANCH   1  12
ATOM     11  N   UNL     1       1.849   7.710  19.592  0.00  0.00    +0.000 N 
ATOM     12  C   UNL     1       1.987   6.497  20.246  0.00  0.00    +0.000 C 
ATOM     13  O   UNL     1       1.388   6.233  21.281  0.00  0.00    +0.000 OA
ATOM     14  H   UNL     1       2.300   7.862  18.703  0.00  0.00    +0.000 HD
BRANCH  11  15
ATOM     15  C   UNL     1       1.030   8.799  20.093  0.00  0.00    +0.000 C 
BRANCH  15  22
ATOM     16  C   UNL     1       0.287  11.524  21.294  0.00  0.00    +0.000 C 
ATOM     17  C   UNL     1       1.067  11.380  20.014  0.00  0.00    +0.000 A 
ATOM     18  C   UNL     1       1.501  12.556  19.373  0.00  0.00    +0.000 A 
ATOM     19  C   UNL     1       2.236  12.504  18.190  0.00  0.00    +0.000 A 
ATOM     20  C   UNL     1       2.545  11.274  17.626  0.00  0.00    +0.000 A 
ATOM     21  C   UNL     1       2.128  10.098  18.250  0.00  0.00    +0.000 A 
ATOM     22  C   UNL     1       1.386  10.125  19.449  0.00  0.00    +0.000 A 
ENDBRANCH  15  22
ENDBRANCH  11  15
ENDBRANCH   1  12
BRANCH   3  23
ATOM     23  N   UNL     1       6.514   5.458  18.702  0.00  0.00    +0.000 N 
ATOM     24  C   UNL     1       7.438   5.625  19.820  0.00  0.00    +0.000 C 
BRANCH  23  25
ATOM     25  C   UNL     1       7.019   5.899  17.380  0.00  0.00    +0.000 C 
ATOM     26  C   UNL     1       7.463   4.769  16.453  0.00  0.00    +0.000 C 
ATOM     27  C   UNL     1       6.353   4.157  15.611  0.00  0.00    +0.000 C 
ATOM     28  C   UNL     1       5.455   5.194  14.937  0.00  0.00    +0.000 C 
ATOM     29  C   UNL     1       5.027   6.372  15.810  0.00  0.00    +0.000 C 
ATOM     30  C   UNL     1       6.151   6.940  16.666  0.00  0.00    +0.000 C 
ENDBRANCH  23  25
ENDBRANCH   3  23
TORSDOF 5
ENDMDL
