MODEL 1
REMARK VINA RESULT:      -7.8      0.000      0.000
REMARK  Name = 
REMARK  3 active torsions:
REMARK  status: ('A' for Active; 'I' for Inactive)
REMARK    1  A    between atoms: C_2  and  C_10
REMARK    2  A    between atoms: N_3  and  C_4
REMARK    3  A    between atoms: N_13  and  O_14
REMARK                            x       y       z     vdW  Elec       q    Type
REMARK                         _______ _______ _______ _____ _____    ______ ____
ROOT
ATOM      1  C   UNL     1       4.974   5.417  17.510  0.00  0.00    +0.000 C 
ATOM      2  C   UNL     1       6.033   4.785  18.427  0.00  0.00    +0.000 C 
ATOM      3  O   UNL     1       7.100   4.336  18.008  0.00  0.00    +0.000 OA
ATOM      4  N   UNL     1       5.572   4.523  19.687  0.00  0.00    +0.000 N 
ATOM      5  C   UNL     1       4.880   3.353  19.535  0.00  0.00    +0.000 C 
ATOM      6  O   UNL     1       5.168   2.278  20.064  0.00  0.00    +0.000 OA
ATOM      7  C   UNL     1       3.762   3.399  18.507  0.00  0.00    +0.000 A 
ATOM      8  C   UNL     1       2.676   2.556  18.796  0.00  0.00    +0.000 A 
ATOM      9  C   UNL     1       1.431   2.896  18.302  0.00  0.00    +0.000 A 
ATOM     10  C   UNL     1       1.313   4.037  17.511  0.00  0.00    +0.000 A 
ATOM     11  C   UNL     1       2.441   4.801  17.107  0.00  0.00    +0.000 A 
ATOM     12  C   UNL     1       3.733   4.468  17.553  0.00  0.00    +0.000 A 
ENDROOT
BRANCH   1  14
ATOM     13  O   UNL     1       6.078   7.377  16.834  0.00  0.00    +0.000 OA
ATOM     14  C   UNL     1       5.816   6.200  16.498  0.00  0.00    +0.000 C 
ATOM     15  N   UNL     1       6.605   5.768  15.486  0.00  0.00    +0.000 N 
ATOM     16  H   UNL     1       7.391   6.404  15.351  0.00  0.00    +0.000 HD
BRANCH  15  17
ATOM     17  C   UNL     1       6.417   4.896  14.431  0.00  0.00    +0.000 A 
ATOM     18  C   UNL     1       5.230   4.191  14.254  0.00  0.00    +0.000 A 
ATOM     19  C   UNL     1       5.031   3.436  13.098  0.00  0.00    +0.000 A 
ATOM     20  C   UNL     1       6.019   3.378  12.114  0.00  0.00    +0.000 A 
ATOM     21  C   UNL     1       7.208   4.078  12.278  0.00  0.00    +0.000 A 
ATOM     22  C   UNL     1       7.405   4.834  13.432  0.00  0.00    +0.000 A 
ENDBRANCH  15  17
ENDBRANCH   1  14
BRANCH   4  23
ATOM     23  O   UNL     1       4.615   5.508  20.134  0.00  0.00    +0.000 OA
ATOM     24  H   UNL     1       4.702   5.459  21.104  0.00  0.00    +0.000 HD
ENDBRANCH   4  23
TORSDOF 3
ENDMDL
MODEL 2
REMARK VINA RESULT:      -7.4      3.338      5.455
REMARK  Name = 
REMARK  3 active torsions:
REMARK  status: ('A' for Active; 'I' for Inactive)
REMARK    1  A    between atoms: C_2  and  C_10
REMARK    2  A    between atoms: N_3  and  C_4
REMARK    3  A    between atoms: N_13  and  O_14
REMARK                            x       y       z     vdW  Elec       q    Type
REMARK                         _______ _______ _______ _____ _____    ______ ____
ROOT
ATOM      1  C   UNL     1       3.870   5.422  18.618  0.00  0.00    +0.000 C 
ATOM      2  C   UNL     1       4.392   4.509  17.497  0.00  0.00    +0.000 C 
ATOM      3  O   UNL     1       4.180   4.726  16.303  0.00  0.00    +0.000 OA
ATOM      4  N   UNL     1       4.867   3.311  17.951  0.00  0.00    +0.000 N 
ATOM      5  C   UNL     1       3.733   2.571  18.143  0.00  0.00    +0.000 C 
ATOM      6  O   UNL     1       3.439   1.543  17.532  0.00  0.00    +0.000 OA
ATOM      7  C   UNL     1       2.718   3.188  19.090  0.00  0.00    +0.000 A 
ATOM      8  C   UNL     1       1.956   2.254  19.810  0.00  0.00    +0.000 A 
ATOM      9  C   UNL     1       1.443   2.629  21.037  0.00  0.00    +0.000 A 
ATOM     10  C   UNL     1       1.671   3.927  21.489  0.00  0.00    +0.000 A 
ATOM     11  C   UNL     1       2.320   4.907  20.690  0.00  0.00    +0.000 A 
ATOM     12  C   UNL     1       2.824   4.580  19.417  0.00  0.00    +0.000 A 
ENDROOT
BRANCH   1  14
ATOM     13  O   UNL     1       5.122   7.014  17.429  0.00  0.00    +0.000 OA
ATOM     14  C   UNL     1       4.040   6.826  18.029  0.00  0.00    +0.000 C 
ATOM     15  N   UNL     1       3.122   7.778  17.741  0.00  0.00    +0.000 N 
ATOM     16  H   UNL     1       3.419   8.327  16.934  0.00  0.00    +0.000 HD
BRANCH  15  17
ATOM     17  C   UNL     1       2.094   8.365  18.456  0.00  0.00    +0.000 A 
ATOM     18  C   UNL     1       1.929   8.157  19.822  0.00  0.00    +0.000 A 
ATOM     19  C   UNL     1       0.969   8.882  20.527  0.00  0.00    +0.000 A 
ATOM     20  C   UNL     1       0.166   9.817  19.871  0.00  0.00    +0.000 A 
ATOM     21  C   UNL     1       0.322  10.034  18.507  0.00  0.00    +0.000 A 
ATOM     22  C   UNL     1       1.283   9.310  17.803  0.00  0.00    +0.000 A 
ENDBRANCH  15  17
ENDBRANCH   1  14
BRANCH   4  23
ATOM     23  O   UNL     1       5.501   3.429  19.244  0.00  0.00    +0.000 OA
ATOM     24  H   UNL     1       4.994   2.796  19.785  0.00  0.00    +0.000 HD
ENDBRANCH   4  23
TORSDOF 3
ENDMDL
MODEL 3
REMARK VINA RESULT:      -7.3      1.194      1.749
REMARK  Name = 
REMARK  3 active torsions:
REMARK  status: ('A' for Active; 'I' for Inactive)
REMARK    1  A    between atoms: C_2  and  C_10
REMARK    2  A    between atoms: N_3  and  C_4
REMARK    3  A    between atoms: N_13  and  O_14
REMARK                            x       y       z     vdW  Elec       q    Type
REMARK                         _______ _______ _______ _____ _____    ______ ____
ROOT
ATOM      1  C   UNL     1       6.143   5.954  17.375  0.00  0.00    +0.000 C 
ATOM      2  C   UNL     1       6.783   4.694  17.980  0.00  0.00    +0.000 C 
ATOM      3  O   UNL     1       7.376   3.854  17.303  0.00  0.00    +0.000 OA
ATOM      4  N   UNL     1       6.401   4.459  19.271  0.00  0.00    +0.000 N 
ATOM      5  C   UNL     1       5.171   3.876  19.137  0.00  0.00    +0.000 C 
ATOM      6  O   UNL     1       4.885   2.726  19.474  0.00  0.00    +0.000 OA
ATOM      7  C   UNL     1       4.150   4.700  18.372  0.00  0.00    +0.000 A 
ATOM      8  C   UNL     1       2.822   4.503  18.784  0.00  0.00    +0.000 A 
ATOM      9  C   UNL     1       1.916   5.530  18.597  0.00  0.00    +0.000 A 
ATOM     10  C   UNL     1       2.349   6.700  17.976  0.00  0.00    +0.000 A 
ATOM     11  C   UNL     1       3.657   6.834  17.436  0.00  0.00    +0.000 A 
ATOM     12  C   UNL     1       4.600   5.798  17.568  0.00  0.00    +0.000 A 
ENDROOT
BRANCH   1  14
ATOM     13  O   UNL     1       7.898   7.326  16.631  0.00  0.00    +0.000 OA
ATOM     14  C   UNL     1       7.154   6.375  16.303  0.00  0.00    +0.000 C 
ATOM     15  N   UNL     1       7.619   5.708  15.221  0.00  0.00    +0.000 N 
ATOM     16  H   UNL     1       8.584   5.975  15.025  0.00  0.00    +0.000 HD
BRANCH  15  17
ATOM     17  C   UNL     1       7.013   5.039  14.174  0.00  0.00    +0.000 A 
ATOM     18  C   UNL     1       7.638   4.867  12.943  0.00  0.00    +0.000 A 
ATOM     19  C   UNL     1       7.050   4.061  11.968  0.00  0.00    +0.000 A 
ATOM     20  C   UNL     1       5.833   3.425  12.216  0.00  0.00    +0.000 A 
ATOM     21  C   UNL     1       5.199   3.589  13.442  0.00  0.00    +0.000 A 
ATOM     22  C   UNL     1       5.788   4.392  14.417  0.00  0.00    +0.000 A 
ENDBRANCH  15  17
ENDBRANCH   1  14
BRANCH   4  23
ATOM     23  O   UNL     1       6.194   5.683  20.011  0.00  0.00    +0.000 OA
ATOM     24  H   UNL     1       6.291   5.388  20.935  0.00  0.00    +0.000 HD
ENDBRANCH   4  23
TORSDOF 3
ENDMDL
MODEL 4
REMARK VINA RESULT:      -7.3      0.192      1.044
REMARK  Name = 
REMARK  3 active torsions:
REMARK  status: ('A' for Active; 'I' for Inactive)
REMARK    1  A    between atoms: C_2  and  C_10
REMARK    2  A    between atoms: N_3  and  C_4
REMARK    3  A    between atoms: N_13  and  O_14
REMARK                            x       y       z     vdW  Elec       q    Type
REMARK                         _______ _______ _______ _____ _____    ______ ____
ROOT
ATOM      1  C   UNL     1       5.145   5.482  17.537  0.00  0.00    +0.000 C 
ATOM      2  C   UNL     1       6.159   4.779  18.453  0.00  0.00    +0.000 C 
ATOM      3  O   UNL     1       7.217   4.303  18.041  0.00  0.00    +0.000 OA
ATOM      4  N   UNL     1       5.660   4.493  19.693  0.00  0.00    +0.000 N 
ATOM      5  C   UNL     1       4.928   3.356  19.487  0.00  0.00    +0.000 C 
ATOM      6  O   UNL     1       5.164   2.254  19.985  0.00  0.00    +0.000 OA
ATOM      7  C   UNL     1       3.836   3.479  18.438  0.00  0.00    +0.000 A 
ATOM      8  C   UNL     1       2.713   2.670  18.675  0.00  0.00    +0.000 A 
ATOM      9  C   UNL     1       1.493   3.073  18.167  0.00  0.00    +0.000 A 
ATOM     10  C   UNL     1       1.435   4.244  17.413  0.00  0.00    +0.000 A 
ATOM     11  C   UNL     1       2.600   4.977  17.060  0.00  0.00    +0.000 A 
ATOM     12  C   UNL     1       3.869   4.580  17.521  0.00  0.00    +0.000 A 
ENDROOT
BRANCH   1  14
ATOM     13  O   UNL     1       6.413   7.382  16.992  0.00  0.00    +0.000 OA
ATOM     14  C   UNL     1       6.038   6.265  16.570  0.00  0.00    +0.000 C 
ATOM     15  N   UNL     1       6.767   5.847  15.508  0.00  0.00    +0.000 N 
ATOM     16  H   UNL     1       7.606   6.418  15.404  0.00  0.00    +0.000 HD
BRANCH  15  17
ATOM     17  C   UNL     1       6.481   5.084  14.391  0.00  0.00    +0.000 A 
ATOM     18  C   UNL     1       7.388   4.932  13.346  0.00  0.00    +0.000 A 
ATOM     19  C   UNL     1       7.116   4.038  12.311  0.00  0.00    +0.000 A 
ATOM     20  C   UNL     1       5.936   3.293  12.312  0.00  0.00    +0.000 A 
ATOM     21  C   UNL     1       5.023   3.435  13.351  0.00  0.00    +0.000 A 
ATOM     22  C   UNL     1       5.297   4.327  14.387  0.00  0.00    +0.000 A 
ENDBRANCH  15  17
ENDBRANCH   1  14
BRANCH   4  23
ATOM     23  O   UNL     1       4.732   5.499  20.154  0.00  0.00    +0.000 OA
ATOM     24  H   UNL     1       5.181   5.854  20.943  0.00  0.00    +0.000 HD
ENDBRANCH   4  23
TORSDOF 3
ENDMDL
MODEL 5
REMARK VINA RESULT:      -7.2      3.727      6.410
REMARK  Name = 
REMARK  3 active torsions:
REMARK  status: ('A' for Active; 'I' for Inactive)
REMARK    1  A    between atoms: C_2  and  C_10
REMARK    2  A    between atoms: N_3  and  C_4
REMARK    3  A    between atoms: N_13  and  O_14
REMARK                            x       y       z     vdW  Elec       q    Type
REMARK                         _______ _______ _______ _____ _____    ______ ____
ROOT
ATOM      1  C   UNL     1       2.523   5.268  19.056  0.00  0.00    +0.000 C 
ATOM      2  C   UNL     1       2.151   3.799  19.310  0.00  0.00    +0.000 C 
ATOM      3  O   UNL     1       2.291   3.252  20.404  0.00  0.00    +0.000 OA
ATOM      4  N   UNL     1       1.914   3.094  18.164  0.00  0.00    +0.000 N 
ATOM      5  C   UNL     1       3.168   2.788  17.714  0.00  0.00    +0.000 C 
ATOM      6  O   UNL     1       3.632   1.651  17.607  0.00  0.00    +0.000 OA
ATOM      7  C   UNL     1       4.075   3.984  17.481  0.00  0.00    +0.000 A 
ATOM      8  C   UNL     1       5.012   3.808  16.450  0.00  0.00    +0.000 A 
ATOM      9  C   UNL     1       5.477   4.927  15.785  0.00  0.00    +0.000 A 
ATOM     10  C   UNL     1       5.025   6.181  16.189  0.00  0.00    +0.000 A 
ATOM     11  C   UNL     1       4.189   6.358  17.325  0.00  0.00    +0.000 A 
ATOM     12  C   UNL     1       3.724   5.249  18.056  0.00  0.00    +0.000 A 
ENDROOT
BRANCH   1  14
ATOM     13  O   UNL     1       2.084   5.234  21.362  0.00  0.00    +0.000 OA
ATOM     14  C   UNL     1       2.084   5.965  20.347  0.00  0.00    +0.000 C 
ATOM     15  N   UNL     1       2.025   7.280  20.663  0.00  0.00    +0.000 N 
ATOM     16  H   UNL     1       2.211   7.418  21.656  0.00  0.00    +0.000 HD
BRANCH  15  17
ATOM     17  C   UNL     1       1.467   8.388  20.051  0.00  0.00    +0.000 A 
ATOM     18  C   UNL     1       1.749   8.725  18.731  0.00  0.00    +0.000 A 
ATOM     19  C   UNL     1       1.052   9.763  18.111  0.00  0.00    +0.000 A 
ATOM     20  C   UNL     1       0.073  10.472  18.809  0.00  0.00    +0.000 A 
ATOM     21  C   UNL     1      -0.218  10.144  20.128  0.00  0.00    +0.000 A 
ATOM     22  C   UNL     1       0.477   9.105  20.745  0.00  0.00    +0.000 A 
ENDBRANCH  15  17
ENDBRANCH   1  14
BRANCH   4  23
ATOM     23  O   UNL     1       1.300   3.906  17.139  0.00  0.00    +0.000 OA
ATOM     24  H   UNL     1       1.377   3.341  16.349  0.00  0.00    +0.000 HD
ENDBRANCH   4  23
TORSDOF 3
ENDMDL
MODEL 6
REMARK VINA RESULT:      -7.2      2.268      3.183
REMARK  Name = 
REMARK  3 active torsions:
REMARK  status: ('A' for Active; 'I' for Inactive)
REMARK    1  A    between atoms: C_2  and  C_10
REMARK    2  A    between atoms: N_3  and  C_4
REMARK    3  A    between atoms: N_13  and  O_14
REMARK                            x       y       z     vdW  Elec       q    Type
REMARK                         _______ _______ _______ _____ _____    ______ ____
ROOT
ATOM      1  C   UNL     1       4.490   3.876  18.723  0.00  0.00    +0.000 C 
ATOM      2  C   UNL     1       3.797   4.341  17.433  0.00  0.00    +0.000 C 
ATOM      3  O   UNL     1       3.960   5.462  16.951  0.00  0.00    +0.000 OA
ATOM      4  N   UNL     1       2.789   3.510  17.031  0.00  0.00    +0.000 N 
ATOM      5  C   UNL     1       1.739   3.873  17.829  0.00  0.00    +0.000 C 
ATOM      6  O   UNL     1       0.680   4.367  17.437  0.00  0.00    +0.000 OA
ATOM      7  C   UNL     1       2.006   3.779  19.321  0.00  0.00    +0.000 A 
ATOM      8  C   UNL     1       0.874   3.472  20.094  0.00  0.00    +0.000 A 
ATOM      9  C   UNL     1       1.057   2.829  21.303  0.00  0.00    +0.000 A 
ATOM     10  C   UNL     1       2.355   2.546  21.721  0.00  0.00    +0.000 A 
ATOM     11  C   UNL     1       3.498   2.987  21.000  0.00  0.00    +0.000 A 
ATOM     12  C   UNL     1       3.359   3.680  19.784  0.00  0.00    +0.000 A 
ENDROOT
BRANCH   1  14
ATOM     13  O   UNL     1       6.336   4.987  19.658  0.00  0.00    +0.000 OA
ATOM     14  C   UNL     1       5.890   4.485  18.602  0.00  0.00    +0.000 C 
ATOM     15  N   UNL     1       6.861   4.286  17.679  0.00  0.00    +0.000 N 
ATOM     16  H   UNL     1       7.783   4.380  18.105  0.00  0.00    +0.000 HD
BRANCH  15  17
ATOM     17  C   UNL     1       6.890   4.317  16.297  0.00  0.00    +0.000 A 
ATOM     18  C   UNL     1       6.172   3.412  15.521  0.00  0.00    +0.000 A 
ATOM     19  C   UNL     1       6.114   3.572  14.136  0.00  0.00    +0.000 A 
ATOM     20  C   UNL     1       6.777   4.634  13.520  0.00  0.00    +0.000 A 
ATOM     21  C   UNL     1       7.497   5.545  14.284  0.00  0.00    +0.000 A 
ATOM     22  C   UNL     1       7.551   5.386  15.668  0.00  0.00    +0.000 A 
ENDBRANCH  15  17
ENDBRANCH   1  14
BRANCH   4  23
ATOM     23  O   UNL     1       3.069   2.125  17.331  0.00  0.00    +0.000 OA
ATOM     24  H   UNL     1       2.554   1.979  18.146  0.00  0.00    +0.000 HD
ENDBRANCH   4  23
TORSDOF 3
ENDMDL
MODEL 7
REMARK VINA RESULT:      -7.2      1.117      1.309
REMARK  Name = 
REMARK  3 active torsions:
REMARK  status: ('A' for Active; 'I' for Inactive)
REMARK    1  A    between atoms: C_2  and  C_10
REMARK    2  A    between atoms: N_3  and  C_4
REMARK    3  A    between atoms: N_13  and  O_14
REMARK                            x       y       z     vdW  Elec       q    Type
REMARK                         _______ _______ _______ _____ _____    ______ ____
ROOT
ATOM      1  C   UNL     1       6.083   5.893  17.423  0.00  0.00    +0.000 C 
ATOM      2  C   UNL     1       6.787   4.703  18.093  0.00  0.00    +0.000 C 
ATOM      3  O   UNL     1       7.442   3.871  17.464  0.00  0.00    +0.000 OA
ATOM      4  N   UNL     1       6.398   4.503  19.388  0.00  0.00    +0.000 N 
ATOM      5  C   UNL     1       5.208   3.840  19.264  0.00  0.00    +0.000 C 
ATOM      6  O   UNL     1       4.987   2.690  19.648  0.00  0.00    +0.000 OA
ATOM      7  C   UNL     1       4.153   4.566  18.447  0.00  0.00    +0.000 A 
ATOM      8  C   UNL     1       2.832   4.307  18.848  0.00  0.00    +0.000 A 
ATOM      9  C   UNL     1       1.870   5.267  18.602  0.00  0.00    +0.000 A 
ATOM     10  C   UNL     1       2.242   6.433  17.936  0.00  0.00    +0.000 A 
ATOM     11  C   UNL     1       3.548   6.622  17.409  0.00  0.00    +0.000 A 
ATOM     12  C   UNL     1       4.550   5.652  17.601  0.00  0.00    +0.000 A 
ENDROOT
BRANCH   1  14
ATOM     13  O   UNL     1       7.765   7.335  16.643  0.00  0.00    +0.000 OA
ATOM     14  C   UNL     1       7.085   6.327  16.348  0.00  0.00    +0.000 C 
ATOM     15  N   UNL     1       7.608   5.643  15.303  0.00  0.00    +0.000 N 
ATOM     16  H   UNL     1       8.558   5.959  15.110  0.00  0.00    +0.000 HD
BRANCH  15  17
ATOM     17  C   UNL     1       7.060   4.893  14.279  0.00  0.00    +0.000 A 
ATOM     18  C   UNL     1       5.831   4.253  14.405  0.00  0.00    +0.000 A 
ATOM     19  C   UNL     1       5.251   3.631  13.300  0.00  0.00    +0.000 A 
ATOM     20  C   UNL     1       5.897   3.642  12.063  0.00  0.00    +0.000 A 
ATOM     21  C   UNL     1       7.125   4.279  11.924  0.00  0.00    +0.000 A 
ATOM     22  C   UNL     1       7.702   4.903  13.029  0.00  0.00    +0.000 A 
ENDBRANCH  15  17
ENDBRANCH   1  14
BRANCH   4  23
ATOM     23  O   UNL     1       6.105   5.742  20.069  0.00  0.00    +0.000 OA
ATOM     24  H   UNL     1       5.179   5.616  20.346  0.00  0.00    +0.000 HD
ENDBRANCH   4  23
TORSDOF 3
ENDMDL
MODEL 8
REMARK VINA RESULT:      -7.1      3.735      6.324
REMARK  Name = 
REMARK  3 active torsions:
REMARK  status: ('A' for Active; 'I' for Inactive)
REMARK    1  A    between atoms: C_2  and  C_10
REMARK    2  A    between atoms: N_3  and  C_4
REMARK    3  A    between atoms: N_13  and  O_14
REMARK                            x       y       z     vdW  Elec       q    Type
REMARK                         _______ _______ _______ _____ _____    ______ ____
ROOT
ATOM      1  C   UNL     1       2.533   5.259  19.044  0.00  0.00    +0.000 C 
ATOM      2  C   UNL     1       2.151   3.792  19.300  0.00  0.00    +0.000 C 
ATOM      3  O   UNL     1       2.288   3.246  20.395  0.00  0.00    +0.000 OA
ATOM      4  N   UNL     1       1.911   3.088  18.154  0.00  0.00    +0.000 N 
ATOM      5  C   UNL     1       3.164   2.774  17.704  0.00  0.00    +0.000 C 
ATOM      6  O   UNL     1       3.621   1.634  17.598  0.00  0.00    +0.000 OA
ATOM      7  C   UNL     1       4.078   3.964  17.471  0.00  0.00    +0.000 A 
ATOM      8  C   UNL     1       5.014   3.782  16.440  0.00  0.00    +0.000 A 
ATOM      9  C   UNL     1       5.485   4.897  15.775  0.00  0.00    +0.000 A 
ATOM     10  C   UNL     1       5.041   6.155  16.177  0.00  0.00    +0.000 A 
ATOM     11  C   UNL     1       4.205   6.337  17.313  0.00  0.00    +0.000 A 
ATOM     12  C   UNL     1       3.734   5.232  18.045  0.00  0.00    +0.000 A 
ENDROOT
BRANCH   1  14
ATOM     13  O   UNL     1       2.127   5.238  21.357  0.00  0.00    +0.000 OA
ATOM     14  C   UNL     1       2.097   5.959  20.335  0.00  0.00    +0.000 C 
ATOM     15  N   UNL     1       2.015   7.276  20.639  0.00  0.00    +0.000 N 
ATOM     16  H   UNL     1       2.213   7.427  21.628  0.00  0.00    +0.000 HD
BRANCH  15  17
ATOM     17  C   UNL     1       1.426   8.366  20.024  0.00  0.00    +0.000 A 
ATOM     18  C   UNL     1       0.556   9.216  20.700  0.00  0.00    +0.000 A 
ATOM     19  C   UNL     1       0.101  10.383  20.084  0.00  0.00    +0.000 A 
ATOM     20  C   UNL     1       0.510  10.704  18.789  0.00  0.00    +0.000 A 
ATOM     21  C   UNL     1       1.380   9.863  18.104  0.00  0.00    +0.000 A 
ATOM     22  C   UNL     1       1.836   8.699  18.721  0.00  0.00    +0.000 A 
ENDBRANCH  15  17
ENDBRANCH   1  14
BRANCH   4  23
ATOM     23  O   UNL     1       1.302   3.903  17.128  0.00  0.00    +0.000 OA
ATOM     24  H   UNL     1       0.724   3.266  16.670  0.00  0.00    +0.000 HD
ENDBRANCH   4  23
TORSDOF 3
ENDMDL
MODEL 9
REMARK VINA RESULT:      -7.0      2.215      3.237
REMARK  Name = 
REMARK  3 active torsions:
REMARK  status: ('A' for Active; 'I' for Inactive)
REMARK    1  A    between atoms: C_2  and  C_10
REMARK    2  A    between atoms: N_3  and  C_4
REMARK    3  A    between atoms: N_13  and  O_14
REMARK                            x       y       z     vdW  Elec       q    Type
REMARK                         _______ _______ _______ _____ _____    ______ ____
ROOT
ATOM      1  C   UNL     1       4.550   3.861  18.570  0.00  0.00    +0.000 C 
ATOM      2  C   UNL     1       3.810   4.367  17.321  0.00  0.00    +0.000 C 
ATOM      3  O   UNL     1       3.978   5.493  16.853  0.00  0.00    +0.000 OA
ATOM      4  N   UNL     1       2.767   3.566  16.949  0.00  0.00    +0.000 N 
ATOM      5  C   UNL     1       1.763   3.937  17.800  0.00  0.00    +0.000 C 
ATOM      6  O   UNL     1       0.699   4.461  17.465  0.00  0.00    +0.000 OA
ATOM      7  C   UNL     1       2.094   3.807  19.277  0.00  0.00    +0.000 A 
ATOM      8  C   UNL     1       0.990   3.511  20.093  0.00  0.00    +0.000 A 
ATOM      9  C   UNL     1       1.212   2.841  21.281  0.00  0.00    +0.000 A 
ATOM     10  C   UNL     1       2.521   2.520  21.635  0.00  0.00    +0.000 A 
ATOM     11  C   UNL     1       3.640   2.950  20.872  0.00  0.00    +0.000 A 
ATOM     12  C   UNL     1       3.463   3.670  19.676  0.00  0.00    +0.000 A 
ENDROOT
BRANCH   1  14
ATOM     13  O   UNL     1       6.487   4.853  19.453  0.00  0.00    +0.000 OA
ATOM     14  C   UNL     1       5.957   4.442  18.397  0.00  0.00    +0.000 C 
ATOM     15  N   UNL     1       6.858   4.288  17.397  0.00  0.00    +0.000 N 
ATOM     16  H   UNL     1       7.808   4.327  17.765  0.00  0.00    +0.000 HD
BRANCH  15  17
ATOM     17  C   UNL     1       6.795   4.421  16.023  0.00  0.00    +0.000 A 
ATOM     18  C   UNL     1       7.542   5.374  15.336  0.00  0.00    +0.000 A 
ATOM     19  C   UNL     1       7.558   5.375  13.941  0.00  0.00    +0.000 A 
ATOM     20  C   UNL     1       6.825   4.427  13.225  0.00  0.00    +0.000 A 
ATOM     21  C   UNL     1       6.076   3.470  13.899  0.00  0.00    +0.000 A 
ATOM     22  C   UNL     1       6.063   3.468  15.293  0.00  0.00    +0.000 A 
ENDBRANCH  15  17
ENDBRANCH   1  14
BRANCH   4  23
ATOM     23  O   UNL     1       3.029   2.170  17.211  0.00  0.00    +0.000 OA
ATOM     24  H   UNL     1       3.101   2.148  18.183  0.00  0.00    +0.000 HD
ENDBRANCH   4  23
TORSDOF 3
ENDMDL
