MODEL 1
REMARK VINA RESULT:      -7.5      0.000      0.000
REMARK  Name = 
REMARK  3 active torsions:
REMARK  status: ('A' for Active; 'I' for Inactive)
REMARK    1  A    between atoms: C_2  and  C_3
REMARK    2  A    between atoms: C_3  and  C_4
REMARK    3  A    between atoms: C_13  and  C_14
REMARK                            x       y       z     vdW  Elec       q    Type
REMARK                         _______ _______ _______ _____ _____    ______ ____
ROOT
ATOM      1  O   UNL     1       6.275   7.007  17.231  0.00  0.00    +0.000 OA
ATOM      2  C   UNL     1       5.988   5.824  17.047  0.00  0.00    +0.000 C 
ATOM      3  N   UNL     1       4.838   5.251  17.570  0.00  0.00    +0.000 N 
ATOM      4  C   UNL     1       4.539   3.819  17.552  0.00  0.00    +0.000 C 
ATOM      5  C   UNL     1       3.087   3.579  17.143  0.00  0.00    +0.000 C 
ATOM      6  C   UNL     1       2.097   4.389  17.994  0.00  0.00    +0.000 C 
ATOM      7  C   UNL     1       2.507   5.869  18.041  0.00  0.00    +0.000 C 
ATOM      8  C   UNL     1       3.972   6.052  18.431  0.00  0.00    +0.000 C 
ENDROOT
BRANCH   6   9
ATOM      9  C   UNL     1       1.967   3.815  19.375  0.00  0.00    +0.000 A 
ATOM     10  N   UNL     1       1.610   2.587  19.686  0.00  0.00    +0.000 NA
ATOM     11  C   UNL     1       1.651   2.514  21.050  0.00  0.00    +0.000 A 
ATOM     12  C   UNL     1       2.032   3.718  21.582  0.00  0.00    +0.000 A 
ATOM     13  N   UNL     1       2.229   4.542  20.509  0.00  0.00    +0.000 N 
ATOM     14  H   UNL     1       2.518   5.509  20.538  0.00  0.00    +0.000 HD
ENDBRANCH   6   9
BRANCH   2  15
ATOM     15  C   UNL     1       6.877   4.912  16.220  0.00  0.00    +0.000 C 
BRANCH  15  16
ATOM     16  C   UNL     1       6.610   4.994  14.718  0.00  0.00    +0.000 C 
ATOM     17  C   UNL     1       6.088   3.647  14.161  0.00  0.00    +0.000 C 
ATOM     18  O   UNL     1       5.921   3.695  12.735  0.00  0.00    +0.000 OA
ATOM     19  C   UNL     1       7.165   4.011  12.105  0.00  0.00    +0.000 C 
ATOM     20  C   UNL     1       7.702   5.361  12.595  0.00  0.00    +0.000 C 
ATOM     21  N   UNL     1       7.887   5.378  14.054  0.00  0.00    +0.000 NA
ATOM     22  H   UNL     1       8.146   6.321  14.345  0.00  0.00    +0.000 HD
ENDBRANCH  15  16
ENDBRANCH   2  15
TORSDOF 3
ENDMDL
MODEL 2
REMARK VINA RESULT:      -7.3      2.394      3.141
REMARK  Name = 
REMARK  3 active torsions:
REMARK  status: ('A' for Active; 'I' for Inactive)
REMARK    1  A    between atoms: C_2  and  C_3
REMARK    2  A    between atoms: C_3  and  C_4
REMARK    3  A    between atoms: C_13  and  C_14
REMARK                            x       y       z     vdW  Elec       q    Type
REMARK                         _______ _______ _______ _____ _____    ______ ____
ROOT
ATOM      1  O   UNL     1       4.170   7.405  16.658  0.00  0.00    +0.000 OA
ATOM      2  C   UNL     1       4.475   6.212  16.687  0.00  0.00    +0.000 C 
ATOM      3  N   UNL     1       3.719   5.272  17.374  0.00  0.00    +0.000 N 
ATOM      4  C   UNL     1       4.128   3.886  17.608  0.00  0.00    +0.000 C 
ATOM      5  C   UNL     1       2.965   2.933  17.344  0.00  0.00    +0.000 C 
ATOM      6  C   UNL     1       1.697   3.325  18.118  0.00  0.00    +0.000 C 
ATOM      7  C   UNL     1       1.364   4.808  17.897  0.00  0.00    +0.000 C 
ATOM      8  C   UNL     1       2.565   5.716  18.151  0.00  0.00    +0.000 C 
ENDROOT
BRANCH   6   9
ATOM      9  C   UNL     1       1.830   3.007  19.579  0.00  0.00    +0.000 A 
ATOM     10  N   UNL     1       2.914   2.594  20.199  0.00  0.00    +0.000 NA
ATOM     11  C   UNL     1       2.570   2.456  21.515  0.00  0.00    +0.000 A 
ATOM     12  C   UNL     1       1.252   2.783  21.701  0.00  0.00    +0.000 A 
ATOM     13  N   UNL     1       0.787   3.130  20.464  0.00  0.00    +0.000 N 
ATOM     14  H   UNL     1      -0.150   3.428  20.235  0.00  0.00    +0.000 HD
ENDBRANCH   6   9
BRANCH   2  15
ATOM     15  C   UNL     1       5.700   5.688  15.960  0.00  0.00    +0.000 C 
BRANCH  15  16
ATOM     16  C   UNL     1       6.983   5.770  16.786  0.00  0.00    +0.000 C 
ATOM     17  C   UNL     1       7.167   4.513  17.672  0.00  0.00    +0.000 C 
ATOM     18  O   UNL     1       8.325   4.627  18.514  0.00  0.00    +0.000 OA
ATOM     19  C   UNL     1       8.210   5.779  19.355  0.00  0.00    +0.000 C 
ATOM     20  C   UNL     1       8.068   7.056  18.519  0.00  0.00    +0.000 C 
ATOM     21  N   UNL     1       6.901   6.998  17.626  0.00  0.00    +0.000 NA
ATOM     22  H   UNL     1       6.905   7.819  17.021  0.00  0.00    +0.000 HD
ENDBRANCH  15  16
ENDBRANCH   2  15
TORSDOF 3
ENDMDL
MODEL 3
REMARK VINA RESULT:      -7.2      2.018      6.899
REMARK  Name = 
REMARK  3 active torsions:
REMARK  status: ('A' for Active; 'I' for Inactive)
REMARK    1  A    between atoms: C_2  and  C_3
REMARK    2  A    between atoms: C_3  and  C_4
REMARK    3  A    between atoms: C_13  and  C_14
REMARK                            x       y       z     vdW  Elec       q    Type
REMARK                         _______ _______ _______ _____ _____    ______ ____
ROOT
ATOM      1  O   UNL     1       3.207   7.541  18.152  0.00  0.00    +0.000 OA
ATOM      2  C   UNL     1       3.194   6.361  17.804  0.00  0.00    +0.000 C 
ATOM      3  N   UNL     1       4.245   5.783  17.107  0.00  0.00    +0.000 N 
ATOM      4  C   UNL     1       4.209   4.451  16.500  0.00  0.00    +0.000 C 
ATOM      5  C   UNL     1       5.501   3.693  16.792  0.00  0.00    +0.000 C 
ATOM      6  C   UNL     1       6.753   4.496  16.407  0.00  0.00    +0.000 C 
ATOM      7  C   UNL     1       6.696   5.909  17.006  0.00  0.00    +0.000 C 
ATOM      8  C   UNL     1       5.376   6.614  16.705  0.00  0.00    +0.000 C 
ENDROOT
BRANCH   6   9
ATOM      9  C   UNL     1       6.934   4.542  14.917  0.00  0.00    +0.000 A 
ATOM     10  N   UNL     1       7.661   5.404  14.238  0.00  0.00    +0.000 NA
ATOM     11  C   UNL     1       7.542   5.048  12.923  0.00  0.00    +0.000 A 
ATOM     12  C   UNL     1       6.724   3.956  12.795  0.00  0.00    +0.000 A 
ATOM     13  N   UNL     1       6.338   3.642  14.068  0.00  0.00    +0.000 N 
ATOM     14  H   UNL     1       5.730   2.884  14.343  0.00  0.00    +0.000 HD
ENDBRANCH   6   9
BRANCH   2  15
ATOM     15  C   UNL     1       2.021   5.452  18.126  0.00  0.00    +0.000 C 
BRANCH  15  16
ATOM     16  C   UNL     1       2.336   4.397  19.184  0.00  0.00    +0.000 C 
ATOM     17  C   UNL     1       1.488   3.117  18.978  0.00  0.00    +0.000 C 
ATOM     18  O   UNL     1       1.718   2.159  20.022  0.00  0.00    +0.000 OA
ATOM     19  C   UNL     1       1.399   2.731  21.294  0.00  0.00    +0.000 C 
ATOM     20  C   UNL     1       2.245   3.981  21.561  0.00  0.00    +0.000 C 
ATOM     21  N   UNL     1       2.061   5.000  20.518  0.00  0.00    +0.000 NA
ATOM     22  H   UNL     1       2.715   5.765  20.682  0.00  0.00    +0.000 HD
ENDBRANCH  15  16
ENDBRANCH   2  15
TORSDOF 3
ENDMDL
MODEL 4
REMARK VINA RESULT:      -7.2      1.049      1.198
REMARK  Name = 
REMARK  3 active torsions:
REMARK  status: ('A' for Active; 'I' for Inactive)
REMARK    1  A    between atoms: C_2  and  C_3
REMARK    2  A    between atoms: C_3  and  C_4
REMARK    3  A    between atoms: C_13  and  C_14
REMARK                            x       y       z     vdW  Elec       q    Type
REMARK                         _______ _______ _______ _____ _____    ______ ____
ROOT
ATOM      1  O   UNL     1       4.306   7.355  16.762  0.00  0.00    +0.000 OA
ATOM      2  C   UNL     1       4.712   6.202  16.904  0.00  0.00    +0.000 C 
ATOM      3  N   UNL     1       3.961   5.227  17.547  0.00  0.00    +0.000 N 
ATOM      4  C   UNL     1       4.460   3.902  17.918  0.00  0.00    +0.000 C 
ATOM      5  C   UNL     1       3.436   2.826  17.568  0.00  0.00    +0.000 C 
ATOM      6  C   UNL     1       2.045   3.129  18.147  0.00  0.00    +0.000 C 
ATOM      7  C   UNL     1       1.610   4.559  17.792  0.00  0.00    +0.000 C 
ATOM      8  C   UNL     1       2.678   5.592  18.140  0.00  0.00    +0.000 C 
ENDROOT
BRANCH   6   9
ATOM      9  C   UNL     1       2.011   2.900  19.630  0.00  0.00    +0.000 A 
ATOM     10  N   UNL     1       3.007   2.493  20.387  0.00  0.00    +0.000 NA
ATOM     11  C   UNL     1       2.521   2.448  21.664  0.00  0.00    +0.000 A 
ATOM     12  C   UNL     1       1.204   2.827  21.687  0.00  0.00    +0.000 A 
ATOM     13  N   UNL     1       0.885   3.110  20.389  0.00  0.00    +0.000 N 
ATOM     14  H   UNL     1      -0.010   3.422  20.043  0.00  0.00    +0.000 HD
ENDBRANCH   6   9
BRANCH   2  15
ATOM     15  C   UNL     1       6.066   5.766  16.375  0.00  0.00    +0.000 C 
BRANCH  15  16
ATOM     16  C   UNL     1       6.079   5.500  14.870  0.00  0.00    +0.000 C 
ATOM     17  C   UNL     1       5.277   4.223  14.515  0.00  0.00    +0.000 C 
ATOM     18  O   UNL     1       5.361   3.922  13.113  0.00  0.00    +0.000 OA
ATOM     19  C   UNL     1       6.727   3.739  12.730  0.00  0.00    +0.000 C 
ATOM     20  C   UNL     1       7.553   4.996  13.026  0.00  0.00    +0.000 C 
ATOM     21  N   UNL     1       7.501   5.363  14.448  0.00  0.00    +0.000 NA
ATOM     22  H   UNL     1       7.977   6.255  14.579  0.00  0.00    +0.000 HD
ENDBRANCH  15  16
ENDBRANCH   2  15
TORSDOF 3
ENDMDL
MODEL 5
REMARK VINA RESULT:      -6.9      2.569      6.821
REMARK  Name = 
REMARK  3 active torsions:
REMARK  status: ('A' for Active; 'I' for Inactive)
REMARK    1  A    between atoms: C_2  and  C_3
REMARK    2  A    between atoms: C_3  and  C_4
REMARK    3  A    between atoms: C_13  and  C_14
REMARK                            x       y       z     vdW  Elec       q    Type
REMARK                         _______ _______ _______ _____ _____    ______ ____
ROOT
ATOM      1  O   UNL     1       3.751   2.068  17.543  0.00  0.00    +0.000 OA
ATOM      2  C   UNL     1       3.468   3.261  17.441  0.00  0.00    +0.000 C 
ATOM      3  N   UNL     1       4.433   4.236  17.231  0.00  0.00    +0.000 N 
ATOM      4  C   UNL     1       4.188   5.677  17.294  0.00  0.00    +0.000 C 
ATOM      5  C   UNL     1       4.867   6.388  16.126  0.00  0.00    +0.000 C 
ATOM      6  C   UNL     1       6.358   6.036  16.010  0.00  0.00    +0.000 C 
ATOM      7  C   UNL     1       6.558   4.514  16.029  0.00  0.00    +0.000 C 
ATOM      8  C   UNL     1       5.841   3.849  17.202  0.00  0.00    +0.000 C 
ENDROOT
BRANCH   6   9
ATOM      9  C   UNL     1       7.161   6.706  17.087  0.00  0.00    +0.000 A 
ATOM     10  N   UNL     1       7.679   6.135  18.153  0.00  0.00    +0.000 NA
ATOM     11  C   UNL     1       8.336   7.123  18.832  0.00  0.00    +0.000 A 
ATOM     12  C   UNL     1       8.213   8.319  18.174  0.00  0.00    +0.000 A 
ATOM     13  N   UNL     1       7.460   8.046  17.066  0.00  0.00    +0.000 N 
ATOM     14  H   UNL     1       7.176   8.704  16.355  0.00  0.00    +0.000 HD
ENDBRANCH   6   9
BRANCH   2  15
ATOM     15  C   UNL     1       2.032   3.746  17.530  0.00  0.00    +0.000 C 
BRANCH  15  16
ATOM     16  C   UNL     1       1.484   3.779  18.956  0.00  0.00    +0.000 C 
ATOM     17  C   UNL     1       2.144   4.906  19.789  0.00  0.00    +0.000 C 
ATOM     18  O   UNL     1       1.696   4.883  21.154  0.00  0.00    +0.000 OA
ATOM     19  C   UNL     1       2.002   3.619  21.750  0.00  0.00    +0.000 C 
ATOM     20  C   UNL     1       1.335   2.473  20.982  0.00  0.00    +0.000 C 
ATOM     21  N   UNL     1       1.747   2.448  19.571  0.00  0.00    +0.000 NA
ATOM     22  H   UNL     1       1.205   1.738  19.079  0.00  0.00    +0.000 HD
ENDBRANCH  15  16
ENDBRANCH   2  15
TORSDOF 3
ENDMDL
MODEL 6
REMARK VINA RESULT:      -6.6      1.993      6.993
REMARK  Name = 
REMARK  3 active torsions:
REMARK  status: ('A' for Active; 'I' for Inactive)
REMARK    1  A    between atoms: C_2  and  C_3
REMARK    2  A    between atoms: C_3  and  C_4
REMARK    3  A    between atoms: C_13  and  C_14
REMARK                            x       y       z     vdW  Elec       q    Type
REMARK                         _______ _______ _______ _____ _____    ______ ____
ROOT
ATOM      1  O   UNL     1       2.736   6.990  18.095  0.00  0.00    +0.000 OA
ATOM      2  C   UNL     1       2.966   5.813  17.822  0.00  0.00    +0.000 C 
ATOM      3  N   UNL     1       4.100   5.423  17.123  0.00  0.00    +0.000 N 
ATOM      4  C   UNL     1       4.335   4.075  16.602  0.00  0.00    +0.000 C 
ATOM      5  C   UNL     1       5.766   3.630  16.892  0.00  0.00    +0.000 C 
ATOM      6  C   UNL     1       6.808   4.651  16.409  0.00  0.00    +0.000 C 
ATOM      7  C   UNL     1       6.464   6.058  16.921  0.00  0.00    +0.000 C 
ATOM      8  C   UNL     1       5.017   6.445  16.626  0.00  0.00    +0.000 C 
ENDROOT
BRANCH   6   9
ATOM      9  C   UNL     1       6.938   4.631  14.914  0.00  0.00    +0.000 A 
ATOM     10  N   UNL     1       6.316   3.825  14.080  0.00  0.00    +0.000 NA
ATOM     11  C   UNL     1       6.727   4.184  12.827  0.00  0.00    +0.000 A 
ATOM     12  C   UNL     1       7.620   5.221  12.895  0.00  0.00    +0.000 A 
ATOM     13  N   UNL     1       7.752   5.498  14.227  0.00  0.00    +0.000 N 
ATOM     14  H   UNL     1       8.336   6.211  14.638  0.00  0.00    +0.000 HD
ENDBRANCH   6   9
BRANCH   2  15
ATOM     15  C   UNL     1       2.023   4.701  18.245  0.00  0.00    +0.000 C 
BRANCH  15  16
ATOM     16  C   UNL     1       2.207   4.260  19.696  0.00  0.00    +0.000 C 
ATOM     17  C   UNL     1       3.397   3.279  19.842  0.00  0.00    +0.000 C 
ATOM     18  O   UNL     1       3.518   2.795  21.189  0.00  0.00    +0.000 OA
ATOM     19  C   UNL     1       2.313   2.131  21.582  0.00  0.00    +0.000 C 
ATOM     20  C   UNL     1       1.110   3.077  21.493  0.00  0.00    +0.000 C 
ATOM     21  N   UNL     1       0.938   3.616  20.136  0.00  0.00    +0.000 NA
ATOM     22  H   UNL     1       0.194   4.314  20.148  0.00  0.00    +0.000 HD
ENDBRANCH  15  16
ENDBRANCH   2  15
TORSDOF 3
ENDMDL
MODEL 7
REMARK VINA RESULT:      -6.4      1.420      1.868
REMARK  Name = 
REMARK  3 active torsions:
REMARK  status: ('A' for Active; 'I' for Inactive)
REMARK    1  A    between atoms: C_2  and  C_3
REMARK    2  A    between atoms: C_3  and  C_4
REMARK    3  A    between atoms: C_13  and  C_14
REMARK                            x       y       z     vdW  Elec       q    Type
REMARK                         _______ _______ _______ _____ _____    ______ ____
ROOT
ATOM      1  O   UNL     1       6.926   4.529  17.037  0.00  0.00    +0.000 OA
ATOM      2  C   UNL     1       5.762   4.283  16.724  0.00  0.00    +0.000 C 
ATOM      3  N   UNL     1       4.713   4.399  17.625  0.00  0.00    +0.000 N 
ATOM      4  C   UNL     1       3.346   3.940  17.375  0.00  0.00    +0.000 C 
ATOM      5  C   UNL     1       2.335   4.989  17.832  0.00  0.00    +0.000 C 
ATOM      6  C   UNL     1       2.564   5.432  19.285  0.00  0.00    +0.000 C 
ATOM      7  C   UNL     1       4.032   5.825  19.506  0.00  0.00    +0.000 C 
ATOM      8  C   UNL     1       5.001   4.753  19.012  0.00  0.00    +0.000 C 
ENDROOT
BRANCH   6   9
ATOM      9  C   UNL     1       2.132   4.368  20.253  0.00  0.00    +0.000 A 
ATOM     10  N   UNL     1       2.618   4.156  21.458  0.00  0.00    +0.000 NA
ATOM     11  C   UNL     1       1.911   3.105  21.972  0.00  0.00    +0.000 A 
ATOM     12  C   UNL     1       0.983   2.663  21.065  0.00  0.00    +0.000 A 
ATOM     13  N   UNL     1       1.133   3.470  19.972  0.00  0.00    +0.000 N 
ATOM     14  H   UNL     1       0.604   3.423  19.113  0.00  0.00    +0.000 HD
ENDBRANCH   6   9
BRANCH   2  15
ATOM     15  C   UNL     1       5.394   3.842  15.319  0.00  0.00    +0.000 C 
BRANCH  15  16
ATOM     16  C   UNL     1       6.545   3.955  14.320  0.00  0.00    +0.000 C 
ATOM     17  C   UNL     1       6.998   5.426  14.143  0.00  0.00    +0.000 C 
ATOM     18  O   UNL     1       8.019   5.545  13.141  0.00  0.00    +0.000 OA
ATOM     19  C   UNL     1       7.538   5.049  11.888  0.00  0.00    +0.000 C 
ATOM     20  C   UNL     1       7.117   3.580  12.004  0.00  0.00    +0.000 C 
ATOM     21  N   UNL     1       6.075   3.389  13.025  0.00  0.00    +0.000 NA
ATOM     22  H   UNL     1       5.900   2.391  13.138  0.00  0.00    +0.000 HD
ENDBRANCH  15  16
ENDBRANCH   2  15
TORSDOF 3
ENDMDL
MODEL 8
REMARK VINA RESULT:      -6.3      4.536      6.436
REMARK  Name = 
REMARK  3 active torsions:
REMARK  status: ('A' for Active; 'I' for Inactive)
REMARK    1  A    between atoms: C_2  and  C_3
REMARK    2  A    between atoms: C_3  and  C_4
REMARK    3  A    between atoms: C_13  and  C_14
REMARK                            x       y       z     vdW  Elec       q    Type
REMARK                         _______ _______ _______ _____ _____    ______ ____
ROOT
ATOM      1  O   UNL     1       7.426   9.519  17.112  0.00  0.00    +0.000 OA
ATOM      2  C   UNL     1       7.832   8.629  17.859  0.00  0.00    +0.000 C 
ATOM      3  N   UNL     1       7.304   7.346  17.837  0.00  0.00    +0.000 N 
ATOM      4  C   UNL     1       7.604   6.305  18.821  0.00  0.00    +0.000 C 
ATOM      5  C   UNL     1       7.862   4.970  18.128  0.00  0.00    +0.000 C 
ATOM      6  C   UNL     1       6.729   4.579  17.166  0.00  0.00    +0.000 C 
ATOM      7  C   UNL     1       6.406   5.738  16.211  0.00  0.00    +0.000 C 
ATOM      8  C   UNL     1       6.180   7.054  16.952  0.00  0.00    +0.000 C 
ENDROOT
BRANCH   6   9
ATOM      9  C   UNL     1       5.508   4.132  17.916  0.00  0.00    +0.000 A 
ATOM     10  N   UNL     1       4.255   4.290  17.545  0.00  0.00    +0.000 NA
ATOM     11  C   UNL     1       3.494   3.712  18.523  0.00  0.00    +0.000 A 
ATOM     12  C   UNL     1       4.294   3.199  19.511  0.00  0.00    +0.000 A 
ATOM     13  N   UNL     1       5.574   3.473  19.119  0.00  0.00    +0.000 N 
ATOM     14  H   UNL     1       6.420   3.233  19.615  0.00  0.00    +0.000 HD
ENDBRANCH   6   9
BRANCH   2  15
ATOM     15  C   UNL     1       8.952   8.878  18.854  0.00  0.00    +0.000 C 
BRANCH  15  16
ATOM     16  C   UNL     1       9.130  10.351  19.220  0.00  0.00    +0.000 C 
ATOM     17  C   UNL     1      10.252  11.010  18.379  0.00  0.00    +0.000 C 
ATOM     18  O   UNL     1      10.482  12.369  18.782  0.00  0.00    +0.000 OA
ATOM     19  C   UNL     1      10.844  12.417  20.165  0.00  0.00    +0.000 C 
ATOM     20  C   UNL     1       9.742  11.812  21.042  0.00  0.00    +0.000 C 
ATOM     21  N   UNL     1       9.453  10.418  20.673  0.00  0.00    +0.000 NA
ATOM     22  H   UNL     1       8.650  10.092  21.210  0.00  0.00    +0.000 HD
ENDBRANCH  15  16
ENDBRANCH   2  15
TORSDOF 3
ENDMDL
MODEL 9
REMARK VINA RESULT:      -6.3      2.494      6.461
REMARK  Name = 
REMARK  3 active torsions:
REMARK  status: ('A' for Active; 'I' for Inactive)
REMARK    1  A    between atoms: C_2  and  C_3
REMARK    2  A    between atoms: C_3  and  C_4
REMARK    3  A    between atoms: C_13  and  C_14
REMARK                            x       y       z     vdW  Elec       q    Type
REMARK                         _______ _______ _______ _____ _____    ______ ____
ROOT
ATOM      1  O   UNL     1       2.393   7.288  19.083  0.00  0.00    +0.000 OA
ATOM      2  C   UNL     1       3.158   6.344  19.277  0.00  0.00    +0.000 C 
ATOM      3  N   UNL     1       4.238   6.083  18.446  0.00  0.00    +0.000 N 
ATOM      4  C   UNL     1       5.064   4.876  18.508  0.00  0.00    +0.000 C 
ATOM      5  C   UNL     1       6.545   5.233  18.404  0.00  0.00    +0.000 C 
ATOM      6  C   UNL     1       6.853   6.111  17.181  0.00  0.00    +0.000 C 
ATOM      7  C   UNL     1       5.903   7.317  17.126  0.00  0.00    +0.000 C 
ATOM      8  C   UNL     1       4.438   6.908  17.258  0.00  0.00    +0.000 C 
ENDROOT
BRANCH   6   9
ATOM      9  C   UNL     1       6.795   5.313  15.910  0.00  0.00    +0.000 A 
ATOM     10  N   UNL     1       7.455   5.556  14.798  0.00  0.00    +0.000 NA
ATOM     11  C   UNL     1       7.107   4.563  13.925  0.00  0.00    +0.000 A 
ATOM     12  C   UNL     1       6.215   3.703  14.511  0.00  0.00    +0.000 A 
ATOM     13  N   UNL     1       6.019   4.189  15.773  0.00  0.00    +0.000 N 
ATOM     14  H   UNL     1       5.418   3.796  16.483  0.00  0.00    +0.000 HD
ENDBRANCH   6   9
BRANCH   2  15
ATOM     15  C   UNL     1       2.973   5.401  20.453  0.00  0.00    +0.000 C 
BRANCH  15  16
ATOM     16  C   UNL     1       1.986   4.267  20.179  0.00  0.00    +0.000 C 
ATOM     17  C   UNL     1       2.618   2.884  20.474  0.00  0.00    +0.000 C 
ATOM     18  O   UNL     1       1.724   1.813  20.134  0.00  0.00    +0.000 OA
ATOM     19  C   UNL     1       1.378   1.884  18.747  0.00  0.00    +0.000 C 
ATOM     20  C   UNL     1       0.710   3.222  18.416  0.00  0.00    +0.000 C 
ATOM     21  N   UNL     1       1.574   4.363  18.751  0.00  0.00    +0.000 NA
ATOM     22  H   UNL     1       1.053   5.228  18.610  0.00  0.00    +0.000 HD
ENDBRANCH  15  16
ENDBRANCH   2  15
TORSDOF 3
ENDMDL
