MODEL 1
REMARK VINA RESULT:      -7.7      0.000      0.000
REMARK  Name = 
REMARK  11 active torsions:
REMARK  status: ('A' for Active; 'I' for Inactive)
REMARK    1  A    between atoms: C_1  and  C_2
REMARK    2  A    between atoms: C_2  and  O_3
REMARK    3  A    between atoms: O_3  and  C_4
REMARK    4  A    between atoms: C_4  and  C_6
REMARK    5  A    between atoms: C_10  and  C_12
REMARK    6  A    between atoms: C_15  and  C_16
REMARK    7  A    between atoms: C_19  and  O_20
REMARK    8  A    between atoms: O_20  and  C_21
REMARK    9  A    between atoms: C_22  and  O_23
REMARK   10  A    between atoms: O_23  and  C_24
REMARK   11  A    between atoms: N_27  and  C_28
REMARK                            x       y       z     vdW  Elec       q    Type
REMARK                         _______ _______ _______ _____ _____    ______ ____
ROOT
ATOM      1  C   UNL     1       4.973   4.838  18.672  0.00  0.00    +0.000 A 
ATOM      2  C   UNL     1       4.148   5.964  18.814  0.00  0.00    +0.000 A 
ATOM      3  C   UNL     1       3.100   5.668  19.683  0.00  0.00    +0.000 A 
ATOM      4  C   UNL     1       2.016   6.342  20.263  0.00  0.00    +0.000 A 
ATOM      5  N   UNL     1       1.273   5.428  20.948  0.00  0.00    +0.000 NA
ATOM      6  N   UNL     1       1.936   4.244  20.791  0.00  0.00    +0.000 N 
ATOM      7  C   UNL     1       1.393   3.011  21.302  0.00  0.00    +0.000 C 
ATOM      8  C   UNL     1       3.059   4.391  20.064  0.00  0.00    +0.000 A 
ATOM      9  S   UNL     1       4.299   3.449  19.513  0.00  0.00    +0.000 S 
ENDROOT
BRANCH   1  14
ATOM     10  C   UNL     1       6.321   5.109  13.775  0.00  0.00    +0.000 C 
ATOM     11  C   UNL     1       7.562   5.031  14.685  0.00  0.00    +0.000 C 
ATOM     12  C   UNL     1       7.392   4.041  15.840  0.00  0.00    +0.000 C 
ATOM     13  N   UNL     1       6.145   4.290  16.565  0.00  0.00    +0.000 N 
ATOM     14  C   UNL     1       6.211   4.615  17.928  0.00  0.00    +0.000 C 
ATOM     15  O   UNL     1       7.312   4.729  18.472  0.00  0.00    +0.000 OA
ATOM     16  C   UNL     1       4.949   4.266  15.732  0.00  0.00    +0.000 C 
ATOM     17  C   UNL     1       5.049   5.289  14.604  0.00  0.00    +0.000 C 
BRANCH  10  18
ATOM     18  C   UNL     1       6.218   3.877  12.895  0.00  0.00    +0.000 C 
ATOM     19  O   UNL     1       7.173   3.265  12.429  0.00  0.00    +0.000 OA
BRANCH  18  20
ATOM     20  O   UNL     1       4.913   3.601  12.642  0.00  0.00    +0.000 OA
BRANCH  20  22
ATOM     21  C   UNL     1       3.529   3.471  10.716  0.00  0.00    +0.000 C 
ATOM     22  C   UNL     1       4.684   2.827  11.460  0.00  0.00    +0.000 C 
ENDBRANCH  20  22
ENDBRANCH  18  20
ENDBRANCH  10  18
ENDBRANCH   1  14
BRANCH   4  23
ATOM     23  C   UNL     1       1.643   7.762  20.244  0.00  0.00    +0.000 A 
ATOM     24  C   UNL     1       1.643   8.468  19.040  0.00  0.00    +0.000 A 
ATOM     25  C   UNL     1       1.262   9.812  19.008  0.00  0.00    +0.000 A 
ATOM     26  C   UNL     1       0.874  10.487  20.172  0.00  0.00    +0.000 A 
ATOM     27  C   UNL     1       0.866   9.793  21.395  0.00  0.00    +0.000 A 
ATOM     28  C   UNL     1       1.243   8.433  21.413  0.00  0.00    +0.000 A 
BRANCH  26  29
ATOM     29  O   UNL     1       0.535  11.792  19.922  0.00  0.00    +0.000 OA
ATOM     30  C   UNL     1      -0.407  12.086  18.900  0.00  0.00    +0.000 C 
ENDBRANCH  26  29
BRANCH  27  31
ATOM     31  O   UNL     1       0.491  10.479  22.519  0.00  0.00    +0.000 OA
ATOM     32  C   UNL     1      -0.823  10.302  23.029  0.00  0.00    +0.000 C 
ENDBRANCH  27  31
ENDBRANCH   4  23
TORSDOF 7
ENDMDL
MODEL 2
REMARK VINA RESULT:      -7.3      2.256      8.563
REMARK  Name = 
REMARK  11 active torsions:
REMARK  status: ('A' for Active; 'I' for Inactive)
REMARK    1  A    between atoms: C_1  and  C_2
REMARK    2  A    between atoms: C_2  and  O_3
REMARK    3  A    between atoms: O_3  and  C_4
REMARK    4  A    between atoms: C_4  and  C_6
REMARK    5  A    between atoms: C_10  and  C_12
REMARK    6  A    between atoms: C_15  and  C_16
REMARK    7  A    between atoms: C_19  and  O_20
REMARK    8  A    between atoms: O_20  and  C_21
REMARK    9  A    between atoms: C_22  and  O_23
REMARK   10  A    between atoms: O_23  and  C_24
REMARK   11  A    between atoms: N_27  and  C_28
REMARK                            x       y       z     vdW  Elec       q    Type
REMARK                         _______ _______ _______ _____ _____    ______ ____
ROOT
ATOM      1  C   UNL     1       1.994   6.518  20.025  0.00  0.00    +0.000 A 
ATOM      2  C   UNL     1       3.094   6.325  19.175  0.00  0.00    +0.000 A 
ATOM      3  C   UNL     1       3.099   5.012  18.709  0.00  0.00    +0.000 A 
ATOM      4  C   UNL     1       3.858   4.232  17.824  0.00  0.00    +0.000 A 
ATOM      5  N   UNL     1       3.404   2.950  17.904  0.00  0.00    +0.000 NA
ATOM      6  N   UNL     1       2.376   2.993  18.801  0.00  0.00    +0.000 N 
ATOM      7  C   UNL     1       1.701   1.791  19.223  0.00  0.00    +0.000 C 
ATOM      8  C   UNL     1       2.162   4.240  19.259  0.00  0.00    +0.000 A 
ATOM      9  S   UNL     1       1.133   5.009  20.298  0.00  0.00    +0.000 S 
ENDROOT
BRANCH   1  14
ATOM     10  C   UNL     1      -0.030  10.972  18.637  0.00  0.00    +0.000 C 
ATOM     11  C   UNL     1      -0.236  10.719  20.142  0.00  0.00    +0.000 C 
ATOM     12  C   UNL     1       0.994  10.106  20.817  0.00  0.00    +0.000 C 
ATOM     13  N   UNL     1       1.466   8.933  20.081  0.00  0.00    +0.000 N 
ATOM     14  C   UNL     1       1.497   7.693  20.738  0.00  0.00    +0.000 C 
ATOM     15  O   UNL     1       1.088   7.610  21.898  0.00  0.00    +0.000 OA
ATOM     16  C   UNL     1       1.762   9.182  18.676  0.00  0.00    +0.000 C 
ATOM     17  C   UNL     1       0.539   9.731  17.948  0.00  0.00    +0.000 C 
BRANCH  10  18
ATOM     18  C   UNL     1       0.871  12.172  18.409  0.00  0.00    +0.000 C 
ATOM     19  O   UNL     1       2.069  12.113  18.154  0.00  0.00    +0.000 OA
BRANCH  18  20
ATOM     20  O   UNL     1       0.168  13.317  18.604  0.00  0.00    +0.000 OA
BRANCH  20  22
ATOM     21  C   UNL     1       0.774  14.655  20.472  0.00  0.00    +0.000 C 
ATOM     22  C   UNL     1       0.961  14.448  18.981  0.00  0.00    +0.000 C 
ENDBRANCH  20  22
ENDBRANCH  18  20
ENDBRANCH  10  18
ENDBRANCH   1  14
BRANCH   4  23
ATOM     23  C   UNL     1       4.943   4.598  16.906  0.00  0.00    +0.000 A 
ATOM     24  C   UNL     1       5.079   3.935  15.686  0.00  0.00    +0.000 A 
ATOM     25  C   UNL     1       6.093   4.296  14.794  0.00  0.00    +0.000 A 
ATOM     26  C   UNL     1       6.996   5.323  15.095  0.00  0.00    +0.000 A 
ATOM     27  C   UNL     1       6.875   6.004  16.319  0.00  0.00    +0.000 A 
ATOM     28  C   UNL     1       5.842   5.637  17.207  0.00  0.00    +0.000 A 
BRANCH  26  29
ATOM     29  O   UNL     1       7.905   5.522  14.087  0.00  0.00    +0.000 OA
ATOM     30  C   UNL     1       7.625   5.025  12.786  0.00  0.00    +0.000 C 
ENDBRANCH  26  29
BRANCH  27  31
ATOM     31  O   UNL     1       7.776   6.998  16.592  0.00  0.00    +0.000 OA
ATOM     32  C   UNL     1       7.755   7.618  17.869  0.00  0.00    +0.000 C 
ENDBRANCH  27  31
ENDBRANCH   4  23
TORSDOF 7
ENDMDL
MODEL 3
REMARK VINA RESULT:      -7.2      2.355      8.531
REMARK  Name = 
REMARK  11 active torsions:
REMARK  status: ('A' for Active; 'I' for Inactive)
REMARK    1  A    between atoms: C_1  and  C_2
REMARK    2  A    between atoms: C_2  and  O_3
REMARK    3  A    between atoms: O_3  and  C_4
REMARK    4  A    between atoms: C_4  and  C_6
REMARK    5  A    between atoms: C_10  and  C_12
REMARK    6  A    between atoms: C_15  and  C_16
REMARK    7  A    between atoms: C_19  and  O_20
REMARK    8  A    between atoms: O_20  and  C_21
REMARK    9  A    between atoms: C_22  and  O_23
REMARK   10  A    between atoms: O_23  and  C_24
REMARK   11  A    between atoms: N_27  and  C_28
REMARK                            x       y       z     vdW  Elec       q    Type
REMARK                         _______ _______ _______ _____ _____    ______ ____
ROOT
ATOM      1  C   UNL     1       1.884   7.724  20.283  0.00  0.00    +0.000 A 
ATOM      2  C   UNL     1       2.902   7.292  19.421  0.00  0.00    +0.000 A 
ATOM      3  C   UNL     1       2.843   5.906  19.287  0.00  0.00    +0.000 A 
ATOM      4  C   UNL     1       3.508   4.908  18.560  0.00  0.00    +0.000 A 
ATOM      5  N   UNL     1       3.037   3.700  18.982  0.00  0.00    +0.000 NA
ATOM      6  N   UNL     1       2.091   3.997  19.920  0.00  0.00    +0.000 N 
ATOM      7  C   UNL     1       1.432   2.958  20.670  0.00  0.00    +0.000 C 
ATOM      8  C   UNL     1       1.941   5.325  20.078  0.00  0.00    +0.000 A 
ATOM      9  S   UNL     1       1.020   6.360  20.979  0.00  0.00    +0.000 S 
ENDROOT
BRANCH   1  14
ATOM     10  C   UNL     1      -1.746  11.011  18.909  0.00  0.00    +0.000 C 
ATOM     11  C   UNL     1      -1.124  11.411  20.260  0.00  0.00    +0.000 C 
ATOM     12  C   UNL     1       0.396  11.230  20.293  0.00  0.00    +0.000 C 
ATOM     13  N   UNL     1       0.774   9.890  19.843  0.00  0.00    +0.000 N 
ATOM     14  C   UNL     1       1.473   9.055  20.728  0.00  0.00    +0.000 C 
ATOM     15  O   UNL     1       1.712   9.447  21.872  0.00  0.00    +0.000 OA
ATOM     16  C   UNL     1       0.276   9.535  18.520  0.00  0.00    +0.000 C 
ATOM     17  C   UNL     1      -1.245   9.637  18.464  0.00  0.00    +0.000 C 
BRANCH  10  18
ATOM     18  C   UNL     1      -1.455  12.058  17.850  0.00  0.00    +0.000 C 
ATOM     19  O   UNL     1      -0.834  13.097  18.041  0.00  0.00    +0.000 OA
BRANCH  18  20
ATOM     20  O   UNL     1      -2.048  11.705  16.680  0.00  0.00    +0.000 OA
BRANCH  20  22
ATOM     21  C   UNL     1      -3.830  10.578  15.586  0.00  0.00    +0.000 C 
ATOM     22  C   UNL     1      -3.451  11.438  16.778  0.00  0.00    +0.000 C 
ENDBRANCH  20  22
ENDBRANCH  18  20
ENDBRANCH  10  18
ENDBRANCH   1  14
BRANCH   4  23
ATOM     23  C   UNL     1       4.518   5.001  17.498  0.00  0.00    +0.000 A 
ATOM     24  C   UNL     1       4.437   4.167  16.382  0.00  0.00    +0.000 A 
ATOM     25  C   UNL     1       5.379   4.268  15.354  0.00  0.00    +0.000 A 
ATOM     26  C   UNL     1       6.422   5.199  15.412  0.00  0.00    +0.000 A 
ATOM     27  C   UNL     1       6.520   6.050  16.528  0.00  0.00    +0.000 A 
ATOM     28  C   UNL     1       5.559   5.945  17.555  0.00  0.00    +0.000 A 
BRANCH  26  29
ATOM     29  O   UNL     1       7.229   5.139  14.304  0.00  0.00    +0.000 OA
ATOM     30  C   UNL     1       6.874   4.283  13.228  0.00  0.00    +0.000 C 
ENDBRANCH  26  29
BRANCH  27  31
ATOM     31  O   UNL     1       7.555   6.945  16.563  0.00  0.00    +0.000 OA
ATOM     32  C   UNL     1       7.779   7.697  17.747  0.00  0.00    +0.000 C 
ENDBRANCH  27  31
ENDBRANCH   4  23
TORSDOF 7
ENDMDL
MODEL 4
REMARK VINA RESULT:      -7.1      0.743      1.669
REMARK  Name = 
REMARK  11 active torsions:
REMARK  status: ('A' for Active; 'I' for Inactive)
REMARK    1  A    between atoms: C_1  and  C_2
REMARK    2  A    between atoms: C_2  and  O_3
REMARK    3  A    between atoms: O_3  and  C_4
REMARK    4  A    between atoms: C_4  and  C_6
REMARK    5  A    between atoms: C_10  and  C_12
REMARK    6  A    between atoms: C_15  and  C_16
REMARK    7  A    between atoms: C_19  and  O_20
REMARK    8  A    between atoms: O_20  and  C_21
REMARK    9  A    between atoms: C_22  and  O_23
REMARK   10  A    between atoms: O_23  and  C_24
REMARK   11  A    between atoms: N_27  and  C_28
REMARK                            x       y       z     vdW  Elec       q    Type
REMARK                         _______ _______ _______ _____ _____    ______ ____
ROOT
ATOM      1  C   UNL     1       4.909   4.802  18.761  0.00  0.00    +0.000 A 
ATOM      2  C   UNL     1       4.077   5.916  18.948  0.00  0.00    +0.000 A 
ATOM      3  C   UNL     1       3.026   5.577  19.796  0.00  0.00    +0.000 A 
ATOM      4  C   UNL     1       1.934   6.218  20.399  0.00  0.00    +0.000 A 
ATOM      5  N   UNL     1       1.193   5.270  21.039  0.00  0.00    +0.000 NA
ATOM      6  N   UNL     1       1.864   4.099  20.834  0.00  0.00    +0.000 N 
ATOM      7  C   UNL     1       1.325   2.842  21.287  0.00  0.00    +0.000 C 
ATOM      8  C   UNL     1       2.990   4.284  20.120  0.00  0.00    +0.000 A 
ATOM      9  S   UNL     1       4.239   3.374  19.536  0.00  0.00    +0.000 S 
ENDROOT
BRANCH   1  14
ATOM     10  C   UNL     1       6.237   5.092  13.860  0.00  0.00    +0.000 C 
ATOM     11  C   UNL     1       7.482   5.064  14.767  0.00  0.00    +0.000 C 
ATOM     12  C   UNL     1       7.349   4.075  15.929  0.00  0.00    +0.000 C 
ATOM     13  N   UNL     1       6.096   4.284  16.655  0.00  0.00    +0.000 N 
ATOM     14  C   UNL     1       6.153   4.619  18.016  0.00  0.00    +0.000 C 
ATOM     15  O   UNL     1       7.250   4.775  18.557  0.00  0.00    +0.000 OA
ATOM     16  C   UNL     1       4.900   4.213  15.824  0.00  0.00    +0.000 C 
ATOM     17  C   UNL     1       4.961   5.232  14.691  0.00  0.00    +0.000 C 
BRANCH  10  18
ATOM     18  C   UNL     1       6.176   3.853  12.987  0.00  0.00    +0.000 C 
ATOM     19  O   UNL     1       7.150   3.210  12.611  0.00  0.00    +0.000 OA
BRANCH  18  20
ATOM     20  O   UNL     1       4.891   3.608  12.626  0.00  0.00    +0.000 OA
BRANCH  20  22
ATOM     21  C   UNL     1       3.502   3.379  10.713  0.00  0.00    +0.000 C 
ATOM     22  C   UNL     1       4.742   2.860  11.415  0.00  0.00    +0.000 C 
ENDBRANCH  20  22
ENDBRANCH  18  20
ENDBRANCH  10  18
ENDBRANCH   1  14
BRANCH   4  23
ATOM     23  C   UNL     1       1.552   7.636  20.439  0.00  0.00    +0.000 A 
ATOM     24  C   UNL     1       1.155   8.218  21.643  0.00  0.00    +0.000 A 
ATOM     25  C   UNL     1       0.818   9.573  21.696  0.00  0.00    +0.000 A 
ATOM     26  C   UNL     1       0.865  10.381  20.553  0.00  0.00    +0.000 A 
ATOM     27  C   UNL     1       1.264   9.812  19.330  0.00  0.00    +0.000 A 
ATOM     28  C   UNL     1       1.612   8.446  19.291  0.00  0.00    +0.000 A 
BRANCH  26  29
ATOM     29  O   UNL     1       0.503  11.676  20.821  0.00  0.00    +0.000 OA
ATOM     30  C   UNL     1      -0.442  11.938  21.849  0.00  0.00    +0.000 C 
ENDBRANCH  26  29
BRANCH  27  31
ATOM     31  O   UNL     1       1.294  10.622  18.226  0.00  0.00    +0.000 OA
ATOM     32  C   UNL     1       2.365  11.543  18.074  0.00  0.00    +0.000 C 
ENDBRANCH  27  31
ENDBRANCH   4  23
TORSDOF 7
ENDMDL
MODEL 5
REMARK VINA RESULT:      -7.0      1.601      1.944
REMARK  Name = 
REMARK  11 active torsions:
REMARK  status: ('A' for Active; 'I' for Inactive)
REMARK    1  A    between atoms: C_1  and  C_2
REMARK    2  A    between atoms: C_2  and  O_3
REMARK    3  A    between atoms: O_3  and  C_4
REMARK    4  A    between atoms: C_4  and  C_6
REMARK    5  A    between atoms: C_10  and  C_12
REMARK    6  A    between atoms: C_15  and  C_16
REMARK    7  A    between atoms: C_19  and  O_20
REMARK    8  A    between atoms: O_20  and  C_21
REMARK    9  A    between atoms: C_22  and  O_23
REMARK   10  A    between atoms: O_23  and  C_24
REMARK   11  A    between atoms: N_27  and  C_28
REMARK                            x       y       z     vdW  Elec       q    Type
REMARK                         _______ _______ _______ _____ _____    ______ ____
ROOT
ATOM      1  C   UNL     1       5.765   5.519  16.956  0.00  0.00    +0.000 A 
ATOM      2  C   UNL     1       4.727   6.402  17.292  0.00  0.00    +0.000 A 
ATOM      3  C   UNL     1       3.994   5.878  18.354  0.00  0.00    +0.000 A 
ATOM      4  C   UNL     1       2.918   6.272  19.163  0.00  0.00    +0.000 A 
ATOM      5  N   UNL     1       2.593   5.222  19.968  0.00  0.00    +0.000 NA
ATOM      6  N   UNL     1       3.490   4.242  19.651  0.00  0.00    +0.000 N 
ATOM      7  C   UNL     1       3.399   2.929  20.238  0.00  0.00    +0.000 C 
ATOM      8  C   UNL     1       4.361   4.646  18.708  0.00  0.00    +0.000 A 
ATOM      9  S   UNL     1       5.659   4.033  17.890  0.00  0.00    +0.000 S 
ENDROOT
BRANCH   1  14
ATOM     10  C   UNL     1       6.262   4.129  12.089  0.00  0.00    +0.000 C 
ATOM     11  C   UNL     1       7.408   5.068  12.514  0.00  0.00    +0.000 C 
ATOM     12  C   UNL     1       7.935   4.766  13.919  0.00  0.00    +0.000 C 
ATOM     13  N   UNL     1       6.840   4.697  14.887  0.00  0.00    +0.000 N 
ATOM     14  C   UNL     1       6.836   5.595  15.965  0.00  0.00    +0.000 C 
ATOM     15  O   UNL     1       7.724   6.446  16.050  0.00  0.00    +0.000 OA
ATOM     16  C   UNL     1       5.796   3.738  14.549  0.00  0.00    +0.000 C 
ATOM     17  C   UNL     1       5.195   4.044  13.181  0.00  0.00    +0.000 C 
BRANCH  10  18
ATOM     18  C   UNL     1       6.793   2.749  11.749  0.00  0.00    +0.000 C 
ATOM     19  O   UNL     1       7.963   2.491  11.486  0.00  0.00    +0.000 OA
BRANCH  18  20
ATOM     20  O   UNL     1       5.768   1.860  11.708  0.00  0.00    +0.000 OA
BRANCH  20  22
ATOM     21  C   UNL     1       6.053  -0.486  11.466  0.00  0.00    +0.000 C 
ATOM     22  C   UNL     1       5.909   0.830  10.724  0.00  0.00    +0.000 C 
ENDBRANCH  20  22
ENDBRANCH  18  20
ENDBRANCH  10  18
ENDBRANCH   1  14
BRANCH   4  23
ATOM     23  C   UNL     1       2.198   7.549  19.252  0.00  0.00    +0.000 A 
ATOM     24  C   UNL     1       2.214   8.437  18.175  0.00  0.00    +0.000 A 
ATOM     25  C   UNL     1       1.509   9.641  18.242  0.00  0.00    +0.000 A 
ATOM     26  C   UNL     1       0.772   9.992  19.379  0.00  0.00    +0.000 A 
ATOM     27  C   UNL     1       0.742   9.110  20.474  0.00  0.00    +0.000 A 
ATOM     28  C   UNL     1       1.450   7.893  20.392  0.00  0.00    +0.000 A 
BRANCH  26  29
ATOM     29  O   UNL     1       0.152  11.208  19.237  0.00  0.00    +0.000 OA
ATOM     30  C   UNL     1       0.912  12.336  18.827  0.00  0.00    +0.000 C 
ENDBRANCH  26  29
BRANCH  27  31
ATOM     31  O   UNL     1       0.020   9.482  21.577  0.00  0.00    +0.000 OA
ATOM     32  C   UNL     1       0.666   9.529  22.841  0.00  0.00    +0.000 C 
ENDBRANCH  27  31
ENDBRANCH   4  23
TORSDOF 7
ENDMDL
MODEL 6
REMARK VINA RESULT:      -6.9      2.226      8.878
REMARK  Name = 
REMARK  11 active torsions:
REMARK  status: ('A' for Active; 'I' for Inactive)
REMARK    1  A    between atoms: C_1  and  C_2
REMARK    2  A    between atoms: C_2  and  O_3
REMARK    3  A    between atoms: O_3  and  C_4
REMARK    4  A    between atoms: C_4  and  C_6
REMARK    5  A    between atoms: C_10  and  C_12
REMARK    6  A    between atoms: C_15  and  C_16
REMARK    7  A    between atoms: C_19  and  O_20
REMARK    8  A    between atoms: O_20  and  C_21
REMARK    9  A    between atoms: C_22  and  O_23
REMARK   10  A    between atoms: O_23  and  C_24
REMARK   11  A    between atoms: N_27  and  C_28
REMARK                            x       y       z     vdW  Elec       q    Type
REMARK                         _______ _______ _______ _____ _____    ______ ____
ROOT
ATOM      1  C   UNL     1       1.842   7.566  20.390  0.00  0.00    +0.000 A 
ATOM      2  C   UNL     1       2.902   7.182  19.555  0.00  0.00    +0.000 A 
ATOM      3  C   UNL     1       2.720   5.862  19.147  0.00  0.00    +0.000 A 
ATOM      4  C   UNL     1       3.358   4.943  18.301  0.00  0.00    +0.000 A 
ATOM      5  N   UNL     1       2.726   3.744  18.434  0.00  0.00    +0.000 NA
ATOM      6  N   UNL     1       1.716   3.972  19.324  0.00  0.00    +0.000 N 
ATOM      7  C   UNL     1       0.877   2.899  19.794  0.00  0.00    +0.000 C 
ATOM      8  C   UNL     1       1.683   5.257  19.725  0.00  0.00    +0.000 A 
ATOM      9  S   UNL     1       0.776   6.209  20.725  0.00  0.00    +0.000 S 
ENDROOT
BRANCH   1  14
ATOM     10  C   UNL     1      -1.454  11.338  19.507  0.00  0.00    +0.000 C 
ATOM     11  C   UNL     1      -0.860  11.446  20.925  0.00  0.00    +0.000 C 
ATOM     12  C   UNL     1       0.638  11.132  20.968  0.00  0.00    +0.000 C 
ATOM     13  N   UNL     1       0.928   9.862  20.303  0.00  0.00    +0.000 N 
ATOM     14  C   UNL     1       1.520   8.831  21.048  0.00  0.00    +0.000 C 
ATOM     15  O   UNL     1       1.740   8.999  22.249  0.00  0.00    +0.000 OA
ATOM     16  C   UNL     1       0.460   9.783  18.925  0.00  0.00    +0.000 C 
ATOM     17  C   UNL     1      -1.044  10.022  18.844  0.00  0.00    +0.000 C 
BRANCH  10  18
ATOM     18  C   UNL     1      -1.035  12.521  18.655  0.00  0.00    +0.000 C 
ATOM     19  O   UNL     1      -0.948  12.511  17.432  0.00  0.00    +0.000 OA
BRANCH  18  20
ATOM     20  O   UNL     1      -0.703  13.568  19.454  0.00  0.00    +0.000 OA
BRANCH  20  22
ATOM     21  C   UNL     1      -0.253  15.804  18.790  0.00  0.00    +0.000 C 
ATOM     22  C   UNL     1       0.331  14.411  18.935  0.00  0.00    +0.000 C 
ENDBRANCH  20  22
ENDBRANCH  18  20
ENDBRANCH  10  18
ENDBRANCH   1  14
BRANCH   4  23
ATOM     23  C   UNL     1       4.484   5.110  17.373  0.00  0.00    +0.000 A 
ATOM     24  C   UNL     1       4.581   4.300  16.240  0.00  0.00    +0.000 A 
ATOM     25  C   UNL     1       5.634   4.471  15.338  0.00  0.00    +0.000 A 
ATOM     26  C   UNL     1       6.615   5.448  15.539  0.00  0.00    +0.000 A 
ATOM     27  C   UNL     1       6.534   6.275  16.674  0.00  0.00    +0.000 A 
ATOM     28  C   UNL     1       5.461   6.101  17.574  0.00  0.00    +0.000 A 
BRANCH  26  29
ATOM     29  O   UNL     1       7.552   5.454  14.538  0.00  0.00    +0.000 OA
ATOM     30  C   UNL     1       7.292   4.745  13.334  0.00  0.00    +0.000 C 
ENDBRANCH  26  29
BRANCH  27  31
ATOM     31  O   UNL     1       7.512   7.218  16.852  0.00  0.00    +0.000 OA
ATOM     32  C   UNL     1       7.969   7.500  18.167  0.00  0.00    +0.000 C 
ENDBRANCH  27  31
ENDBRANCH   4  23
TORSDOF 7
ENDMDL
MODEL 7
REMARK VINA RESULT:      -6.7      1.621      2.467
REMARK  Name = 
REMARK  11 active torsions:
REMARK  status: ('A' for Active; 'I' for Inactive)
REMARK    1  A    between atoms: C_1  and  C_2
REMARK    2  A    between atoms: C_2  and  O_3
REMARK    3  A    between atoms: O_3  and  C_4
REMARK    4  A    between atoms: C_4  and  C_6
REMARK    5  A    between atoms: C_10  and  C_12
REMARK    6  A    between atoms: C_15  and  C_16
REMARK    7  A    between atoms: C_19  and  O_20
REMARK    8  A    between atoms: O_20  and  C_21
REMARK    9  A    between atoms: C_22  and  O_23
REMARK   10  A    between atoms: O_23  and  C_24
REMARK   11  A    between atoms: N_27  and  C_28
REMARK                            x       y       z     vdW  Elec       q    Type
REMARK                         _______ _______ _______ _____ _____    ______ ____
ROOT
ATOM      1  C   UNL     1       5.617   5.410  17.077  0.00  0.00    +0.000 A 
ATOM      2  C   UNL     1       4.605   6.274  17.522  0.00  0.00    +0.000 A 
ATOM      3  C   UNL     1       3.888   5.663  18.548  0.00  0.00    +0.000 A 
ATOM      4  C   UNL     1       2.840   5.996  19.419  0.00  0.00    +0.000 A 
ATOM      5  N   UNL     1       2.516   4.879  20.129  0.00  0.00    +0.000 NA
ATOM      6  N   UNL     1       3.385   3.919  19.696  0.00  0.00    +0.000 N 
ATOM      7  C   UNL     1       3.283   2.558  20.157  0.00  0.00    +0.000 C 
ATOM      8  C   UNL     1       4.240   4.397  18.773  0.00  0.00    +0.000 A 
ATOM      9  S   UNL     1       5.506   3.843  17.867  0.00  0.00    +0.000 S 
ENDROOT
BRANCH   1  14
ATOM     10  C   UNL     1       6.115   4.113  12.184  0.00  0.00    +0.000 C 
ATOM     11  C   UNL     1       7.209   5.114  12.602  0.00  0.00    +0.000 C 
ATOM     12  C   UNL     1       7.777   4.826  13.995  0.00  0.00    +0.000 C 
ATOM     13  N   UNL     1       6.704   4.679  14.979  0.00  0.00    +0.000 N 
ATOM     14  C   UNL     1       6.665   5.562  16.069  0.00  0.00    +0.000 C 
ATOM     15  O   UNL     1       7.502   6.464  16.151  0.00  0.00    +0.000 OA
ATOM     16  C   UNL     1       5.714   3.664  14.645  0.00  0.00    +0.000 C 
ATOM     17  C   UNL     1       5.073   3.951  13.291  0.00  0.00    +0.000 C 
BRANCH  10  18
ATOM     18  C   UNL     1       6.721   2.772  11.817  0.00  0.00    +0.000 C 
ATOM     19  O   UNL     1       7.901   2.587  11.537  0.00  0.00    +0.000 OA
BRANCH  18  20
ATOM     20  O   UNL     1       5.750   1.825  11.773  0.00  0.00    +0.000 OA
BRANCH  20  22
ATOM     21  C   UNL     1       6.069  -0.510  11.472  0.00  0.00    +0.000 C 
ATOM     22  C   UNL     1       5.933   0.826  10.765  0.00  0.00    +0.000 C 
ENDBRANCH  20  22
ENDBRANCH  18  20
ENDBRANCH  10  18
ENDBRANCH   1  14
BRANCH   4  23
ATOM     23  C   UNL     1       2.147   7.270  19.648  0.00  0.00    +0.000 A 
ATOM     24  C   UNL     1       1.544   7.525  20.880  0.00  0.00    +0.000 A 
ATOM     25  C   UNL     1       0.906   8.746  21.115  0.00  0.00    +0.000 A 
ATOM     26  C   UNL     1       0.852   9.741  20.133  0.00  0.00    +0.000 A 
ATOM     27  C   UNL     1       1.455   9.503  18.884  0.00  0.00    +0.000 A 
ATOM     28  C   UNL     1       2.104   8.271  18.661  0.00  0.00    +0.000 A 
BRANCH  26  29
ATOM     29  O   UNL     1       0.188  10.860  20.567  0.00  0.00    +0.000 OA
ATOM     30  C   UNL     1      -0.557  10.805  21.775  0.00  0.00    +0.000 C 
ENDBRANCH  26  29
BRANCH  27  31
ATOM     31  O   UNL     1       1.380  10.490  17.938  0.00  0.00    +0.000 OA
ATOM     32  C   UNL     1       2.273  11.592  18.016  0.00  0.00    +0.000 C 
ENDBRANCH  27  31
ENDBRANCH   4  23
TORSDOF 7
ENDMDL
MODEL 8
REMARK VINA RESULT:      -6.6      4.847     11.687
REMARK  Name = 
REMARK  11 active torsions:
REMARK  status: ('A' for Active; 'I' for Inactive)
REMARK    1  A    between atoms: C_1  and  C_2
REMARK    2  A    between atoms: C_2  and  O_3
REMARK    3  A    between atoms: O_3  and  C_4
REMARK    4  A    between atoms: C_4  and  C_6
REMARK    5  A    between atoms: C_10  and  C_12
REMARK    6  A    between atoms: C_15  and  C_16
REMARK    7  A    between atoms: C_19  and  O_20
REMARK    8  A    between atoms: O_20  and  C_21
REMARK    9  A    between atoms: C_22  and  O_23
REMARK   10  A    between atoms: O_23  and  C_24
REMARK   11  A    between atoms: N_27  and  C_28
REMARK                            x       y       z     vdW  Elec       q    Type
REMARK                         _______ _______ _______ _____ _____    ______ ____
ROOT
ATOM      1  C   UNL     1      -2.090  11.428  18.357  0.00  0.00    +0.000 A 
ATOM      2  C   UNL     1      -1.265  10.304  18.511  0.00  0.00    +0.000 A 
ATOM      3  C   UNL     1       0.060  10.713  18.649  0.00  0.00    +0.000 A 
ATOM      4  C   UNL     1       1.308  10.116  18.883  0.00  0.00    +0.000 A 
ATOM      5  N   UNL     1       2.260  11.086  18.784  0.00  0.00    +0.000 NA
ATOM      6  N   UNL     1       1.569  12.235  18.525  0.00  0.00    +0.000 N 
ATOM      7  C   UNL     1       2.254  13.474  18.257  0.00  0.00    +0.000 C 
ATOM      8  C   UNL     1       0.241  12.023  18.483  0.00  0.00    +0.000 A 
ATOM      9  S   UNL     1      -1.138  12.902  18.245  0.00  0.00    +0.000 S 
ENDROOT
BRANCH   1  14
ATOM     10  C   UNL     1      -5.674  14.135  20.742  0.00  0.00    +0.000 C 
ATOM     11  C   UNL     1      -6.214  13.547  19.424  0.00  0.00    +0.000 C 
ATOM     12  C   UNL     1      -5.746  12.111  19.177  0.00  0.00    +0.000 C 
ATOM     13  N   UNL     1      -4.294  12.000  19.322  0.00  0.00    +0.000 N 
ATOM     14  C   UNL     1      -3.538  11.571  18.220  0.00  0.00    +0.000 C 
ATOM     15  O   UNL     1      -4.103  11.342  17.148  0.00  0.00    +0.000 OA
ATOM     16  C   UNL     1      -3.779  12.460  20.605  0.00  0.00    +0.000 C 
ATOM     17  C   UNL     1      -4.166  13.913  20.861  0.00  0.00    +0.000 C 
BRANCH  10  18
ATOM     18  C   UNL     1      -6.400  13.541  21.935  0.00  0.00    +0.000 C 
ATOM     19  O   UNL     1      -7.435  12.887  21.874  0.00  0.00    +0.000 OA
BRANCH  18  20
ATOM     20  O   UNL     1      -5.771  13.904  23.083  0.00  0.00    +0.000 OA
BRANCH  20  22
ATOM     21  C   UNL     1      -4.331  12.565  24.415  0.00  0.00    +0.000 C 
ATOM     22  C   UNL     1      -5.777  12.907  24.109  0.00  0.00    +0.000 C 
ENDBRANCH  20  22
ENDBRANCH  18  20
ENDBRANCH  10  18
ENDBRANCH   1  14
BRANCH   4  23
ATOM     23  C   UNL     1       1.666   8.731  19.212  0.00  0.00    +0.000 A 
ATOM     24  C   UNL     1       1.335   8.201  20.460  0.00  0.00    +0.000 A 
ATOM     25  C   UNL     1       1.648   6.875  20.770  0.00  0.00    +0.000 A 
ATOM     26  C   UNL     1       2.298   6.045  19.849  0.00  0.00    +0.000 A 
ATOM     27  C   UNL     1       2.640   6.560  18.586  0.00  0.00    +0.000 A 
ATOM     28  C   UNL     1       2.310   7.897  18.279  0.00  0.00    +0.000 A 
BRANCH  26  29
ATOM     29  O   UNL     1       2.506   4.784  20.348  0.00  0.00    +0.000 OA
ATOM     30  C   UNL     1       1.424   3.865  20.397  0.00  0.00    +0.000 C 
ENDBRANCH  26  29
BRANCH  27  31
ATOM     31  O   UNL     1       3.282   5.730  17.707  0.00  0.00    +0.000 OA
ATOM     32  C   UNL     1       4.463   6.186  17.063  0.00  0.00    +0.000 C 
ENDBRANCH  27  31
ENDBRANCH   4  23
TORSDOF 7
ENDMDL
MODEL 9
REMARK VINA RESULT:      -6.5      1.993      8.784
REMARK  Name = 
REMARK  11 active torsions:
REMARK  status: ('A' for Active; 'I' for Inactive)
REMARK    1  A    between atoms: C_1  and  C_2
REMARK    2  A    between atoms: C_2  and  O_3
REMARK    3  A    between atoms: O_3  and  C_4
REMARK    4  A    between atoms: C_4  and  C_6
REMARK    5  A    between atoms: C_10  and  C_12
REMARK    6  A    between atoms: C_15  and  C_16
REMARK    7  A    between atoms: C_19  and  O_20
REMARK    8  A    between atoms: O_20  and  C_21
REMARK    9  A    between atoms: C_22  and  O_23
REMARK   10  A    between atoms: O_23  and  C_24
REMARK   11  A    between atoms: N_27  and  C_28
REMARK                            x       y       z     vdW  Elec       q    Type
REMARK                         _______ _______ _______ _____ _____    ______ ____
ROOT
ATOM      1  C   UNL     1       2.106   6.116  19.847  0.00  0.00    +0.000 A 
ATOM      2  C   UNL     1       3.190   5.965  18.969  0.00  0.00    +0.000 A 
ATOM      3  C   UNL     1       3.216   4.660  18.482  0.00  0.00    +0.000 A 
ATOM      4  C   UNL     1       3.973   3.912  17.567  0.00  0.00    +0.000 A 
ATOM      5  N   UNL     1       3.552   2.618  17.637  0.00  0.00    +0.000 NA
ATOM      6  N   UNL     1       2.545   2.621  18.559  0.00  0.00    +0.000 N 
ATOM      7  C   UNL     1       1.910   1.397  18.976  0.00  0.00    +0.000 C 
ATOM      8  C   UNL     1       2.312   3.856  19.041  0.00  0.00    +0.000 A 
ATOM      9  S   UNL     1       1.289   4.583  20.117  0.00  0.00    +0.000 S 
ENDROOT
BRANCH   1  14
ATOM     10  C   UNL     1       0.395  10.736  18.584  0.00  0.00    +0.000 C 
ATOM     11  C   UNL     1       0.048  10.402  20.048  0.00  0.00    +0.000 C 
ATOM     12  C   UNL     1       1.189   9.692  20.782  0.00  0.00    +0.000 C 
ATOM     13  N   UNL     1       1.675   8.545  20.014  0.00  0.00    +0.000 N 
ATOM     14  C   UNL     1       1.598   7.268  20.590  0.00  0.00    +0.000 C 
ATOM     15  O   UNL     1       1.086   7.134  21.703  0.00  0.00    +0.000 OA
ATOM     16  C   UNL     1       2.102   8.866  18.658  0.00  0.00    +0.000 C 
ATOM     17  C   UNL     1       0.970   9.514  17.867  0.00  0.00    +0.000 C 
BRANCH  10  18
ATOM     18  C   UNL     1       1.360  11.905  18.512  0.00  0.00    +0.000 C 
ATOM     19  O   UNL     1       2.454  11.879  17.958  0.00  0.00    +0.000 OA
BRANCH  18  20
ATOM     20  O   UNL     1       0.863  12.955  19.213  0.00  0.00    +0.000 OA
BRANCH  20  22
ATOM     21  C   UNL     1      -0.426  14.944  19.381  0.00  0.00    +0.000 C 
ATOM     22  C   UNL     1      -0.084  13.757  18.499  0.00  0.00    +0.000 C 
ENDBRANCH  20  22
ENDBRANCH  18  20
ENDBRANCH  10  18
ENDBRANCH   1  14
BRANCH   4  23
ATOM     23  C   UNL     1       5.027   4.319  16.630  0.00  0.00    +0.000 A 
ATOM     24  C   UNL     1       5.912   5.341  16.976  0.00  0.00    +0.000 A 
ATOM     25  C   UNL     1       6.936   5.715  16.101  0.00  0.00    +0.000 A 
ATOM     26  C   UNL     1       7.103   5.084  14.863  0.00  0.00    +0.000 A 
ATOM     27  C   UNL     1       6.222   4.051  14.496  0.00  0.00    +0.000 A 
ATOM     28  C   UNL     1       5.198   3.674  15.392  0.00  0.00    +0.000 A 
BRANCH  26  29
ATOM     29  O   UNL     1       8.166   5.595  14.162  0.00  0.00    +0.000 OA
ATOM     30  C   UNL     1       8.075   5.724  12.750  0.00  0.00    +0.000 C 
ENDBRANCH  26  29
BRANCH  27  31
ATOM     31  O   UNL     1       6.402   3.456  13.276  0.00  0.00    +0.000 OA
ATOM     32  C   UNL     1       5.311   3.394  12.369  0.00  0.00    +0.000 C 
ENDBRANCH  27  31
ENDBRANCH   4  23
TORSDOF 7
ENDMDL
