MODEL 1
REMARK VINA RESULT:      -8.8      0.000      0.000
REMARK  Name = 
REMARK  7 active torsions:
REMARK  status: ('A' for Active; 'I' for Inactive)
REMARK    1  A    between atoms: C_1  and  C_2
REMARK    2  A    between atoms: C_3  and  C_4
REMARK    3  A    between atoms: C_7  and  C_8
REMARK    4  A    between atoms: C_10  and  O_11
REMARK    5  A    between atoms: C_12  and  O_13
REMARK    6  A    between atoms: C_14  and  N_15
REMARK    7  A    between atoms: C_22  and  C_23
REMARK                            x       y       z     vdW  Elec       q    Type
REMARK                         _______ _______ _______ _____ _____    ______ ____
ROOT
ATOM      1  C   UNL     1       1.323   9.412  18.963  0.00  0.00    +0.000 A 
ATOM      2  N   UNL     1       1.683   9.919  17.776  0.00  0.00    +0.000 NA
ATOM      3  O   UNL     1       2.430   8.901  17.192  0.00  0.00    +0.000 OA
ATOM      4  C   UNL     1       2.487   7.889  18.103  0.00  0.00    +0.000 A 
ATOM      5  N   UNL     1       1.827   8.152  19.208  0.00  0.00    +0.000 NA
ENDROOT
BRANCH   1   8
ATOM      6  C   UNL     1       1.534   8.845  21.981  0.00  0.00    +0.000 C 
ATOM      7  C   UNL     1       0.620   9.853  21.348  0.00  0.00    +0.000 A 
ATOM      8  C   UNL     1       0.554  10.137  19.968  0.00  0.00    +0.000 A 
ATOM      9  C   UNL     1      -0.301  11.155  19.527  0.00  0.00    +0.000 A 
ATOM     10  C   UNL     1      -1.104  11.848  20.424  0.00  0.00    +0.000 A 
ATOM     11  C   UNL     1      -1.060  11.531  21.787  0.00  0.00    +0.000 A 
ATOM     12  N   UNL     1      -0.204  10.550  22.252  0.00  0.00    +0.000 N 
ATOM     13  O   UNL     1      -0.157  10.278  23.493  0.00  0.00    +0.000 OA
BRANCH  11  14
ATOM     14  C   UNL     1      -1.900  12.209  22.813  0.00  0.00    +0.000 C 
ATOM     15  F   UNL     1      -2.854  13.004  22.232  0.00  0.00    +0.000 F 
ATOM     16  F   UNL     1      -2.606  11.358  23.607  0.00  0.00    +0.000 F 
ATOM     17  F   UNL     1      -1.208  13.048  23.629  0.00  0.00    +0.000 F 
ENDBRANCH  11  14
ENDBRANCH   1   8
BRANCH   4  18
ATOM     18  C   UNL     1       3.298   6.727  17.761  0.00  0.00    +0.000 A 
ATOM     19  C   UNL     1       4.526   6.923  17.102  0.00  0.00    +0.000 A 
ATOM     20  C   UNL     1       5.293   5.829  16.709  0.00  0.00    +0.000 A 
ATOM     21  C   UNL     1       4.866   4.527  16.957  0.00  0.00    +0.000 A 
ATOM     22  C   UNL     1       3.660   4.334  17.616  0.00  0.00    +0.000 A 
ATOM     23  C   UNL     1       2.872   5.416  18.031  0.00  0.00    +0.000 A 
BRANCH  22  24
ATOM     24  N   UNL     1       3.172   2.995  17.874  0.00  0.00    +0.000 N 
ATOM     25  O   UNL     1       3.853   2.276  18.618  0.00  0.00    +0.000 OA
ATOM     26  O   UNL     1       2.159   2.645  17.256  0.00  0.00    +0.000 OA
ENDBRANCH  22  24
BRANCH  20  27
ATOM     27  O   UNL     1       6.487   5.989  16.060  0.00  0.00    +0.000 OA
ATOM     28  H   UNL     1       6.968   5.141  16.064  0.00  0.00    +0.000 HD
ENDBRANCH  20  27
BRANCH  21  29
ATOM     29  O   UNL     1       5.656   3.489  16.556  0.00  0.00    +0.000 OA
ATOM     30  H   UNL     1       5.410   2.732  17.126  0.00  0.00    +0.000 HD
ENDBRANCH  21  29
ENDBRANCH   4  18
TORSDOF 6
ENDMDL
MODEL 2
REMARK VINA RESULT:      -8.7      1.045      2.234
REMARK  Name = 
REMARK  7 active torsions:
REMARK  status: ('A' for Active; 'I' for Inactive)
REMARK    1  A    between atoms: C_1  and  C_2
REMARK    2  A    between atoms: C_3  and  C_4
REMARK    3  A    between atoms: C_7  and  C_8
REMARK    4  A    between atoms: C_10  and  O_11
REMARK    5  A    between atoms: C_12  and  O_13
REMARK    6  A    between atoms: C_14  and  N_15
REMARK    7  A    between atoms: C_22  and  C_23
REMARK                            x       y       z     vdW  Elec       q    Type
REMARK                         _______ _______ _______ _____ _____    ______ ____
ROOT
ATOM      1  C   UNL     1       1.340   9.440  18.964  0.00  0.00    +0.000 A 
ATOM      2  N   UNL     1       1.708   9.971  17.791  0.00  0.00    +0.000 NA
ATOM      3  O   UNL     1       2.475   8.973  17.199  0.00  0.00    +0.000 OA
ATOM      4  C   UNL     1       2.534   7.946  18.094  0.00  0.00    +0.000 A 
ATOM      5  N   UNL     1       1.857   8.183  19.195  0.00  0.00    +0.000 NA
ENDROOT
BRANCH   1   8
ATOM      6  C   UNL     1       1.602   8.904  21.984  0.00  0.00    +0.000 C 
ATOM      7  C   UNL     1       0.640   9.868  21.353  0.00  0.00    +0.000 A 
ATOM      8  C   UNL     1       0.550  10.139  19.972  0.00  0.00    +0.000 A 
ATOM      9  C   UNL     1      -0.352  11.117  19.532  0.00  0.00    +0.000 A 
ATOM     10  C   UNL     1      -1.176  11.781  20.432  0.00  0.00    +0.000 A 
ATOM     11  C   UNL     1      -1.106  11.476  21.796  0.00  0.00    +0.000 A 
ATOM     12  N   UNL     1      -0.204  10.536  22.260  0.00  0.00    +0.000 N 
ATOM     13  O   UNL     1      -0.135  10.275  23.502  0.00  0.00    +0.000 OA
BRANCH  11  14
ATOM     14  C   UNL     1      -1.965  12.124  22.825  0.00  0.00    +0.000 C 
ATOM     15  F   UNL     1      -2.968  12.859  22.247  0.00  0.00    +0.000 F 
ATOM     16  F   UNL     1      -2.613  11.251  23.642  0.00  0.00    +0.000 F 
ATOM     17  F   UNL     1      -1.306  13.011  23.618  0.00  0.00    +0.000 F 
ENDBRANCH  11  14
ENDBRANCH   1   8
BRANCH   4  18
ATOM     18  C   UNL     1       3.364   6.800  17.743  0.00  0.00    +0.000 A 
ATOM     19  C   UNL     1       2.808   5.509  17.814  0.00  0.00    +0.000 A 
ATOM     20  C   UNL     1       3.595   4.392  17.544  0.00  0.00    +0.000 A 
ATOM     21  C   UNL     1       4.937   4.526  17.200  0.00  0.00    +0.000 A 
ATOM     22  C   UNL     1       5.482   5.800  17.120  0.00  0.00    +0.000 A 
ATOM     23  C   UNL     1       4.712   6.943  17.377  0.00  0.00    +0.000 A 
BRANCH  22  24
ATOM     24  N   UNL     1       6.879   5.979  16.784  0.00  0.00    +0.000 N 
ATOM     25  O   UNL     1       7.596   6.548  17.618  0.00  0.00    +0.000 OA
ATOM     26  O   UNL     1       7.225   5.631  15.648  0.00  0.00    +0.000 OA
ENDBRANCH  22  24
BRANCH  20  27
ATOM     27  O   UNL     1       3.084   3.124  17.613  0.00  0.00    +0.000 OA
ATOM     28  H   UNL     1       2.408   3.091  18.313  0.00  0.00    +0.000 HD
ENDBRANCH  20  27
BRANCH  21  29
ATOM     29  O   UNL     1       5.664   3.401  16.940  0.00  0.00    +0.000 OA
ATOM     30  H   UNL     1       6.058   3.134  17.795  0.00  0.00    +0.000 HD
ENDBRANCH  21  29
ENDBRANCH   4  18
TORSDOF 6
ENDMDL
MODEL 3
REMARK VINA RESULT:      -8.6      1.113      2.105
REMARK  Name = 
REMARK  7 active torsions:
REMARK  status: ('A' for Active; 'I' for Inactive)
REMARK    1  A    between atoms: C_1  and  C_2
REMARK    2  A    between atoms: C_3  and  C_4
REMARK    3  A    between atoms: C_7  and  C_8
REMARK    4  A    between atoms: C_10  and  O_11
REMARK    5  A    between atoms: C_12  and  O_13
REMARK    6  A    between atoms: C_14  and  N_15
REMARK    7  A    between atoms: C_22  and  C_23
REMARK                            x       y       z     vdW  Elec       q    Type
REMARK                         _______ _______ _______ _____ _____    ______ ____
ROOT
ATOM      1  C   UNL     1       1.316   9.288  19.096  0.00  0.00    +0.000 A 
ATOM      2  N   UNL     1       1.917   9.742  17.988  0.00  0.00    +0.000 NA
ATOM      3  O   UNL     1       2.554   8.619  17.470  0.00  0.00    +0.000 OA
ATOM      4  C   UNL     1       2.312   7.599  18.341  0.00  0.00    +0.000 A 
ATOM      5  N   UNL     1       1.560   7.957  19.358  0.00  0.00    +0.000 NA
ENDROOT
BRANCH   1   8
ATOM      6  C   UNL     1       1.403   8.943  22.153  0.00  0.00    +0.000 C 
ATOM      7  C   UNL     1       0.558   9.939  21.415  0.00  0.00    +0.000 A 
ATOM      8  C   UNL     1       0.549  10.121  20.016  0.00  0.00    +0.000 A 
ATOM      9  C   UNL     1      -0.243  11.139  19.470  0.00  0.00    +0.000 A 
ATOM     10  C   UNL     1      -1.041  11.933  20.284  0.00  0.00    +0.000 A 
ATOM     11  C   UNL     1      -1.056  11.718  21.667  0.00  0.00    +0.000 A 
ATOM     12  N   UNL     1      -0.261  10.739  22.235  0.00  0.00    +0.000 N 
ATOM     13  O   UNL     1      -0.268  10.561  23.493  0.00  0.00    +0.000 OA
BRANCH  11  14
ATOM     14  C   UNL     1      -1.896  12.508  22.610  0.00  0.00    +0.000 C 
ATOM     15  F   UNL     1      -2.667  13.425  21.943  0.00  0.00    +0.000 F 
ATOM     16  F   UNL     1      -2.789  11.766  23.318  0.00  0.00    +0.000 F 
ATOM     17  F   UNL     1      -1.183  13.247  23.501  0.00  0.00    +0.000 F 
ENDBRANCH  11  14
ENDBRANCH   1   8
BRANCH   4  18
ATOM     18  C   UNL     1       2.954   6.319  18.067  0.00  0.00    +0.000 A 
ATOM     19  C   UNL     1       2.149   5.195  17.808  0.00  0.00    +0.000 A 
ATOM     20  C   UNL     1       2.733   3.947  17.603  0.00  0.00    +0.000 A 
ATOM     21  C   UNL     1       4.115   3.785  17.649  0.00  0.00    +0.000 A 
ATOM     22  C   UNL     1       4.910   4.897  17.894  0.00  0.00    +0.000 A 
ATOM     23  C   UNL     1       4.350   6.166  18.094  0.00  0.00    +0.000 A 
BRANCH  22  24
ATOM     24  N   UNL     1       6.350   4.766  17.968  0.00  0.00    +0.000 N 
ATOM     25  O   UNL     1       6.949   4.482  16.922  0.00  0.00    +0.000 OA
ATOM     26  O   UNL     1       6.857   4.858  19.093  0.00  0.00    +0.000 OA
ENDBRANCH  22  24
BRANCH  20  27
ATOM     27  O   UNL     1       1.975   2.834  17.358  0.00  0.00    +0.000 OA
ATOM     28  H   UNL     1       2.212   2.139  17.998  0.00  0.00    +0.000 HD
ENDBRANCH  20  27
BRANCH  21  29
ATOM     29  O   UNL     1       4.638   2.543  17.436  0.00  0.00    +0.000 OA
ATOM     30  H   UNL     1       4.738   2.459  16.466  0.00  0.00    +0.000 HD
ENDBRANCH  21  29
ENDBRANCH   4  18
TORSDOF 6
ENDMDL
MODEL 4
REMARK VINA RESULT:      -8.5      2.300      2.899
REMARK  Name = 
REMARK  7 active torsions:
REMARK  status: ('A' for Active; 'I' for Inactive)
REMARK    1  A    between atoms: C_1  and  C_2
REMARK    2  A    between atoms: C_3  and  C_4
REMARK    3  A    between atoms: C_7  and  C_8
REMARK    4  A    between atoms: C_10  and  O_11
REMARK    5  A    between atoms: C_12  and  O_13
REMARK    6  A    between atoms: C_14  and  N_15
REMARK    7  A    between atoms: C_22  and  C_23
REMARK                            x       y       z     vdW  Elec       q    Type
REMARK                         _______ _______ _______ _____ _____    ______ ____
ROOT
ATOM      1  C   UNL     1       1.552   9.122  18.765  0.00  0.00    +0.000 A 
ATOM      2  N   UNL     1       2.206   9.069  17.598  0.00  0.00    +0.000 NA
ATOM      3  O   UNL     1       2.830   7.826  17.622  0.00  0.00    +0.000 OA
ATOM      4  C   UNL     1       2.528   7.263  18.825  0.00  0.00    +0.000 A 
ATOM      5  N   UNL     1       1.750   8.018  19.567  0.00  0.00    +0.000 NA
ENDROOT
BRANCH   1   8
ATOM      6  C   UNL     1      -1.180   9.893  17.574  0.00  0.00    +0.000 C 
ATOM      7  C   UNL     1      -0.457  10.648  18.652  0.00  0.00    +0.000 A 
ATOM      8  C   UNL     1       0.776  10.270  19.222  0.00  0.00    +0.000 A 
ATOM      9  C   UNL     1       1.300  11.037  20.271  0.00  0.00    +0.000 A 
ATOM     10  C   UNL     1       0.641  12.175  20.718  0.00  0.00    +0.000 A 
ATOM     11  C   UNL     1      -0.563  12.564  20.118  0.00  0.00    +0.000 A 
ATOM     12  N   UNL     1      -1.116  11.808  19.101  0.00  0.00    +0.000 N 
ATOM     13  O   UNL     1      -2.218  12.158  18.571  0.00  0.00    +0.000 OA
BRANCH  11  14
ATOM     14  C   UNL     1      -1.323  13.779  20.521  0.00  0.00    +0.000 C 
ATOM     15  F   UNL     1      -0.813  14.330  21.668  0.00  0.00    +0.000 F 
ATOM     16  F   UNL     1      -1.282  14.790  19.612  0.00  0.00    +0.000 F 
ATOM     17  F   UNL     1      -2.632  13.543  20.809  0.00  0.00    +0.000 F 
ENDBRANCH  11  14
ENDBRANCH   1   8
BRANCH   4  18
ATOM     18  C   UNL     1       3.144   5.978  19.136  0.00  0.00    +0.000 A 
ATOM     19  C   UNL     1       4.418   5.689  18.613  0.00  0.00    +0.000 A 
ATOM     20  C   UNL     1       5.004   4.447  18.843  0.00  0.00    +0.000 A 
ATOM     21  C   UNL     1       4.348   3.470  19.587  0.00  0.00    +0.000 A 
ATOM     22  C   UNL     1       3.096   3.759  20.111  0.00  0.00    +0.000 A 
ATOM     23  C   UNL     1       2.486   5.004  19.905  0.00  0.00    +0.000 A 
BRANCH  22  24
ATOM     24  N   UNL     1       2.374   2.763  20.875  0.00  0.00    +0.000 N 
ATOM     25  O   UNL     1       2.832   2.455  21.983  0.00  0.00    +0.000 OA
ATOM     26  O   UNL     1       1.405   2.233  20.317  0.00  0.00    +0.000 OA
ENDBRANCH  22  24
BRANCH  20  27
ATOM     27  O   UNL     1       6.239   4.135  18.341  0.00  0.00    +0.000 OA
ATOM     28  H   UNL     1       6.192   3.271  17.892  0.00  0.00    +0.000 HD
ENDBRANCH  20  27
BRANCH  21  29
ATOM     29  O   UNL     1       4.968   2.271  19.788  0.00  0.00    +0.000 OA
ATOM     30  H   UNL     1       5.384   2.331  20.672  0.00  0.00    +0.000 HD
ENDBRANCH  21  29
ENDBRANCH   4  18
TORSDOF 6
ENDMDL
MODEL 5
REMARK VINA RESULT:      -8.4      5.149      9.371
REMARK  Name = 
REMARK  7 active torsions:
REMARK  status: ('A' for Active; 'I' for Inactive)
REMARK    1  A    between atoms: C_1  and  C_2
REMARK    2  A    between atoms: C_3  and  C_4
REMARK    3  A    between atoms: C_7  and  C_8
REMARK    4  A    between atoms: C_10  and  O_11
REMARK    5  A    between atoms: C_12  and  O_13
REMARK    6  A    between atoms: C_14  and  N_15
REMARK    7  A    between atoms: C_22  and  C_23
REMARK                            x       y       z     vdW  Elec       q    Type
REMARK                         _______ _______ _______ _____ _____    ______ ____
ROOT
ATOM      1  C   UNL     1       2.561   7.379  18.729  0.00  0.00    +0.000 A 
ATOM      2  N   UNL     1       2.284   7.105  20.011  0.00  0.00    +0.000 NA
ATOM      3  O   UNL     1       1.394   8.107  20.382  0.00  0.00    +0.000 OA
ATOM      4  C   UNL     1       1.250   8.921  19.297  0.00  0.00    +0.000 A 
ATOM      5  N   UNL     1       1.948   8.521  18.258  0.00  0.00    +0.000 NA
ENDROOT
BRANCH   1   8
ATOM      6  C   UNL     1       2.434   4.320  18.416  0.00  0.00    +0.000 C 
ATOM      7  C   UNL     1       3.466   5.215  17.795  0.00  0.00    +0.000 A 
ATOM      8  C   UNL     1       3.498   6.620  17.909  0.00  0.00    +0.000 A 
ATOM      9  C   UNL     1       4.485   7.333  17.216  0.00  0.00    +0.000 A 
ATOM     10  C   UNL     1       5.444   6.669  16.461  0.00  0.00    +0.000 A 
ATOM     11  C   UNL     1       5.427   5.271  16.388  0.00  0.00    +0.000 A 
ATOM     12  N   UNL     1       4.446   4.545  17.038  0.00  0.00    +0.000 N 
ATOM     13  O   UNL     1       4.427   3.277  16.953  0.00  0.00    +0.000 OA
BRANCH  11  14
ATOM     14  C   UNL     1       6.428   4.480  15.619  0.00  0.00    +0.000 C 
ATOM     15  F   UNL     1       7.041   5.245  14.662  0.00  0.00    +0.000 F 
ATOM     16  F   UNL     1       7.451   3.993  16.372  0.00  0.00    +0.000 F 
ATOM     17  F   UNL     1       5.896   3.434  14.931  0.00  0.00    +0.000 F 
ENDBRANCH  11  14
ENDBRANCH   1   8
BRANCH   4  18
ATOM     18  C   UNL     1       0.426  10.112  19.459  0.00  0.00    +0.000 A 
ATOM     19  C   UNL     1      -0.210  10.659  18.330  0.00  0.00    +0.000 A 
ATOM     20  C   UNL     1      -0.954  11.832  18.444  0.00  0.00    +0.000 A 
ATOM     21  C   UNL     1      -1.083  12.483  19.667  0.00  0.00    +0.000 A 
ATOM     22  C   UNL     1      -0.464  11.938  20.783  0.00  0.00    +0.000 A 
ATOM     23  C   UNL     1       0.283  10.754  20.700  0.00  0.00    +0.000 A 
BRANCH  22  24
ATOM     24  N   UNL     1      -0.559  12.596  22.069  0.00  0.00    +0.000 N 
ATOM     25  O   UNL     1      -0.455  13.830  22.085  0.00  0.00    +0.000 OA
ATOM     26  O   UNL     1      -0.646  11.862  23.062  0.00  0.00    +0.000 OA
ENDBRANCH  22  24
BRANCH  20  27
ATOM     27  O   UNL     1      -1.577  12.391  17.361  0.00  0.00    +0.000 OA
ATOM     28  H   UNL     1      -1.542  11.766  16.615  0.00  0.00    +0.000 HD
ENDBRANCH  20  27
BRANCH  21  29
ATOM     29  O   UNL     1      -1.827  13.626  19.727  0.00  0.00    +0.000 OA
ATOM     30  H   UNL     1      -2.672  13.371  20.150  0.00  0.00    +0.000 HD
ENDBRANCH  21  29
ENDBRANCH   4  18
TORSDOF 6
ENDMDL
MODEL 6
REMARK VINA RESULT:      -8.4      2.018      3.101
REMARK  Name = 
REMARK  7 active torsions:
REMARK  status: ('A' for Active; 'I' for Inactive)
REMARK    1  A    between atoms: C_1  and  C_2
REMARK    2  A    between atoms: C_3  and  C_4
REMARK    3  A    between atoms: C_7  and  C_8
REMARK    4  A    between atoms: C_10  and  O_11
REMARK    5  A    between atoms: C_12  and  O_13
REMARK    6  A    between atoms: C_14  and  N_15
REMARK    7  A    between atoms: C_22  and  C_23
REMARK                            x       y       z     vdW  Elec       q    Type
REMARK                         _______ _______ _______ _____ _____    ______ ____
ROOT
ATOM      1  C   UNL     1       1.352   9.282  18.791  0.00  0.00    +0.000 A 
ATOM      2  N   UNL     1       2.040   9.460  17.656  0.00  0.00    +0.000 NA
ATOM      3  O   UNL     1       2.773   8.286  17.522  0.00  0.00    +0.000 OA
ATOM      4  C   UNL     1       2.490   7.524  18.616  0.00  0.00    +0.000 A 
ATOM      5  N   UNL     1       1.626   8.091  19.429  0.00  0.00    +0.000 NA
ENDROOT
BRANCH   1   8
ATOM      6  C   UNL     1      -1.388  10.015  17.596  0.00  0.00    +0.000 C 
ATOM      7  C   UNL     1      -0.775  10.643  18.813  0.00  0.00    +0.000 A 
ATOM      8  C   UNL     1       0.463  10.278  19.380  0.00  0.00    +0.000 A 
ATOM      9  C   UNL     1       0.879  10.907  20.561  0.00  0.00    +0.000 A 
ATOM     10  C   UNL     1       0.108  11.904  21.145  0.00  0.00    +0.000 A 
ATOM     11  C   UNL     1      -1.101  12.287  20.552  0.00  0.00    +0.000 A 
ATOM     12  N   UNL     1      -1.548  11.662  19.402  0.00  0.00    +0.000 N 
ATOM     13  O   UNL     1      -2.654  12.003  18.878  0.00  0.00    +0.000 OA
BRANCH  11  14
ATOM     14  C   UNL     1      -1.978  13.359  21.099  0.00  0.00    +0.000 C 
ATOM     15  F   UNL     1      -1.442  13.911  22.233  0.00  0.00    +0.000 F 
ATOM     16  F   UNL     1      -2.158  14.415  20.260  0.00  0.00    +0.000 F 
ATOM     17  F   UNL     1      -3.210  12.926  21.479  0.00  0.00    +0.000 F 
ENDBRANCH  11  14
ENDBRANCH   1   8
BRANCH   4  18
ATOM     18  C   UNL     1       3.211   6.265  18.758  0.00  0.00    +0.000 A 
ATOM     19  C   UNL     1       2.707   5.288  19.637  0.00  0.00    +0.000 A 
ATOM     20  C   UNL     1       3.407   4.100  19.839  0.00  0.00    +0.000 A 
ATOM     21  C   UNL     1       4.610   3.855  19.182  0.00  0.00    +0.000 A 
ATOM     22  C   UNL     1       5.100   4.815  18.308  0.00  0.00    +0.000 A 
ATOM     23  C   UNL     1       4.413   6.015  18.077  0.00  0.00    +0.000 A 
BRANCH  22  24
ATOM     24  N   UNL     1       6.357   4.605  17.620  0.00  0.00    +0.000 N 
ATOM     25  O   UNL     1       7.376   4.506  18.316  0.00  0.00    +0.000 OA
ATOM     26  O   UNL     1       6.323   4.632  16.383  0.00  0.00    +0.000 OA
ENDBRANCH  22  24
BRANCH  20  27
ATOM     27  O   UNL     1       2.946   3.135  20.693  0.00  0.00    +0.000 OA
ATOM     28  H   UNL     1       3.314   2.273  20.428  0.00  0.00    +0.000 HD
ENDBRANCH  20  27
BRANCH  21  29
ATOM     29  O   UNL     1       5.253   2.674  19.410  0.00  0.00    +0.000 OA
ATOM     30  H   UNL     1       5.588   2.726  20.329  0.00  0.00    +0.000 HD
ENDBRANCH  21  29
ENDBRANCH   4  18
TORSDOF 6
ENDMDL
MODEL 7
REMARK VINA RESULT:      -8.4      1.985      3.096
REMARK  Name = 
REMARK  7 active torsions:
REMARK  status: ('A' for Active; 'I' for Inactive)
REMARK    1  A    between atoms: C_1  and  C_2
REMARK    2  A    between atoms: C_3  and  C_4
REMARK    3  A    between atoms: C_7  and  C_8
REMARK    4  A    between atoms: C_10  and  O_11
REMARK    5  A    between atoms: C_12  and  O_13
REMARK    6  A    between atoms: C_14  and  N_15
REMARK    7  A    between atoms: C_22  and  C_23
REMARK                            x       y       z     vdW  Elec       q    Type
REMARK                         _______ _______ _______ _____ _____    ______ ____
ROOT
ATOM      1  C   UNL     1       1.232   9.556  18.641  0.00  0.00    +0.000 A 
ATOM      2  N   UNL     1       1.735   9.898  17.448  0.00  0.00    +0.000 NA
ATOM      3  O   UNL     1       2.635   8.878  17.161  0.00  0.00    +0.000 OA
ATOM      4  C   UNL     1       2.623   8.035  18.233  0.00  0.00    +0.000 A 
ATOM      5  N   UNL     1       1.781   8.408  19.171  0.00  0.00    +0.000 NA
ENDROOT
BRANCH   1   8
ATOM      6  C   UNL     1      -1.592  10.195  17.596  0.00  0.00    +0.000 C 
ATOM      7  C   UNL     1      -1.015  10.682  18.892  0.00  0.00    +0.000 A 
ATOM      8  C   UNL     1       0.265  10.356  19.387  0.00  0.00    +0.000 A 
ATOM      9  C   UNL     1       0.645  10.829  20.649  0.00  0.00    +0.000 A 
ATOM     10  C   UNL     1      -0.205  11.642  21.388  0.00  0.00    +0.000 A 
ATOM     11  C   UNL     1      -1.458  11.994  20.871  0.00  0.00    +0.000 A 
ATOM     12  N   UNL     1      -1.868  11.515  19.641  0.00  0.00    +0.000 N 
ATOM     13  O   UNL     1      -3.014  11.825  19.185  0.00  0.00    +0.000 OA
BRANCH  11  14
ATOM     14  C   UNL     1      -2.421  12.875  21.587  0.00  0.00    +0.000 C 
ATOM     15  F   UNL     1      -1.917  13.291  22.792  0.00  0.00    +0.000 F 
ATOM     16  F   UNL     1      -2.718  14.028  20.928  0.00  0.00    +0.000 F 
ATOM     17  F   UNL     1      -3.598  12.270  21.900  0.00  0.00    +0.000 F 
ENDBRANCH  11  14
ENDBRANCH   1   8
BRANCH   4  18
ATOM     18  C   UNL     1       3.559   6.918  18.216  0.00  0.00    +0.000 A 
ATOM     19  C   UNL     1       3.273   5.778  18.990  0.00  0.00    +0.000 A 
ATOM     20  C   UNL     1       4.179   4.721  19.041  0.00  0.00    +0.000 A 
ATOM     21  C   UNL     1       5.377   4.768  18.334  0.00  0.00    +0.000 A 
ATOM     22  C   UNL     1       5.654   5.888  17.563  0.00  0.00    +0.000 A 
ATOM     23  C   UNL     1       4.757   6.963  17.485  0.00  0.00    +0.000 A 
BRANCH  22  24
ATOM     24  N   UNL     1       6.899   5.983  16.829  0.00  0.00    +0.000 N 
ATOM     25  O   UNL     1       7.462   7.085  16.803  0.00  0.00    +0.000 OA
ATOM     26  O   UNL     1       7.252   4.973  16.207  0.00  0.00    +0.000 OA
ENDBRANCH  22  24
BRANCH  20  27
ATOM     27  O   UNL     1       3.931   3.603  19.791  0.00  0.00    +0.000 OA
ATOM     28  H   UNL     1       4.412   2.848  19.406  0.00  0.00    +0.000 HD
ENDBRANCH  20  27
BRANCH  21  29
ATOM     29  O   UNL     1       6.228   3.704  18.413  0.00  0.00    +0.000 OA
ATOM     30  H   UNL     1       6.057   3.166  17.614  0.00  0.00    +0.000 HD
ENDBRANCH  21  29
ENDBRANCH   4  18
TORSDOF 6
ENDMDL
MODEL 8
REMARK VINA RESULT:      -8.3      1.811      2.754
REMARK  Name = 
REMARK  7 active torsions:
REMARK  status: ('A' for Active; 'I' for Inactive)
REMARK    1  A    between atoms: C_1  and  C_2
REMARK    2  A    between atoms: C_3  and  C_4
REMARK    3  A    between atoms: C_7  and  C_8
REMARK    4  A    between atoms: C_10  and  O_11
REMARK    5  A    between atoms: C_12  and  O_13
REMARK    6  A    between atoms: C_14  and  N_15
REMARK    7  A    between atoms: C_22  and  C_23
REMARK                            x       y       z     vdW  Elec       q    Type
REMARK                         _______ _______ _______ _____ _____    ______ ____
ROOT
ATOM      1  C   UNL     1       1.210   9.447  18.747  0.00  0.00    +0.000 A 
ATOM      2  N   UNL     1       1.940   9.825  17.688  0.00  0.00    +0.000 NA
ATOM      3  O   UNL     1       2.625   8.670  17.326  0.00  0.00    +0.000 OA
ATOM      4  C   UNL     1       2.277   7.711  18.231  0.00  0.00    +0.000 A 
ATOM      5  N   UNL     1       1.414   8.137  19.126  0.00  0.00    +0.000 NA
ENDROOT
BRANCH   1   8
ATOM      6  C   UNL     1      -1.613  10.261  17.829  0.00  0.00    +0.000 C 
ATOM      7  C   UNL     1      -0.931  10.745  19.075  0.00  0.00    +0.000 A 
ATOM      8  C   UNL     1       0.347  10.340  19.512  0.00  0.00    +0.000 A 
ATOM      9  C   UNL     1       0.830  10.824  20.735  0.00  0.00    +0.000 A 
ATOM     10  C   UNL     1       0.084  11.722  21.488  0.00  0.00    +0.000 A 
ATOM     11  C   UNL     1      -1.166  12.149  21.026  0.00  0.00    +0.000 A 
ATOM     12  N   UNL     1      -1.678  11.663  19.837  0.00  0.00    +0.000 N 
ATOM     13  O   UNL     1      -2.822  12.043  19.431  0.00  0.00    +0.000 OA
BRANCH  11  14
ATOM     14  C   UNL     1      -2.021  13.123  21.759  0.00  0.00    +0.000 C 
ATOM     15  F   UNL     1      -2.243  14.252  21.014  0.00  0.00    +0.000 F 
ATOM     16  F   UNL     1      -3.267  12.661  22.053  0.00  0.00    +0.000 F 
ATOM     17  F   UNL     1      -1.473  13.580  22.917  0.00  0.00    +0.000 F 
ENDBRANCH  11  14
ENDBRANCH   1   8
BRANCH   4  18
ATOM     18  C   UNL     1       2.938   6.416  18.121  0.00  0.00    +0.000 A 
ATOM     19  C   UNL     1       2.167   5.283  17.804  0.00  0.00    +0.000 A 
ATOM     20  C   UNL     1       2.761   4.024  17.753  0.00  0.00    +0.000 A 
ATOM     21  C   UNL     1       4.119   3.860  18.012  0.00  0.00    +0.000 A 
ATOM     22  C   UNL     1       4.881   4.980  18.314  0.00  0.00    +0.000 A 
ATOM     23  C   UNL     1       4.313   6.260  18.364  0.00  0.00    +0.000 A 
BRANCH  22  24
ATOM     24  N   UNL     1       6.293   4.848  18.608  0.00  0.00    +0.000 N 
ATOM     25  O   UNL     1       6.676   5.204  19.730  0.00  0.00    +0.000 OA
ATOM     26  O   UNL     1       7.020   4.475  17.678  0.00  0.00    +0.000 OA
ENDBRANCH  22  24
BRANCH  20  27
ATOM     27  O   UNL     1       2.035   2.902  17.455  0.00  0.00    +0.000 OA
ATOM     28  H   UNL     1       2.116   2.714  16.502  0.00  0.00    +0.000 HD
ENDBRANCH  20  27
BRANCH  21  29
ATOM     29  O   UNL     1       4.654   2.607  17.943  0.00  0.00    +0.000 OA
ATOM     30  H   UNL     1       4.737   2.404  16.989  0.00  0.00    +0.000 HD
ENDBRANCH  21  29
ENDBRANCH   4  18
TORSDOF 6
ENDMDL
MODEL 9
REMARK VINA RESULT:      -8.3      1.491      2.433
REMARK  Name = 
REMARK  7 active torsions:
REMARK  status: ('A' for Active; 'I' for Inactive)
REMARK    1  A    between atoms: C_1  and  C_2
REMARK    2  A    between atoms: C_3  and  C_4
REMARK    3  A    between atoms: C_7  and  C_8
REMARK    4  A    between atoms: C_10  and  O_11
REMARK    5  A    between atoms: C_12  and  O_13
REMARK    6  A    between atoms: C_14  and  N_15
REMARK    7  A    between atoms: C_22  and  C_23
REMARK                            x       y       z     vdW  Elec       q    Type
REMARK                         _______ _______ _______ _____ _____    ______ ____
ROOT
ATOM      1  C   UNL     1       1.311   9.073  19.330  0.00  0.00    +0.000 A 
ATOM      2  N   UNL     1       1.917   9.293  18.156  0.00  0.00    +0.000 NA
ATOM      3  O   UNL     1       2.641   8.127  17.931  0.00  0.00    +0.000 OA
ATOM      4  C   UNL     1       2.437   7.327  19.016  0.00  0.00    +0.000 A 
ATOM      5  N   UNL     1       1.632   7.862  19.906  0.00  0.00    +0.000 NA
ENDROOT
BRANCH   1   8
ATOM      6  C   UNL     1       1.187   9.343  22.394  0.00  0.00    +0.000 C 
ATOM      7  C   UNL     1       0.377  10.143  21.418  0.00  0.00    +0.000 A 
ATOM      8  C   UNL     1       0.464  10.045  20.014  0.00  0.00    +0.000 A 
ATOM      9  C   UNL     1      -0.308  10.907  19.225  0.00  0.00    +0.000 A 
ATOM     10  C   UNL     1      -1.179  11.818  19.810  0.00  0.00    +0.000 A 
ATOM     11  C   UNL     1      -1.288  11.881  21.204  0.00  0.00    +0.000 A 
ATOM     12  N   UNL     1      -0.515  11.061  22.006  0.00  0.00    +0.000 N 
ATOM     13  O   UNL     1      -0.607  11.134  23.272  0.00  0.00    +0.000 OA
BRANCH  11  14
ATOM     14  C   UNL     1      -2.209  12.812  21.913  0.00  0.00    +0.000 C 
ATOM     15  F   UNL     1      -2.886  13.612  21.029  0.00  0.00    +0.000 F 
ATOM     16  F   UNL     1      -3.187  12.193  22.628  0.00  0.00    +0.000 F 
ATOM     17  F   UNL     1      -1.582  13.681  22.749  0.00  0.00    +0.000 F 
ENDBRANCH  11  14
ENDBRANCH   1   8
BRANCH   4  18
ATOM     18  C   UNL     1       3.168   6.067  19.064  0.00  0.00    +0.000 A 
ATOM     19  C   UNL     1       2.667   5.019  19.857  0.00  0.00    +0.000 A 
ATOM     20  C   UNL     1       3.376   3.825  19.970  0.00  0.00    +0.000 A 
ATOM     21  C   UNL     1       4.586   3.644  19.307  0.00  0.00    +0.000 A 
ATOM     22  C   UNL     1       5.075   4.674  18.516  0.00  0.00    +0.000 A 
ATOM     23  C   UNL     1       4.379   5.882  18.376  0.00  0.00    +0.000 A 
BRANCH  22  24
ATOM     24  N   UNL     1       6.340   4.530  17.826  0.00  0.00    +0.000 N 
ATOM     25  O   UNL     1       7.358   4.419  18.521  0.00  0.00    +0.000 OA
ATOM     26  O   UNL     1       6.310   4.623  16.592  0.00  0.00    +0.000 OA
ENDBRANCH  22  24
BRANCH  20  27
ATOM     27  O   UNL     1       2.916   2.791  20.741  0.00  0.00    +0.000 OA
ATOM     28  H   UNL     1       2.501   2.124  20.165  0.00  0.00    +0.000 HD
ENDBRANCH  20  27
BRANCH  21  29
ATOM     29  O   UNL     1       5.239   2.454  19.446  0.00  0.00    +0.000 OA
ATOM     30  H   UNL     1       6.182   2.645  19.266  0.00  0.00    +0.000 HD
ENDBRANCH  21  29
ENDBRANCH   4  18
TORSDOF 6
ENDMDL
