MODEL 1
REMARK VINA RESULT:      -8.6      0.000      0.000
REMARK  Name = 
REMARK  1 active torsions:
REMARK  status: ('A' for Active; 'I' for Inactive)
REMARK    1  A    between atoms: C_1  and  N_2
REMARK                            x       y       z     vdW  Elec       q    Type
REMARK                         _______ _______ _______ _____ _____    ______ ____
ROOT
ATOM      1  C   UNL     1       1.545   3.597  20.329  0.00  0.00    +0.000 C 
ATOM      2  N   UNL     1       2.698   4.067  19.610  0.00  0.00    +0.000 N 
ATOM      3  C   UNL     1       3.854   3.308  19.387  0.00  0.00    +0.000 C 
ATOM      4  O   UNL     1       4.110   2.214  19.873  0.00  0.00    +0.000 OA
ATOM      5  C   UNL     1       4.742   4.120  18.371  0.00  0.00    +0.000 C 
ATOM      6  N   UNL     1       6.130   4.179  18.741  0.00  0.00    +0.000 N 
ATOM      7  C   UNL     1       7.088   4.482  17.816  0.00  0.00    +0.000 C 
ATOM      8  O   UNL     1       8.222   4.818  18.132  0.00  0.00    +0.000 OA
ATOM      9  C   UNL     1       6.658   4.390  16.408  0.00  0.00    +0.000 A 
ATOM     10  C   UNL     1       7.461   4.853  15.365  0.00  0.00    +0.000 A 
ATOM     11  C   UNL     1       6.997   4.769  14.050  0.00  0.00    +0.000 A 
ATOM     12  C   UNL     1       5.748   4.201  13.780  0.00  0.00    +0.000 A 
ATOM     13  C   UNL     1       4.953   3.732  14.825  0.00  0.00    +0.000 A 
ATOM     14  C   UNL     1       5.401   3.850  16.137  0.00  0.00    +0.000 A 
ATOM     15  O   UNL     1       4.555   3.431  17.124  0.00  0.00    +0.000 OA
ATOM     16  C   UNL     1       4.022   5.455  18.356  0.00  0.00    +0.000 A 
ATOM     17  C   UNL     1       4.375   6.657  17.749  0.00  0.00    +0.000 A 
ATOM     18  C   UNL     1       3.484   7.728  17.820  0.00  0.00    +0.000 A 
ATOM     19  C   UNL     1       2.258   7.592  18.487  0.00  0.00    +0.000 A 
ATOM     20  C   UNL     1       1.910   6.388  19.106  0.00  0.00    +0.000 A 
ATOM     21  C   UNL     1       2.807   5.338  19.035  0.00  0.00    +0.000 A 
ATOM     22  H   UNL     1       6.380   4.293  19.710  0.00  0.00    +0.000 HD
ENDROOT
TORSDOF 0
ENDMDL
MODEL 2
REMARK VINA RESULT:      -8.3      1.948      5.143
REMARK  Name = 
REMARK  1 active torsions:
REMARK  status: ('A' for Active; 'I' for Inactive)
REMARK    1  A    between atoms: C_1  and  N_2
REMARK                            x       y       z     vdW  Elec       q    Type
REMARK                         _______ _______ _______ _____ _____    ______ ____
ROOT
ATOM      1  C   UNL     1       7.851   7.256  17.819  0.00  0.00    +0.000 C 
ATOM      2  N   UNL     1       6.940   6.164  18.027  0.00  0.00    +0.000 N 
ATOM      3  C   UNL     1       6.745   5.519  19.254  0.00  0.00    +0.000 C 
ATOM      4  O   UNL     1       7.401   5.687  20.275  0.00  0.00    +0.000 OA
ATOM      5  C   UNL     1       5.506   4.563  19.074  0.00  0.00    +0.000 C 
ATOM      6  N   UNL     1       5.711   3.249  19.620  0.00  0.00    +0.000 N 
ATOM      7  C   UNL     1       4.651   2.438  19.908  0.00  0.00    +0.000 C 
ATOM      8  O   UNL     1       4.778   1.236  20.099  0.00  0.00    +0.000 OA
ATOM      9  C   UNL     1       3.339   3.110  19.961  0.00  0.00    +0.000 A 
ATOM     10  C   UNL     1       2.148   2.387  20.052  0.00  0.00    +0.000 A 
ATOM     11  C   UNL     1       0.929   3.068  20.071  0.00  0.00    +0.000 A 
ATOM     12  C   UNL     1       0.904   4.466  20.025  0.00  0.00    +0.000 A 
ATOM     13  C   UNL     1       2.096   5.184  19.943  0.00  0.00    +0.000 A 
ATOM     14  C   UNL     1       3.308   4.502  19.887  0.00  0.00    +0.000 A 
ATOM     15  O   UNL     1       4.439   5.254  19.744  0.00  0.00    +0.000 OA
ATOM     16  C   UNL     1       5.314   4.615  17.571  0.00  0.00    +0.000 A 
ATOM     17  C   UNL     1       4.456   3.886  16.752  0.00  0.00    +0.000 A 
ATOM     18  C   UNL     1       4.415   4.188  15.391  0.00  0.00    +0.000 A 
ATOM     19  C   UNL     1       5.221   5.208  14.862  0.00  0.00    +0.000 A 
ATOM     20  C   UNL     1       6.089   5.931  15.684  0.00  0.00    +0.000 A 
ATOM     21  C   UNL     1       6.126   5.614  17.030  0.00  0.00    +0.000 A 
ATOM     22  H   UNL     1       6.610   2.805  19.518  0.00  0.00    +0.000 HD
ENDROOT
TORSDOF 0
ENDMDL
MODEL 3
REMARK VINA RESULT:      -6.9      2.075      5.026
REMARK  Name = 
REMARK  1 active torsions:
REMARK  status: ('A' for Active; 'I' for Inactive)
REMARK    1  A    between atoms: C_1  and  N_2
REMARK                            x       y       z     vdW  Elec       q    Type
REMARK                         _______ _______ _______ _____ _____    ______ ____
ROOT
ATOM      1  C   UNL     1       6.922   7.261  17.286  0.00  0.00    +0.000 C 
ATOM      2  N   UNL     1       5.756   6.440  17.469  0.00  0.00    +0.000 N 
ATOM      3  C   UNL     1       5.776   5.041  17.541  0.00  0.00    +0.000 C 
ATOM      4  O   UNL     1       6.740   4.317  17.327  0.00  0.00    +0.000 OA
ATOM      5  C   UNL     1       4.333   4.587  17.979  0.00  0.00    +0.000 C 
ATOM      6  N   UNL     1       3.822   3.484  17.213  0.00  0.00    +0.000 N 
ATOM      7  C   UNL     1       2.795   2.718  17.687  0.00  0.00    +0.000 C 
ATOM      8  O   UNL     1       2.150   1.967  16.968  0.00  0.00    +0.000 OA
ATOM      9  C   UNL     1       2.509   2.869  19.127  0.00  0.00    +0.000 A 
ATOM     10  C   UNL     1       1.375   2.303  19.712  0.00  0.00    +0.000 A 
ATOM     11  C   UNL     1       1.134   2.498  21.074  0.00  0.00    +0.000 A 
ATOM     12  C   UNL     1       2.036   3.233  21.850  0.00  0.00    +0.000 A 
ATOM     13  C   UNL     1       3.172   3.789  21.263  0.00  0.00    +0.000 A 
ATOM     14  C   UNL     1       3.392   3.624  19.898  0.00  0.00    +0.000 A 
ATOM     15  O   UNL     1       4.487   4.243  19.366  0.00  0.00    +0.000 OA
ATOM     16  C   UNL     1       3.562   5.885  17.834  0.00  0.00    +0.000 A 
ATOM     17  C   UNL     1       2.198   6.134  17.948  0.00  0.00    +0.000 A 
ATOM     18  C   UNL     1       1.748   7.451  17.849  0.00  0.00    +0.000 A 
ATOM     19  C   UNL     1       2.656   8.500  17.642  0.00  0.00    +0.000 A 
ATOM     20  C   UNL     1       4.025   8.247  17.517  0.00  0.00    +0.000 A 
ATOM     21  C   UNL     1       4.454   6.936  17.608  0.00  0.00    +0.000 A 
ATOM     22  H   UNL     1       3.997   3.445  16.221  0.00  0.00    +0.000 HD
ENDROOT
TORSDOF 0
ENDMDL
MODEL 4
REMARK VINA RESULT:      -6.5      8.337     11.663
REMARK  Name = 
REMARK  1 active torsions:
REMARK  status: ('A' for Active; 'I' for Inactive)
REMARK    1  A    between atoms: C_1  and  N_2
REMARK                            x       y       z     vdW  Elec       q    Type
REMARK                         _______ _______ _______ _____ _____    ______ ____
ROOT
ATOM      1  C   UNL     1       1.283   8.919  21.211  0.00  0.00    +0.000 C 
ATOM      2  N   UNL     1       0.228   9.861  21.471  0.00  0.00    +0.000 N 
ATOM      3  C   UNL     1      -0.213  10.221  22.751  0.00  0.00    +0.000 C 
ATOM      4  O   UNL     1       0.124   9.703  23.808  0.00  0.00    +0.000 OA
ATOM      5  C   UNL     1      -1.199  11.436  22.567  0.00  0.00    +0.000 C 
ATOM      6  N   UNL     1      -2.405  11.318  23.338  0.00  0.00    +0.000 N 
ATOM      7  C   UNL     1      -3.171  12.415  23.612  0.00  0.00    +0.000 C 
ATOM      8  O   UNL     1      -4.325  12.327  24.009  0.00  0.00    +0.000 OA
ATOM      9  C   UNL     1      -2.513  13.716  23.384  0.00  0.00    +0.000 A 
ATOM     10  C   UNL     1      -3.226  14.915  23.434  0.00  0.00    +0.000 A 
ATOM     11  C   UNL     1      -2.563  16.119  23.183  0.00  0.00    +0.000 A 
ATOM     12  C   UNL     1      -1.191  16.123  22.911  0.00  0.00    +0.000 A 
ATOM     13  C   UNL     1      -0.483  14.924  22.870  0.00  0.00    +0.000 A 
ATOM     14  C   UNL     1      -1.152  13.722  23.084  0.00  0.00    +0.000 A 
ATOM     15  O   UNL     1      -0.420  12.574  22.971  0.00  0.00    +0.000 OA
ATOM     16  C   UNL     1      -1.392  11.429  21.062  0.00  0.00    +0.000 A 
ATOM     17  C   UNL     1      -2.252  12.180  20.266  0.00  0.00    +0.000 A 
ATOM     18  C   UNL     1      -2.173  12.040  18.881  0.00  0.00    +0.000 A 
ATOM     19  C   UNL     1      -1.243  11.161  18.305  0.00  0.00    +0.000 A 
ATOM     20  C   UNL     1      -0.387  10.400  19.106  0.00  0.00    +0.000 A 
ATOM     21  C   UNL     1      -0.483  10.544  20.478  0.00  0.00    +0.000 A 
ATOM     22  H   UNL     1      -2.851  10.418  23.427  0.00  0.00    +0.000 HD
ENDROOT
TORSDOF 0
ENDMDL
MODEL 5
REMARK VINA RESULT:      -6.5      2.130      3.883
REMARK  Name = 
REMARK  1 active torsions:
REMARK  status: ('A' for Active; 'I' for Inactive)
REMARK    1  A    between atoms: C_1  and  N_2
REMARK                            x       y       z     vdW  Elec       q    Type
REMARK                         _______ _______ _______ _____ _____    ______ ____
ROOT
ATOM      1  C   UNL     1       0.970   6.891  21.092  0.00  0.00    +0.000 C 
ATOM      2  N   UNL     1       1.910   6.191  20.259  0.00  0.00    +0.000 N 
ATOM      3  C   UNL     1       2.514   6.734  19.119  0.00  0.00    +0.000 C 
ATOM      4  O   UNL     1       2.238   7.804  18.591  0.00  0.00    +0.000 OA
ATOM      5  C   UNL     1       3.630   5.719  18.668  0.00  0.00    +0.000 C 
ATOM      6  N   UNL     1       3.636   5.463  17.254  0.00  0.00    +0.000 N 
ATOM      7  C   UNL     1       4.740   4.943  16.640  0.00  0.00    +0.000 C 
ATOM      8  O   UNL     1       4.698   4.451  15.521  0.00  0.00    +0.000 OA
ATOM      9  C   UNL     1       5.986   5.005  17.428  0.00  0.00    +0.000 A 
ATOM     10  C   UNL     1       7.145   4.345  17.017  0.00  0.00    +0.000 A 
ATOM     11  C   UNL     1       8.292   4.410  17.812  0.00  0.00    +0.000 A 
ATOM     12  C   UNL     1       8.284   5.153  18.998  0.00  0.00    +0.000 A 
ATOM     13  C   UNL     1       7.127   5.816  19.399  0.00  0.00    +0.000 A 
ATOM     14  C   UNL     1       5.974   5.720  18.624  0.00  0.00    +0.000 A 
ATOM     15  O   UNL     1       4.853   6.340  19.098  0.00  0.00    +0.000 OA
ATOM     16  C   UNL     1       3.305   4.521  19.539  0.00  0.00    +0.000 A 
ATOM     17  C   UNL     1       3.845   3.239  19.537  0.00  0.00    +0.000 A 
ATOM     18  C   UNL     1       3.422   2.334  20.510  0.00  0.00    +0.000 A 
ATOM     19  C   UNL     1       2.474   2.713  21.473  0.00  0.00    +0.000 A 
ATOM     20  C   UNL     1       1.925   3.999  21.467  0.00  0.00    +0.000 A 
ATOM     21  C   UNL     1       2.347   4.881  20.490  0.00  0.00    +0.000 A 
ATOM     22  H   UNL     1       2.760   5.378  16.762  0.00  0.00    +0.000 HD
ENDROOT
TORSDOF 0
ENDMDL
MODEL 6
REMARK VINA RESULT:      -6.4      2.539      3.935
REMARK  Name = 
REMARK  1 active torsions:
REMARK  status: ('A' for Active; 'I' for Inactive)
REMARK    1  A    between atoms: C_1  and  N_2
REMARK                            x       y       z     vdW  Elec       q    Type
REMARK                         _______ _______ _______ _____ _____    ______ ____
ROOT
ATOM      1  C   UNL     1       1.105   3.205  21.575  0.00  0.00    +0.000 C 
ATOM      2  N   UNL     1       1.812   3.861  20.508  0.00  0.00    +0.000 N 
ATOM      3  C   UNL     1       2.151   5.220  20.502  0.00  0.00    +0.000 C 
ATOM      4  O   UNL     1       1.789   6.062  21.313  0.00  0.00    +0.000 OA
ATOM      5  C   UNL     1       3.109   5.443  19.272  0.00  0.00    +0.000 C 
ATOM      6  N   UNL     1       2.784   6.608  18.496  0.00  0.00    +0.000 N 
ATOM      7  C   UNL     1       3.705   7.172  17.660  0.00  0.00    +0.000 C 
ATOM      8  O   UNL     1       3.396   7.970  16.785  0.00  0.00    +0.000 OA
ATOM      9  C   UNL     1       5.100   6.741  17.876  0.00  0.00    +0.000 A 
ATOM     10  C   UNL     1       6.118   7.079  16.982  0.00  0.00    +0.000 A 
ATOM     11  C   UNL     1       7.417   6.624  17.216  0.00  0.00    +0.000 A 
ATOM     12  C   UNL     1       7.700   5.857  18.351  0.00  0.00    +0.000 A 
ATOM     13  C   UNL     1       6.682   5.529  19.244  0.00  0.00    +0.000 A 
ATOM     14  C   UNL     1       5.380   5.953  18.991  0.00  0.00    +0.000 A 
ATOM     15  O   UNL     1       4.413   5.550  19.867  0.00  0.00    +0.000 OA
ATOM     16  C   UNL     1       2.962   4.121  18.543  0.00  0.00    +0.000 A 
ATOM     17  C   UNL     1       3.456   3.721  17.305  0.00  0.00    +0.000 A 
ATOM     18  C   UNL     1       3.245   2.405  16.895  0.00  0.00    +0.000 A 
ATOM     19  C   UNL     1       2.553   1.504  17.719  0.00  0.00    +0.000 A 
ATOM     20  C   UNL     1       2.049   1.910  18.957  0.00  0.00    +0.000 A 
ATOM     21  C   UNL     1       2.258   3.221  19.346  0.00  0.00    +0.000 A 
ATOM     22  H   UNL     1       1.817   6.839  18.329  0.00  0.00    +0.000 HD
ENDROOT
TORSDOF 0
ENDMDL
MODEL 7
REMARK VINA RESULT:      -6.4      1.760      2.096
REMARK  Name = 
REMARK  1 active torsions:
REMARK  status: ('A' for Active; 'I' for Inactive)
REMARK    1  A    between atoms: C_1  and  N_2
REMARK                            x       y       z     vdW  Elec       q    Type
REMARK                         _______ _______ _______ _____ _____    ______ ____
ROOT
ATOM      1  C   UNL     1       1.296   1.656  19.626  0.00  0.00    +0.000 C 
ATOM      2  N   UNL     1       2.322   2.662  19.561  0.00  0.00    +0.000 N 
ATOM      3  C   UNL     1       3.663   2.406  19.247  0.00  0.00    +0.000 C 
ATOM      4  O   UNL     1       4.180   1.303  19.120  0.00  0.00    +0.000 OA
ATOM      5  C   UNL     1       4.362   3.804  19.060  0.00  0.00    +0.000 C 
ATOM      6  N   UNL     1       5.636   3.901  19.717  0.00  0.00    +0.000 N 
ATOM      7  C   UNL     1       6.542   4.855  19.351  0.00  0.00    +0.000 C 
ATOM      8  O   UNL     1       7.499   5.156  20.052  0.00  0.00    +0.000 OA
ATOM      9  C   UNL     1       6.279   5.510  18.055  0.00  0.00    +0.000 A 
ATOM     10  C   UNL     1       7.000   6.631  17.641  0.00  0.00    +0.000 A 
ATOM     11  C   UNL     1       6.695   7.233  16.418  0.00  0.00    +0.000 A 
ATOM     12  C   UNL     1       5.690   6.699  15.604  0.00  0.00    +0.000 A 
ATOM     13  C   UNL     1       4.979   5.575  16.018  0.00  0.00    +0.000 A 
ATOM     14  C   UNL     1       5.260   4.999  17.254  0.00  0.00    +0.000 A 
ATOM     15  O   UNL     1       4.489   3.938  17.635  0.00  0.00    +0.000 OA
ATOM     16  C   UNL     1       3.291   4.739  19.590  0.00  0.00    +0.000 A 
ATOM     17  C   UNL     1       3.332   6.111  19.818  0.00  0.00    +0.000 A 
ATOM     18  C   UNL     1       2.167   6.754  20.237  0.00  0.00    +0.000 A 
ATOM     19  C   UNL     1       0.980   6.030  20.420  0.00  0.00    +0.000 A 
ATOM     20  C   UNL     1       0.943   4.650  20.201  0.00  0.00    +0.000 A 
ATOM     21  C   UNL     1       2.108   4.025  19.795  0.00  0.00    +0.000 A 
ATOM     22  H   UNL     1       5.759   3.482  20.625  0.00  0.00    +0.000 HD
ENDROOT
TORSDOF 0
ENDMDL
MODEL 8
REMARK VINA RESULT:      -6.4      8.623     11.918
REMARK  Name = 
REMARK  1 active torsions:
REMARK  status: ('A' for Active; 'I' for Inactive)
REMARK    1  A    between atoms: C_1  and  N_2
REMARK                            x       y       z     vdW  Elec       q    Type
REMARK                         _______ _______ _______ _____ _____    ______ ____
ROOT
ATOM      1  C   UNL     1       1.447  11.515  18.693  0.00  0.00    +0.000 C 
ATOM      2  N   UNL     1       0.739  11.835  19.902  0.00  0.00    +0.000 N 
ATOM      3  C   UNL     1       0.337  13.127  20.265  0.00  0.00    +0.000 C 
ATOM      4  O   UNL     1       0.639  14.168  19.696  0.00  0.00    +0.000 OA
ATOM      5  C   UNL     1      -0.598  12.975  21.523  0.00  0.00    +0.000 C 
ATOM      6  N   UNL     1      -0.307  13.915  22.571  0.00  0.00    +0.000 N 
ATOM      7  C   UNL     1      -1.232  14.196  23.536  0.00  0.00    +0.000 C 
ATOM      8  O   UNL     1      -0.937  14.755  24.583  0.00  0.00    +0.000 OA
ATOM      9  C   UNL     1      -2.610  13.764  23.233  0.00  0.00    +0.000 A 
ATOM     10  C   UNL     1      -3.619  13.807  24.197  0.00  0.00    +0.000 A 
ATOM     11  C   UNL     1      -4.902  13.361  23.870  0.00  0.00    +0.000 A 
ATOM     12  C   UNL     1      -5.178  12.900  22.579  0.00  0.00    +0.000 A 
ATOM     13  C   UNL     1      -4.169  12.867  21.618  0.00  0.00    +0.000 A 
ATOM     14  C   UNL     1      -2.883  13.278  21.956  0.00  0.00    +0.000 A 
ATOM     15  O   UNL     1      -1.921  13.165  20.993  0.00  0.00    +0.000 OA
ATOM     16  C   UNL     1      -0.372  11.519  21.882  0.00  0.00    +0.000 A 
ATOM     17  C   UNL     1      -0.814  10.788  22.980  0.00  0.00    +0.000 A 
ATOM     18  C   UNL     1      -0.532   9.423  23.031  0.00  0.00    +0.000 A 
ATOM     19  C   UNL     1       0.180   8.802  21.994  0.00  0.00    +0.000 A 
ATOM     20  C   UNL     1       0.632   9.540  20.896  0.00  0.00    +0.000 A 
ATOM     21  C   UNL     1       0.353  10.894  20.864  0.00  0.00    +0.000 A 
ATOM     22  H   UNL     1       0.651  14.144  22.779  0.00  0.00    +0.000 HD
ENDROOT
TORSDOF 0
ENDMDL
MODEL 9
REMARK VINA RESULT:      -6.2      7.598     10.898
REMARK  Name = 
REMARK  1 active torsions:
REMARK  status: ('A' for Active; 'I' for Inactive)
REMARK    1  A    between atoms: C_1  and  N_2
REMARK                            x       y       z     vdW  Elec       q    Type
REMARK                         _______ _______ _______ _____ _____    ______ ____
ROOT
ATOM      1  C   UNL     1       1.652   8.664  19.924  0.00  0.00    +0.000 C 
ATOM      2  N   UNL     1       0.656   9.582  20.408  0.00  0.00    +0.000 N 
ATOM      3  C   UNL     1       0.498   9.940  21.753  0.00  0.00    +0.000 C 
ATOM      4  O   UNL     1       1.072   9.438  22.710  0.00  0.00    +0.000 OA
ATOM      5  C   UNL     1      -0.536  11.128  21.788  0.00  0.00    +0.000 C 
ATOM      6  N   UNL     1      -1.540  10.986  22.806  0.00  0.00    +0.000 N 
ATOM      7  C   UNL     1      -2.255  12.065  23.240  0.00  0.00    +0.000 C 
ATOM      8  O   UNL     1      -3.291  11.951  23.881  0.00  0.00    +0.000 OA
ATOM      9  C   UNL     1      -1.697  13.380  22.871  0.00  0.00    +0.000 A 
ATOM     10  C   UNL     1      -2.412  14.562  23.074  0.00  0.00    +0.000 A 
ATOM     11  C   UNL     1      -1.853  15.781  22.682  0.00  0.00    +0.000 A 
ATOM     12  C   UNL     1      -0.575  15.817  22.114  0.00  0.00    +0.000 A 
ATOM     13  C   UNL     1       0.138  14.635  21.921  0.00  0.00    +0.000 A 
ATOM     14  C   UNL     1      -0.436  13.418  22.279  0.00  0.00    +0.000 A 
ATOM     15  O   UNL     1       0.283  12.289  22.009  0.00  0.00    +0.000 OA
ATOM     16  C   UNL     1      -1.055  11.106  20.363  0.00  0.00    +0.000 A 
ATOM     17  C   UNL     1      -2.088  11.829  19.774  0.00  0.00    +0.000 A 
ATOM     18  C   UNL     1      -2.312  11.681  18.406  0.00  0.00    +0.000 A 
ATOM     19  C   UNL     1      -1.509  10.822  17.641  0.00  0.00    +0.000 A 
ATOM     20  C   UNL     1      -0.478  10.088  18.235  0.00  0.00    +0.000 A 
ATOM     21  C   UNL     1      -0.274  10.239  19.595  0.00  0.00    +0.000 A 
ATOM     22  H   UNL     1      -1.931  10.076  22.992  0.00  0.00    +0.000 HD
ENDROOT
TORSDOF 0
ENDMDL
