MODEL 1
REMARK VINA RESULT:      -6.8      0.000      0.000
REMARK  Name = 
REMARK  3 active torsions:
REMARK  status: ('A' for Active; 'I' for Inactive)
REMARK    1  A    between atoms: C_2  and  C_3
REMARK    2  A    between atoms: N_6  and  S_7
REMARK    3  A    between atoms: S_7  and  N_10
REMARK                            x       y       z     vdW  Elec       q    Type
REMARK                         _______ _______ _______ _____ _____    ______ ____
ROOT
ATOM      1  C   UNL     1       0.824  10.684  18.801  0.00  0.00    +0.000 C 
ATOM      2  C   UNL     1       1.610  11.862  19.389  0.00  0.00    +0.000 C 
ATOM      3  C   UNL     1       1.144  12.356  20.762  0.00  0.00    +0.000 C 
ATOM      4  N   UNL     1      -0.328  12.454  20.899  0.00  0.00    +0.000 NA
ATOM      5  C   UNL     1      -1.095  11.386  20.236  0.00  0.00    +0.000 C 
ATOM      6  C   UNL     1      -0.651  11.116  18.812  0.00  0.00    +0.000 C 
ENDROOT
BRANCH   1   8
ATOM      7  O   UNL     1       0.234   8.955  20.377  0.00  0.00    +0.000 OA
ATOM      8  C   UNL     1       1.001   9.288  19.466  0.00  0.00    +0.000 C 
ATOM      9  N   UNL     1       1.948   8.418  18.964  0.00  0.00    +0.000 N 
ATOM     10  C   UNL     1       2.734   8.573  17.729  0.00  0.00    +0.000 C 
ATOM     11  C   UNL     1       3.442   7.243  17.443  0.00  0.00    +0.000 C 
ATOM     12  C   UNL     1       3.079   6.429  18.640  0.00  0.00    +0.000 A 
ATOM     13  C   UNL     1       3.483   5.130  18.921  0.00  0.00    +0.000 A 
ATOM     14  C   UNL     1       2.999   4.518  20.077  0.00  0.00    +0.000 A 
ATOM     15  C   UNL     1       2.125   5.206  20.928  0.00  0.00    +0.000 A 
ATOM     16  C   UNL     1       1.726   6.516  20.632  0.00  0.00    +0.000 A 
ATOM     17  C   UNL     1       2.207   7.122  19.480  0.00  0.00    +0.000 A 
ENDBRANCH   1   8
BRANCH   4  18
ATOM     18  S   UNL     1      -0.869  12.831  22.482  0.00  0.00    +0.000 S 
ATOM     19  O   UNL     1      -0.918  11.588  23.225  0.00  0.00    +0.000 OA
ATOM     20  O   UNL     1      -0.128  13.960  22.968  0.00  0.00    +0.000 OA
BRANCH  18  21
ATOM     21  N   UNL     1      -2.461  13.344  22.202  0.00  0.00    +0.000 NA
ATOM     22  C   UNL     1      -2.783  14.802  22.398  0.00  0.00    +0.000 C 
ATOM     23  C   UNL     1      -3.162  15.147  23.835  0.00  0.00    +0.000 C 
ATOM     24  O   UNL     1      -4.235  14.330  24.301  0.00  0.00    +0.000 OA
ATOM     25  C   UNL     1      -3.851  12.949  24.251  0.00  0.00    +0.000 C 
ATOM     26  C   UNL     1      -3.551  12.514  22.811  0.00  0.00    +0.000 C 
ENDBRANCH  18  21
ENDBRANCH   4  18
TORSDOF 3
ENDMDL
MODEL 2
REMARK VINA RESULT:      -6.8      3.678      5.199
REMARK  Name = 
REMARK  3 active torsions:
REMARK  status: ('A' for Active; 'I' for Inactive)
REMARK    1  A    between atoms: C_2  and  C_3
REMARK    2  A    between atoms: N_6  and  S_7
REMARK    3  A    between atoms: S_7  and  N_10
REMARK                            x       y       z     vdW  Elec       q    Type
REMARK                         _______ _______ _______ _____ _____    ______ ____
ROOT
ATOM      1  C   UNL     1      -0.828  12.139  21.319  0.00  0.00    +0.000 C 
ATOM      2  C   UNL     1      -1.124  11.261  22.540  0.00  0.00    +0.000 C 
ATOM      3  C   UNL     1      -2.308  11.699  23.406  0.00  0.00    +0.000 C 
ATOM      4  N   UNL     1      -2.364  13.158  23.657  0.00  0.00    +0.000 NA
ATOM      5  C   UNL     1      -1.968  14.007  22.521  0.00  0.00    +0.000 C 
ATOM      6  C   UNL     1      -0.677  13.571  21.858  0.00  0.00    +0.000 C 
ENDROOT
BRANCH   1   8
ATOM      7  O   UNL     1      -2.731  12.943  20.072  0.00  0.00    +0.000 OA
ATOM      8  C   UNL     1      -1.833  12.095  20.131  0.00  0.00    +0.000 C 
ATOM      9  N   UNL     1      -1.644  11.170  19.123  0.00  0.00    +0.000 N 
ATOM     10  C   UNL     1      -0.480  10.292  18.928  0.00  0.00    +0.000 C 
ATOM     11  C   UNL     1      -0.594   9.648  17.540  0.00  0.00    +0.000 C 
ATOM     12  C   UNL     1      -1.922  10.143  17.072  0.00  0.00    +0.000 A 
ATOM     13  C   UNL     1      -2.551   9.839  15.871  0.00  0.00    +0.000 A 
ATOM     14  C   UNL     1      -3.779  10.440  15.593  0.00  0.00    +0.000 A 
ATOM     15  C   UNL     1      -4.355  11.328  16.510  0.00  0.00    +0.000 A 
ATOM     16  C   UNL     1      -3.710  11.624  17.717  0.00  0.00    +0.000 A 
ATOM     17  C   UNL     1      -2.487  11.027  17.991  0.00  0.00    +0.000 A 
ENDBRANCH   1   8
BRANCH   4  18
ATOM     18  S   UNL     1      -3.778  13.684  24.471  0.00  0.00    +0.000 S 
ATOM     19  O   UNL     1      -4.314  12.541  25.182  0.00  0.00    +0.000 OA
ATOM     20  O   UNL     1      -3.490  14.915  25.150  0.00  0.00    +0.000 OA
BRANCH  18  21
ATOM     21  N   UNL     1      -4.820  14.043  23.181  0.00  0.00    +0.000 NA
ATOM     22  C   UNL     1      -5.333  15.453  23.052  0.00  0.00    +0.000 C 
ATOM     23  C   UNL     1      -6.605  15.705  23.856  0.00  0.00    +0.000 C 
ATOM     24  O   UNL     1      -7.628  14.767  23.522  0.00  0.00    +0.000 OA
ATOM     25  C   UNL     1      -7.172  13.435  23.798  0.00  0.00    +0.000 C 
ATOM     26  C   UNL     1      -5.949  13.085  22.943  0.00  0.00    +0.000 C 
ENDBRANCH  18  21
ENDBRANCH   4  18
TORSDOF 3
ENDMDL
MODEL 3
REMARK VINA RESULT:      -6.7      4.230      9.288
REMARK  Name = 
REMARK  3 active torsions:
REMARK  status: ('A' for Active; 'I' for Inactive)
REMARK    1  A    between atoms: C_2  and  C_3
REMARK    2  A    between atoms: N_6  and  S_7
REMARK    3  A    between atoms: S_7  and  N_10
REMARK                            x       y       z     vdW  Elec       q    Type
REMARK                         _______ _______ _______ _____ _____    ______ ____
ROOT
ATOM      1  C   UNL     1       1.876   7.695  17.883  0.00  0.00    +0.000 C 
ATOM      2  C   UNL     1       1.639   6.248  17.434  0.00  0.00    +0.000 C 
ATOM      3  C   UNL     1       2.587   5.201  18.028  0.00  0.00    +0.000 C 
ATOM      4  N   UNL     1       4.006   5.622  18.058  0.00  0.00    +0.000 NA
ATOM      5  C   UNL     1       4.236   7.041  18.376  0.00  0.00    +0.000 C 
ATOM      6  C   UNL     1       3.356   7.990  17.586  0.00  0.00    +0.000 C 
ENDROOT
BRANCH   1   8
ATOM      7  O   UNL     1       2.083   7.472  20.277  0.00  0.00    +0.000 OA
ATOM      8  C   UNL     1       1.518   8.067  19.352  0.00  0.00    +0.000 C 
ATOM      9  N   UNL     1       0.651   9.115  19.588  0.00  0.00    +0.000 N 
ATOM     10  C   UNL     1       0.123  10.074  18.604  0.00  0.00    +0.000 C 
ATOM     11  C   UNL     1      -0.570  11.209  19.367  0.00  0.00    +0.000 C 
ATOM     12  C   UNL     1      -0.476  10.741  20.781  0.00  0.00    +0.000 A 
ATOM     13  C   UNL     1      -0.980  11.380  21.908  0.00  0.00    +0.000 A 
ATOM     14  C   UNL     1      -0.751  10.804  23.157  0.00  0.00    +0.000 A 
ATOM     15  C   UNL     1      -0.029   9.609  23.262  0.00  0.00    +0.000 A 
ATOM     16  C   UNL     1       0.472   8.975  22.118  0.00  0.00    +0.000 A 
ATOM     17  C   UNL     1       0.245   9.552  20.876  0.00  0.00    +0.000 A 
ENDBRANCH   1   8
BRANCH   4  18
ATOM     18  S   UNL     1       5.050   4.539  18.882  0.00  0.00    +0.000 S 
ATOM     19  O   UNL     1       5.804   5.318  19.843  0.00  0.00    +0.000 OA
ATOM     20  O   UNL     1       4.295   3.387  19.286  0.00  0.00    +0.000 OA
BRANCH  18  21
ATOM     21  N   UNL     1       6.106   4.052  17.647  0.00  0.00    +0.000 NA
ATOM     22  C   UNL     1       7.422   4.772  17.513  0.00  0.00    +0.000 C 
ATOM     23  C   UNL     1       7.338   6.022  16.642  0.00  0.00    +0.000 C 
ATOM     24  O   UNL     1       6.796   5.725  15.356  0.00  0.00    +0.000 OA
ATOM     25  C   UNL     1       5.476   5.181  15.499  0.00  0.00    +0.000 C 
ATOM     26  C   UNL     1       5.507   3.865  16.286  0.00  0.00    +0.000 C 
ENDBRANCH  18  21
ENDBRANCH   4  18
TORSDOF 3
ENDMDL
MODEL 4
REMARK VINA RESULT:      -6.5      3.691      8.719
REMARK  Name = 
REMARK  3 active torsions:
REMARK  status: ('A' for Active; 'I' for Inactive)
REMARK    1  A    between atoms: C_2  and  C_3
REMARK    2  A    between atoms: N_6  and  S_7
REMARK    3  A    between atoms: S_7  and  N_10
REMARK                            x       y       z     vdW  Elec       q    Type
REMARK                         _______ _______ _______ _____ _____    ______ ____
ROOT
ATOM      1  C   UNL     1       1.151  10.619  18.809  0.00  0.00    +0.000 C 
ATOM      2  C   UNL     1       2.267  10.088  17.902  0.00  0.00    +0.000 C 
ATOM      3  C   UNL     1       2.407   8.564  17.838  0.00  0.00    +0.000 C 
ATOM      4  N   UNL     1       2.297   7.893  19.154  0.00  0.00    +0.000 NA
ATOM      5  C   UNL     1       1.305   8.472  20.075  0.00  0.00    +0.000 C 
ATOM      6  C   UNL     1       1.390   9.981  20.188  0.00  0.00    +0.000 C 
ENDROOT
BRANCH   1   8
ATOM      7  O   UNL     1      -0.596   9.434  17.639  0.00  0.00    +0.000 OA
ATOM      8  C   UNL     1      -0.321  10.411  18.347  0.00  0.00    +0.000 C 
ATOM      9  N   UNL     1      -1.301  11.264  18.814  0.00  0.00    +0.000 N 
ATOM     10  C   UNL     1      -1.163  12.288  19.862  0.00  0.00    +0.000 C 
ATOM     11  C   UNL     1      -2.566  12.788  20.229  0.00  0.00    +0.000 C 
ATOM     12  C   UNL     1      -3.425  12.060  19.249  0.00  0.00    +0.000 A 
ATOM     13  C   UNL     1      -4.804  12.163  19.109  0.00  0.00    +0.000 A 
ATOM     14  C   UNL     1      -5.437  11.362  18.159  0.00  0.00    +0.000 A 
ATOM     15  C   UNL     1      -4.691  10.479  17.369  0.00  0.00    +0.000 A 
ATOM     16  C   UNL     1      -3.302  10.386  17.520  0.00  0.00    +0.000 A 
ATOM     17  C   UNL     1      -2.674  11.182  18.469  0.00  0.00    +0.000 A 
ENDBRANCH   1   8
BRANCH   4  18
ATOM     18  S   UNL     1       2.270   6.180  19.077  0.00  0.00    +0.000 S 
ATOM     19  O   UNL     1       1.717   5.703  20.328  0.00  0.00    +0.000 OA
ATOM     20  O   UNL     1       1.710   5.783  17.817  0.00  0.00    +0.000 OA
BRANCH  18  21
ATOM     21  N   UNL     1       3.923   5.798  19.047  0.00  0.00    +0.000 NA
ATOM     22  C   UNL     1       4.714   6.158  17.818  0.00  0.00    +0.000 C 
ATOM     23  C   UNL     1       4.674   5.080  16.739  0.00  0.00    +0.000 C 
ATOM     24  O   UNL     1       5.092   3.815  17.252  0.00  0.00    +0.000 OA
ATOM     25  C   UNL     1       4.228   3.417  18.325  0.00  0.00    +0.000 C 
ATOM     26  C   UNL     1       4.300   4.415  19.487  0.00  0.00    +0.000 C 
ENDBRANCH  18  21
ENDBRANCH   4  18
TORSDOF 3
ENDMDL
MODEL 5
REMARK VINA RESULT:      -6.5      1.155      1.414
REMARK  Name = 
REMARK  3 active torsions:
REMARK  status: ('A' for Active; 'I' for Inactive)
REMARK    1  A    between atoms: C_2  and  C_3
REMARK    2  A    between atoms: N_6  and  S_7
REMARK    3  A    between atoms: S_7  and  N_10
REMARK                            x       y       z     vdW  Elec       q    Type
REMARK                         _______ _______ _______ _____ _____    ______ ____
ROOT
ATOM      1  C   UNL     1       0.849  11.182  19.260  0.00  0.00    +0.000 C 
ATOM      2  C   UNL     1       1.169  12.329  20.225  0.00  0.00    +0.000 C 
ATOM      3  C   UNL     1       0.135  12.581  21.328  0.00  0.00    +0.000 C 
ATOM      4  N   UNL     1      -1.269  12.530  20.859  0.00  0.00    +0.000 NA
ATOM      5  C   UNL     1      -1.557  11.504  19.844  0.00  0.00    +0.000 C 
ATOM      6  C   UNL     1      -0.555  11.477  18.707  0.00  0.00    +0.000 C 
ENDROOT
BRANCH   1   8
ATOM      7  O   UNL     1       0.212   9.394  20.748  0.00  0.00    +0.000 OA
ATOM      8  C   UNL     1       0.939   9.727  19.805  0.00  0.00    +0.000 C 
ATOM      9  N   UNL     1       1.757   8.817  19.165  0.00  0.00    +0.000 N 
ATOM     10  C   UNL     1       2.461   8.999  17.886  0.00  0.00    +0.000 C 
ATOM     11  C   UNL     1       3.013   7.637  17.447  0.00  0.00    +0.000 C 
ATOM     12  C   UNL     1       2.662   6.767  18.607  0.00  0.00    +0.000 A 
ATOM     13  C   UNL     1       2.958   5.417  18.759  0.00  0.00    +0.000 A 
ATOM     14  C   UNL     1       2.503   4.761  19.902  0.00  0.00    +0.000 A 
ATOM     15  C   UNL     1       1.765   5.456  20.869  0.00  0.00    +0.000 A 
ATOM     16  C   UNL     1       1.474   6.816  20.703  0.00  0.00    +0.000 A 
ATOM     17  C   UNL     1       1.926   7.466  19.563  0.00  0.00    +0.000 A 
ENDBRANCH   1   8
BRANCH   4  18
ATOM     18  S   UNL     1      -2.437  12.631  22.111  0.00  0.00    +0.000 S 
ATOM     19  O   UNL     1      -3.740  12.493  21.492  0.00  0.00    +0.000 OA
ATOM     20  O   UNL     1      -2.032  11.777  23.191  0.00  0.00    +0.000 OA
BRANCH  18  21
ATOM     21  N   UNL     1      -2.265  14.235  22.632  0.00  0.00    +0.000 NA
ATOM     22  C   UNL     1      -1.860  14.479  24.062  0.00  0.00    +0.000 C 
ATOM     23  C   UNL     1      -3.044  14.528  25.023  0.00  0.00    +0.000 C 
ATOM     24  O   UNL     1      -4.012  15.491  24.607  0.00  0.00    +0.000 OA
ATOM     25  C   UNL     1      -4.501  15.153  23.301  0.00  0.00    +0.000 C 
ATOM     26  C   UNL     1      -3.368  15.183  22.267  0.00  0.00    +0.000 C 
ENDBRANCH  18  21
ENDBRANCH   4  18
TORSDOF 3
ENDMDL
MODEL 6
REMARK VINA RESULT:      -6.3      3.271      5.075
REMARK  Name = 
REMARK  3 active torsions:
REMARK  status: ('A' for Active; 'I' for Inactive)
REMARK    1  A    between atoms: C_2  and  C_3
REMARK    2  A    between atoms: N_6  and  S_7
REMARK    3  A    between atoms: S_7  and  N_10
REMARK                            x       y       z     vdW  Elec       q    Type
REMARK                         _______ _______ _______ _____ _____    ______ ____
ROOT
ATOM      1  C   UNL     1      -1.691  12.136  21.539  0.00  0.00    +0.000 C 
ATOM      2  C   UNL     1      -2.739  13.165  21.101  0.00  0.00    +0.000 C 
ATOM      3  C   UNL     1      -2.192  14.516  20.629  0.00  0.00    +0.000 C 
ATOM      4  N   UNL     1      -1.103  15.054  21.476  0.00  0.00    +0.000 NA
ATOM      5  C   UNL     1      -0.157  14.052  21.997  0.00  0.00    +0.000 C 
ATOM      6  C   UNL     1      -0.832  12.838  22.603  0.00  0.00    +0.000 C 
ENDROOT
BRANCH   1   8
ATOM      7  O   UNL     1      -0.588  12.122  19.393  0.00  0.00    +0.000 OA
ATOM      8  C   UNL     1      -0.798  11.494  20.438  0.00  0.00    +0.000 C 
ATOM      9  N   UNL     1      -0.186  10.282  20.689  0.00  0.00    +0.000 N 
ATOM     10  C   UNL     1      -0.129   9.563  21.971  0.00  0.00    +0.000 C 
ATOM     11  C   UNL     1       0.881   8.417  21.830  0.00  0.00    +0.000 C 
ATOM     12  C   UNL     1       1.260   8.505  20.390  0.00  0.00    +0.000 A 
ATOM     13  C   UNL     1       2.135   7.672  19.703  0.00  0.00    +0.000 A 
ATOM     14  C   UNL     1       2.396   7.945  18.360  0.00  0.00    +0.000 A 
ATOM     15  C   UNL     1       1.786   9.035  17.729  0.00  0.00    +0.000 A 
ATOM     16  C   UNL     1       0.905   9.866  18.433  0.00  0.00    +0.000 A 
ATOM     17  C   UNL     1       0.648   9.594  19.770  0.00  0.00    +0.000 A 
ENDBRANCH   1   8
BRANCH   4  18
ATOM     18  S   UNL     1      -0.359  16.471  20.861  0.00  0.00    +0.000 S 
ATOM     19  O   UNL     1      -1.344  17.532  20.920  0.00  0.00    +0.000 OA
ATOM     20  O   UNL     1       0.931  16.619  21.472  0.00  0.00    +0.000 OA
BRANCH  18  21
ATOM     21  N   UNL     1      -0.112  16.067  19.232  0.00  0.00    +0.000 NA
ATOM     22  C   UNL     1       1.240  15.544  18.826  0.00  0.00    +0.000 C 
ATOM     23  C   UNL     1       2.230  16.649  18.470  0.00  0.00    +0.000 C 
ATOM     24  O   UNL     1       1.705  17.513  17.463  0.00  0.00    +0.000 OA
ATOM     25  C   UNL     1       0.493  18.122  17.931  0.00  0.00    +0.000 C 
ATOM     26  C   UNL     1      -0.580  17.063  18.214  0.00  0.00    +0.000 C 
ENDBRANCH  18  21
ENDBRANCH   4  18
TORSDOF 3
ENDMDL
MODEL 7
REMARK VINA RESULT:      -6.3      4.242      9.106
REMARK  Name = 
REMARK  3 active torsions:
REMARK  status: ('A' for Active; 'I' for Inactive)
REMARK    1  A    between atoms: C_2  and  C_3
REMARK    2  A    between atoms: N_6  and  S_7
REMARK    3  A    between atoms: S_7  and  N_10
REMARK                            x       y       z     vdW  Elec       q    Type
REMARK                         _______ _______ _______ _____ _____    ______ ____
ROOT
ATOM      1  C   UNL     1       1.947   9.220  18.650  0.00  0.00    +0.000 C 
ATOM      2  C   UNL     1       3.029   8.502  17.837  0.00  0.00    +0.000 C 
ATOM      3  C   UNL     1       2.848   6.990  17.672  0.00  0.00    +0.000 C 
ATOM      4  N   UNL     1       2.432   6.295  18.912  0.00  0.00    +0.000 NA
ATOM      5  C   UNL     1       1.478   7.031  19.758  0.00  0.00    +0.000 C 
ATOM      6  C   UNL     1       1.868   8.477  19.994  0.00  0.00    +0.000 C 
ENDROOT
BRANCH   1   8
ATOM      7  O   UNL     1       0.191   8.572  17.127  0.00  0.00    +0.000 OA
ATOM      8  C   UNL     1       0.535   9.366  18.012  0.00  0.00    +0.000 C 
ATOM      9  N   UNL     1      -0.336  10.315  18.510  0.00  0.00    +0.000 N 
ATOM     10  C   UNL     1      -0.162  11.132  19.722  0.00  0.00    +0.000 C 
ATOM     11  C   UNL     1      -1.494  11.832  20.020  0.00  0.00    +0.000 C 
ATOM     12  C   UNL     1      -2.329  11.431  18.850  0.00  0.00    +0.000 A 
ATOM     13  C   UNL     1      -3.639  11.814  18.588  0.00  0.00    +0.000 A 
ATOM     14  C   UNL     1      -4.270  11.295  17.458  0.00  0.00    +0.000 A 
ATOM     15  C   UNL     1      -3.591  10.408  16.614  0.00  0.00    +0.000 A 
ATOM     16  C   UNL     1      -2.271  10.031  16.890  0.00  0.00    +0.000 A 
ATOM     17  C   UNL     1      -1.645  10.547  18.017  0.00  0.00    +0.000 A 
ENDBRANCH   1   8
BRANCH   4  18
ATOM     18  S   UNL     1       2.051   4.636  18.701  0.00  0.00    +0.000 S 
ATOM     19  O   UNL     1       1.594   4.135  19.982  0.00  0.00    +0.000 OA
ATOM     20  O   UNL     1       1.251   4.492  17.518  0.00  0.00    +0.000 OA
BRANCH  18  21
ATOM     21  N   UNL     1       3.572   3.958  18.378  0.00  0.00    +0.000 NA
ATOM     22  C   UNL     1       3.632   2.727  17.513  0.00  0.00    +0.000 C 
ATOM     23  C   UNL     1       3.469   1.430  18.299  0.00  0.00    +0.000 C 
ATOM     24  O   UNL     1       4.418   1.342  19.362  0.00  0.00    +0.000 OA
ATOM     25  C   UNL     1       4.242   2.445  20.262  0.00  0.00    +0.000 C 
ATOM     26  C   UNL     1       4.490   3.781  19.550  0.00  0.00    +0.000 C 
ENDBRANCH  18  21
ENDBRANCH   4  18
TORSDOF 3
ENDMDL
MODEL 8
REMARK VINA RESULT:      -6.3      1.217      1.524
REMARK  Name = 
REMARK  3 active torsions:
REMARK  status: ('A' for Active; 'I' for Inactive)
REMARK    1  A    between atoms: C_2  and  C_3
REMARK    2  A    between atoms: N_6  and  S_7
REMARK    3  A    between atoms: S_7  and  N_10
REMARK                            x       y       z     vdW  Elec       q    Type
REMARK                         _______ _______ _______ _____ _____    ______ ____
ROOT
ATOM      1  C   UNL     1       1.087  10.340  18.792  0.00  0.00    +0.000 C 
ATOM      2  C   UNL     1       1.723  11.541  19.501  0.00  0.00    +0.000 C 
ATOM      3  C   UNL     1       1.032  11.999  20.789  0.00  0.00    +0.000 C 
ATOM      4  N   UNL     1      -0.446  12.037  20.699  0.00  0.00    +0.000 NA
ATOM      5  C   UNL     1      -1.057  10.947  19.920  0.00  0.00    +0.000 C 
ATOM      6  C   UNL     1      -0.390  10.712  18.579  0.00  0.00    +0.000 C 
ENDROOT
BRANCH   1   8
ATOM      7  O   UNL     1       0.437   8.643  20.380  0.00  0.00    +0.000 OA
ATOM      8  C   UNL     1       1.217   8.944  19.468  0.00  0.00    +0.000 C 
ATOM      9  N   UNL     1       2.137   8.040  18.974  0.00  0.00    +0.000 N 
ATOM     10  C   UNL     1       2.929   8.161  17.741  0.00  0.00    +0.000 C 
ATOM     11  C   UNL     1       3.595   6.806  17.466  0.00  0.00    +0.000 C 
ATOM     12  C   UNL     1       3.203   6.013  18.668  0.00  0.00    +0.000 A 
ATOM     13  C   UNL     1       3.565   4.704  18.960  0.00  0.00    +0.000 A 
ATOM     14  C   UNL     1       3.058   4.117  20.119  0.00  0.00    +0.000 A 
ATOM     15  C   UNL     1       2.205   4.839  20.963  0.00  0.00    +0.000 A 
ATOM     16  C   UNL     1       1.849   6.159  20.657  0.00  0.00    +0.000 A 
ATOM     17  C   UNL     1       2.353   6.740  19.501  0.00  0.00    +0.000 A 
ENDBRANCH   1   8
BRANCH   4  18
ATOM     18  S   UNL     1      -1.239  12.372  22.182  0.00  0.00    +0.000 S 
ATOM     19  O   UNL     1      -2.664  12.321  21.927  0.00  0.00    +0.000 OA
ATOM     20  O   UNL     1      -0.639  11.578  23.216  0.00  0.00    +0.000 OA
BRANCH  18  21
ATOM     21  N   UNL     1      -0.806  13.988  22.461  0.00  0.00    +0.000 NA
ATOM     22  C   UNL     1      -1.140  14.593  23.799  0.00  0.00    +0.000 C 
ATOM     23  C   UNL     1      -2.542  15.192  23.856  0.00  0.00    +0.000 C 
ATOM     24  O   UNL     1      -2.744  16.143  22.812  0.00  0.00    +0.000 OA
ATOM     25  C   UNL     1      -2.572  15.509  21.537  0.00  0.00    +0.000 C 
ATOM     26  C   UNL     1      -1.145  14.970  21.380  0.00  0.00    +0.000 C 
ENDBRANCH  18  21
ENDBRANCH   4  18
TORSDOF 3
ENDMDL
MODEL 9
REMARK VINA RESULT:      -6.3      3.042      5.144
REMARK  Name = 
REMARK  3 active torsions:
REMARK  status: ('A' for Active; 'I' for Inactive)
REMARK    1  A    between atoms: C_2  and  C_3
REMARK    2  A    between atoms: N_6  and  S_7
REMARK    3  A    between atoms: S_7  and  N_10
REMARK                            x       y       z     vdW  Elec       q    Type
REMARK                         _______ _______ _______ _____ _____    ______ ____
ROOT
ATOM      1  C   UNL     1      -0.729  11.470  20.410  0.00  0.00    +0.000 C 
ATOM      2  C   UNL     1      -1.542  12.584  19.741  0.00  0.00    +0.000 C 
ATOM      3  C   UNL     1      -0.760  13.846  19.362  0.00  0.00    +0.000 C 
ATOM      4  N   UNL     1       0.187  14.303  20.405  0.00  0.00    +0.000 NA
ATOM      5  C   UNL     1       0.888  13.232  21.132  0.00  0.00    +0.000 C 
ATOM      6  C   UNL     1      -0.030  12.125  21.613  0.00  0.00    +0.000 C 
ENDROOT
BRANCH   1   8
ATOM      7  O   UNL     1       0.794  11.249  18.552  0.00  0.00    +0.000 OA
ATOM      8  C   UNL     1       0.291  10.688  19.532  0.00  0.00    +0.000 C 
ATOM      9  N   UNL     1       0.680   9.421  19.920  0.00  0.00    +0.000 N 
ATOM     10  C   UNL     1       0.374   8.746  21.191  0.00  0.00    +0.000 C 
ATOM     11  C   UNL     1       1.239   7.483  21.281  0.00  0.00    +0.000 C 
ATOM     12  C   UNL     1       1.923   7.474  19.955  0.00  0.00    +0.000 A 
ATOM     13  C   UNL     1       2.814   6.519  19.480  0.00  0.00    +0.000 A 
ATOM     14  C   UNL     1       3.386   6.710  18.223  0.00  0.00    +0.000 A 
ATOM     15  C   UNL     1       3.064   7.843  17.465  0.00  0.00    +0.000 A 
ATOM     16  C   UNL     1       2.165   8.797  17.956  0.00  0.00    +0.000 A 
ATOM     17  C   UNL     1       1.598   8.606  19.209  0.00  0.00    +0.000 A 
ENDBRANCH   1   8
BRANCH   4  18
ATOM     18  S   UNL     1       1.196  15.604  19.924  0.00  0.00    +0.000 S 
ATOM     19  O   UNL     1       0.711  16.072  18.642  0.00  0.00    +0.000 OA
ATOM     20  O   UNL     1       1.353  16.501  21.034  0.00  0.00    +0.000 OA
BRANCH  18  21
ATOM     21  N   UNL     1       2.685  14.829  19.677  0.00  0.00    +0.000 NA
ATOM     22  C   UNL     1       3.906  15.405  20.344  0.00  0.00    +0.000 C 
ATOM     23  C   UNL     1       4.588  16.491  19.516  0.00  0.00    +0.000 C 
ATOM     24  O   UNL     1       4.906  16.024  18.206  0.00  0.00    +0.000 OA
ATOM     25  C   UNL     1       3.706  15.622  17.529  0.00  0.00    +0.000 C 
ATOM     26  C   UNL     1       3.024  14.461  18.263  0.00  0.00    +0.000 C 
ENDBRANCH  18  21
ENDBRANCH   4  18
TORSDOF 3
ENDMDL
