MODEL 1
REMARK VINA RESULT:      -7.2      0.000      0.000
REMARK  Name = 
REMARK  5 active torsions:
REMARK  status: ('A' for Active; 'I' for Inactive)
REMARK    1  A    between atoms: C_1  and  N_2
REMARK    2  A    between atoms: C_6  and  C_7
REMARK    3  A    between atoms: C_11  and  C_12
REMARK    4  A    between atoms: C_11  and  C_13
REMARK    5  A    between atoms: C_22  and  N_23
REMARK                            x       y       z     vdW  Elec       q    Type
REMARK                         _______ _______ _______ _____ _____    ______ ____
ROOT
ATOM      1  C   UNL     1       2.841   4.957  18.350  0.00  0.00    +0.000 C 
ATOM      2  C   UNL     1       3.892   4.978  17.275  0.00  0.00    +0.000 C 
ATOM      3  C   UNL     1       4.375   6.131  16.778  0.00  0.00    +0.000 C 
ATOM      4  C   UNL     1       5.376   6.187  15.638  0.00  0.00    +0.000 C 
ATOM      5  C   UNL     1       6.251   4.915  15.543  0.00  0.00    +0.000 C 
ATOM      6  C   UNL     1       7.262   4.878  16.707  0.00  0.00    +0.000 C 
ATOM      7  C   UNL     1       7.055   4.876  14.230  0.00  0.00    +0.000 C 
ATOM      8  C   UNL     1       5.339   3.684  15.556  0.00  0.00    +0.000 C 
ATOM      9  C   UNL     1       4.316   3.686  16.663  0.00  0.00    +0.000 C 
ATOM     10  O   UNL     1       3.800   2.625  16.992  0.00  0.00    +0.000 OA
ATOM     11  O   UNL     1       3.964   7.374  17.238  0.00  0.00    +0.000 OA
ATOM     12  C   UNL     1       3.036   7.462  18.263  0.00  0.00    +0.000 A 
ATOM     13  N   UNL     1       2.679   8.733  18.565  0.00  0.00    +0.000 NA
ATOM     14  C   UNL     1       1.754   8.943  19.538  0.00  0.00    +0.000 A 
ATOM     15  C   UNL     1       1.182   7.902  20.252  0.00  0.00    +0.000 A 
ATOM     16  C   UNL     1       1.547   6.576  19.914  0.00  0.00    +0.000 A 
ATOM     17  C   UNL     1       2.509   6.342  18.905  0.00  0.00    +0.000 A 
ATOM     18  C   UNL     1       0.201   8.151  21.364  0.00  0.00    +0.000 C 
ATOM     19  C   UNL     1      -0.345   9.559  21.554  0.00  0.00    +0.000 C 
ATOM     20  C   UNL     1       0.449  10.697  20.943  0.00  0.00    +0.000 C 
ATOM     21  C   UNL     1       1.333  10.373  19.741  0.00  0.00    +0.000 C 
ENDROOT
BRANCH   1  27
ATOM     22  C   UNL     1       0.874   2.492  18.891  0.00  0.00    +0.000 C 
ATOM     23  N   UNL     1       2.077   2.817  19.615  0.00  0.00    +0.000 N 
ATOM     24  C   UNL     1       2.529   2.123  20.706  0.00  0.00    +0.000 A 
ATOM     25  C   UNL     1       3.702   2.737  21.068  0.00  0.00    +0.000 A 
ATOM     26  N   UNL     1       3.985   3.761  20.215  0.00  0.00    +0.000 NA
ATOM     27  C   UNL     1       2.952   3.851  19.385  0.00  0.00    +0.000 A 
ENDBRANCH   1  27
BRANCH  16  28
ATOM     28  N   UNL     1       1.090   5.536  20.742  0.00  0.00    +0.000 N 
ATOM     29  H   UNL     1       1.518   5.447  21.653  0.00  0.00    +0.000 HD
ATOM     30  H   UNL     1       0.075   5.431  20.828  0.00  0.00    +0.000 HD
ENDBRANCH  16  28
TORSDOF 2
ENDMDL
MODEL 2
REMARK VINA RESULT:      -6.9      6.884     10.612
REMARK  Name = 
REMARK  5 active torsions:
REMARK  status: ('A' for Active; 'I' for Inactive)
REMARK    1  A    between atoms: C_1  and  N_2
REMARK    2  A    between atoms: C_6  and  C_7
REMARK    3  A    between atoms: C_11  and  C_12
REMARK    4  A    between atoms: C_11  and  C_13
REMARK    5  A    between atoms: C_22  and  N_23
REMARK                            x       y       z     vdW  Elec       q    Type
REMARK                         _______ _______ _______ _____ _____    ______ ____
ROOT
ATOM      1  C   UNL     1      -0.557  13.132  21.337  0.00  0.00    +0.000 C 
ATOM      2  C   UNL     1      -1.947  13.329  21.874  0.00  0.00    +0.000 C 
ATOM      3  C   UNL     1      -2.690  14.401  21.542  0.00  0.00    +0.000 C 
ATOM      4  C   UNL     1      -4.064  14.670  22.128  0.00  0.00    +0.000 C 
ATOM      5  C   UNL     1      -4.786  13.380  22.584  0.00  0.00    +0.000 C 
ATOM      6  C   UNL     1      -5.239  12.564  21.357  0.00  0.00    +0.000 C 
ATOM      7  C   UNL     1      -6.042  13.698  23.418  0.00  0.00    +0.000 C 
ATOM      8  C   UNL     1      -3.840  12.570  23.476  0.00  0.00    +0.000 C 
ATOM      9  C   UNL     1      -2.464  12.372  22.893  0.00  0.00    +0.000 C 
ATOM     10  O   UNL     1      -1.767  11.461  23.322  0.00  0.00    +0.000 OA
ATOM     11  O   UNL     1      -2.241  15.380  20.667  0.00  0.00    +0.000 OA
ATOM     12  C   UNL     1      -0.993  15.264  20.077  0.00  0.00    +0.000 A 
ATOM     13  N   UNL     1      -0.659  16.320  19.298  0.00  0.00    +0.000 NA
ATOM     14  C   UNL     1       0.555  16.330  18.688  0.00  0.00    +0.000 A 
ATOM     15  C   UNL     1       1.456  15.285  18.815  0.00  0.00    +0.000 A 
ATOM     16  C   UNL     1       1.106  14.195  19.649  0.00  0.00    +0.000 A 
ATOM     17  C   UNL     1      -0.155  14.169  20.288  0.00  0.00    +0.000 A 
ATOM     18  C   UNL     1       2.773  15.283  18.090  0.00  0.00    +0.000 C 
ATOM     19  C   UNL     1       3.221  16.557  17.390  0.00  0.00    +0.000 C 
ATOM     20  C   UNL     1       2.151  17.581  17.063  0.00  0.00    +0.000 C 
ATOM     21  C   UNL     1       0.893  17.584  17.928  0.00  0.00    +0.000 C 
ENDROOT
BRANCH   1  27
ATOM     22  C   UNL     1      -1.686  11.141  19.102  0.00  0.00    +0.000 C 
ATOM     23  N   UNL     1      -0.667  10.857  20.080  0.00  0.00    +0.000 N 
ATOM     24  C   UNL     1      -0.059   9.638  20.228  0.00  0.00    +0.000 A 
ATOM     25  C   UNL     1       0.854   9.807  21.238  0.00  0.00    +0.000 A 
ATOM     26  N   UNL     1       0.837  11.094  21.686  0.00  0.00    +0.000 NA
ATOM     27  C   UNL     1      -0.145  11.703  21.030  0.00  0.00    +0.000 A 
ENDBRANCH   1  27
BRANCH  16  28
ATOM     28  N   UNL     1       1.946  13.068  19.648  0.00  0.00    +0.000 N 
ATOM     29  H   UNL     1       2.935  13.226  19.791  0.00  0.00    +0.000 HD
ATOM     30  H   UNL     1       1.642  12.269  20.211  0.00  0.00    +0.000 HD
ENDBRANCH  16  28
TORSDOF 2
ENDMDL
MODEL 3
REMARK VINA RESULT:      -6.9      6.016      9.339
REMARK  Name = 
REMARK  5 active torsions:
REMARK  status: ('A' for Active; 'I' for Inactive)
REMARK    1  A    between atoms: C_1  and  N_2
REMARK    2  A    between atoms: C_6  and  C_7
REMARK    3  A    between atoms: C_11  and  C_12
REMARK    4  A    between atoms: C_11  and  C_13
REMARK    5  A    between atoms: C_22  and  N_23
REMARK                            x       y       z     vdW  Elec       q    Type
REMARK                         _______ _______ _______ _____ _____    ______ ____
ROOT
ATOM      1  C   UNL     1      -2.056  11.899  20.839  0.00  0.00    +0.000 C 
ATOM      2  C   UNL     1      -1.021  11.083  20.116  0.00  0.00    +0.000 C 
ATOM      3  C   UNL     1      -1.215  10.646  18.857  0.00  0.00    +0.000 C 
ATOM      4  C   UNL     1      -0.226   9.755  18.129  0.00  0.00    +0.000 C 
ATOM      5  C   UNL     1       1.224   9.922  18.641  0.00  0.00    +0.000 C 
ATOM      6  C   UNL     1       1.794  11.281  18.187  0.00  0.00    +0.000 C 
ATOM      7  C   UNL     1       2.151   8.823  18.088  0.00  0.00    +0.000 C 
ATOM      8  C   UNL     1       1.229   9.796  20.168  0.00  0.00    +0.000 C 
ATOM      9  C   UNL     1       0.196  10.648  20.859  0.00  0.00    +0.000 C 
ATOM     10  O   UNL     1       0.344  10.909  22.046  0.00  0.00    +0.000 OA
ATOM     11  O   UNL     1      -2.361  10.939  18.133  0.00  0.00    +0.000 OA
ATOM     12  C   UNL     1      -3.354  11.728  18.692  0.00  0.00    +0.000 A 
ATOM     13  N   UNL     1      -4.441  11.877  17.900  0.00  0.00    +0.000 NA
ATOM     14  C   UNL     1      -5.492  12.610  18.354  0.00  0.00    +0.000 A 
ATOM     15  C   UNL     1      -5.479  13.232  19.593  0.00  0.00    +0.000 A 
ATOM     16  C   UNL     1      -4.346  13.052  20.422  0.00  0.00    +0.000 A 
ATOM     17  C   UNL     1      -3.244  12.294  19.962  0.00  0.00    +0.000 A 
ATOM     18  C   UNL     1      -6.625  14.085  20.060  0.00  0.00    +0.000 C 
ATOM     19  C   UNL     1      -7.917  14.076  19.257  0.00  0.00    +0.000 C 
ATOM     20  C   UNL     1      -7.834  13.598  17.820  0.00  0.00    +0.000 C 
ATOM     21  C   UNL     1      -6.702  12.640  17.461  0.00  0.00    +0.000 C 
ENDROOT
BRANCH   1  27
ATOM     22  C   UNL     1      -0.231  14.433  20.146  0.00  0.00    +0.000 C 
ATOM     23  N   UNL     1      -0.730  14.053  21.443  0.00  0.00    +0.000 N 
ATOM     24  C   UNL     1      -0.436  14.717  22.605  0.00  0.00    +0.000 A 
ATOM     25  C   UNL     1      -1.126  14.053  23.587  0.00  0.00    +0.000 A 
ATOM     26  N   UNL     1      -1.848  13.028  23.053  0.00  0.00    +0.000 NA
ATOM     27  C   UNL     1      -1.538  12.988  21.762  0.00  0.00    +0.000 A 
ENDBRANCH   1  27
BRANCH  16  28
ATOM     28  N   UNL     1      -4.267  13.811  21.602  0.00  0.00    +0.000 N 
ATOM     29  H   UNL     1      -5.137  14.095  22.031  0.00  0.00    +0.000 HD
ATOM     30  H   UNL     1      -3.624  13.471  22.324  0.00  0.00    +0.000 HD
ENDBRANCH  16  28
TORSDOF 2
ENDMDL
MODEL 4
REMARK VINA RESULT:      -6.7      9.856     12.155
REMARK  Name = 
REMARK  5 active torsions:
REMARK  status: ('A' for Active; 'I' for Inactive)
REMARK    1  A    between atoms: C_1  and  N_2
REMARK    2  A    between atoms: C_6  and  C_7
REMARK    3  A    between atoms: C_11  and  C_12
REMARK    4  A    between atoms: C_11  and  C_13
REMARK    5  A    between atoms: C_22  and  N_23
REMARK                            x       y       z     vdW  Elec       q    Type
REMARK                         _______ _______ _______ _____ _____    ______ ____
ROOT
ATOM      1  C   UNL     1       6.939  13.922  22.074  0.00  0.00    +0.000 C 
ATOM      2  C   UNL     1       6.913  13.369  23.472  0.00  0.00    +0.000 C 
ATOM      3  C   UNL     1       7.862  12.526  23.919  0.00  0.00    +0.000 C 
ATOM      4  C   UNL     1       7.822  11.888  25.295  0.00  0.00    +0.000 C 
ATOM      5  C   UNL     1       7.035  12.732  26.326  0.00  0.00    +0.000 C 
ATOM      6  C   UNL     1       7.839  13.993  26.703  0.00  0.00    +0.000 C 
ATOM      7  C   UNL     1       6.774  11.944  27.623  0.00  0.00    +0.000 C 
ATOM      8  C   UNL     1       5.671  13.096  25.732  0.00  0.00    +0.000 C 
ATOM      9  C   UNL     1       5.739  13.671  24.340  0.00  0.00    +0.000 C 
ATOM     10  O   UNL     1       4.790  14.323  23.923  0.00  0.00    +0.000 OA
ATOM     11  O   UNL     1       8.939  12.131  23.138  0.00  0.00    +0.000 OA
ATOM     12  C   UNL     1       9.082  12.625  21.851  0.00  0.00    +0.000 A 
ATOM     13  N   UNL     1      10.139  12.106  21.184  0.00  0.00    +0.000 NA
ATOM     14  C   UNL     1      10.364  12.496  19.902  0.00  0.00    +0.000 A 
ATOM     15  C   UNL     1       9.564  13.429  19.261  0.00  0.00    +0.000 A 
ATOM     16  C   UNL     1       8.449  13.950  19.961  0.00  0.00    +0.000 A 
ATOM     17  C   UNL     1       8.203  13.555  21.296  0.00  0.00    +0.000 A 
ATOM     18  C   UNL     1       9.857  13.894  17.862  0.00  0.00    +0.000 C 
ATOM     19  C   UNL     1      10.915  13.157  17.054  0.00  0.00    +0.000 C 
ATOM     20  C   UNL     1      11.919  12.324  17.827  0.00  0.00    +0.000 C 
ATOM     21  C   UNL     1      11.492  11.796  19.194  0.00  0.00    +0.000 C 
ENDROOT
BRANCH   1  27
ATOM     22  C   UNL     1       8.160  16.617  23.291  0.00  0.00    +0.000 C 
ATOM     23  N   UNL     1       6.990  16.494  22.460  0.00  0.00    +0.000 N 
ATOM     24  C   UNL     1       6.181  17.542  22.110  0.00  0.00    +0.000 A 
ATOM     25  C   UNL     1       5.213  17.001  21.302  0.00  0.00    +0.000 A 
ATOM     26  N   UNL     1       5.427  15.666  21.131  0.00  0.00    +0.000 NA
ATOM     27  C   UNL     1       6.463  15.354  21.903  0.00  0.00    +0.000 A 
ENDBRANCH   1  27
BRANCH  16  28
ATOM     28  N   UNL     1       7.737  15.009  19.371  0.00  0.00    +0.000 N 
ATOM     29  H   UNL     1       7.269  15.656  19.992  0.00  0.00    +0.000 HD
ATOM     30  H   UNL     1       8.218  15.530  18.633  0.00  0.00    +0.000 HD
ENDBRANCH  16  28
TORSDOF 2
ENDMDL
MODEL 5
REMARK VINA RESULT:      -6.6      9.098     11.201
REMARK  Name = 
REMARK  5 active torsions:
REMARK  status: ('A' for Active; 'I' for Inactive)
REMARK    1  A    between atoms: C_1  and  N_2
REMARK    2  A    between atoms: C_6  and  C_7
REMARK    3  A    between atoms: C_11  and  C_12
REMARK    4  A    between atoms: C_11  and  C_13
REMARK    5  A    between atoms: C_22  and  N_23
REMARK                            x       y       z     vdW  Elec       q    Type
REMARK                         _______ _______ _______ _____ _____    ______ ____
ROOT
ATOM      1  C   UNL     1       8.929  14.416  22.702  0.00  0.00    +0.000 C 
ATOM      2  C   UNL     1       9.634  13.634  21.630  0.00  0.00    +0.000 C 
ATOM      3  C   UNL     1       9.464  12.306  21.494  0.00  0.00    +0.000 C 
ATOM      4  C   UNL     1      10.221  11.474  20.475  0.00  0.00    +0.000 C 
ATOM      5  C   UNL     1      10.668  12.295  19.242  0.00  0.00    +0.000 C 
ATOM      6  C   UNL     1       9.448  12.640  18.364  0.00  0.00    +0.000 C 
ATOM      7  C   UNL     1      11.661  11.507  18.366  0.00  0.00    +0.000 C 
ATOM      8  C   UNL     1      11.387  13.559  19.722  0.00  0.00    +0.000 C 
ATOM      9  C   UNL     1      10.638  14.331  20.777  0.00  0.00    +0.000 C 
ATOM     10  O   UNL     1      10.921  15.509  20.960  0.00  0.00    +0.000 OA
ATOM     11  O   UNL     1       8.611  11.574  22.308  0.00  0.00    +0.000 OA
ATOM     12  C   UNL     1       7.875  12.212  23.293  0.00  0.00    +0.000 A 
ATOM     13  N   UNL     1       7.137  11.367  24.052  0.00  0.00    +0.000 NA
ATOM     14  C   UNL     1       6.393  11.876  25.069  0.00  0.00    +0.000 A 
ATOM     15  C   UNL     1       6.344  13.234  25.342  0.00  0.00    +0.000 A 
ATOM     16  C   UNL     1       7.136  14.106  24.556  0.00  0.00    +0.000 A 
ATOM     17  C   UNL     1       7.913  13.591  23.493  0.00  0.00    +0.000 A 
ATOM     18  C   UNL     1       5.474  13.790  26.435  0.00  0.00    +0.000 C 
ATOM     19  C   UNL     1       4.815  12.822  27.406  0.00  0.00    +0.000 C 
ATOM     20  C   UNL     1       4.685  11.378  26.962  0.00  0.00    +0.000 C 
ATOM     21  C   UNL     1       5.686  10.866  25.931  0.00  0.00    +0.000 C 
ENDROOT
BRANCH   1  27
ATOM     22  C   UNL     1       6.818  15.343  20.483  0.00  0.00    +0.000 C 
ATOM     23  N   UNL     1       7.589  16.193  21.354  0.00  0.00    +0.000 N 
ATOM     24  C   UNL     1       7.565  17.562  21.312  0.00  0.00    +0.000 A 
ATOM     25  C   UNL     1       8.411  17.972  22.313  0.00  0.00    +0.000 A 
ATOM     26  N   UNL     1       8.922  16.895  22.974  0.00  0.00    +0.000 NA
ATOM     27  C   UNL     1       8.479  15.820  22.333  0.00  0.00    +0.000 A 
ENDBRANCH   1  27
BRANCH  16  28
ATOM     28  N   UNL     1       6.962  15.490  24.728  0.00  0.00    +0.000 N 
ATOM     29  H   UNL     1       6.421  15.794  25.527  0.00  0.00    +0.000 HD
ATOM     30  H   UNL     1       7.799  16.073  24.639  0.00  0.00    +0.000 HD
ENDBRANCH  16  28
TORSDOF 2
ENDMDL
MODEL 6
REMARK VINA RESULT:      -6.6      7.972     12.578
REMARK  Name = 
REMARK  5 active torsions:
REMARK  status: ('A' for Active; 'I' for Inactive)
REMARK    1  A    between atoms: C_1  and  N_2
REMARK    2  A    between atoms: C_6  and  C_7
REMARK    3  A    between atoms: C_11  and  C_12
REMARK    4  A    between atoms: C_11  and  C_13
REMARK    5  A    between atoms: C_22  and  N_23
REMARK                            x       y       z     vdW  Elec       q    Type
REMARK                         _______ _______ _______ _____ _____    ______ ____
ROOT
ATOM      1  C   UNL     1      -4.625  13.633  21.602  0.00  0.00    +0.000 C 
ATOM      2  C   UNL     1      -3.739  14.109  22.719  0.00  0.00    +0.000 C 
ATOM      3  C   UNL     1      -2.426  13.814  22.758  0.00  0.00    +0.000 C 
ATOM      4  C   UNL     1      -1.522  14.211  23.910  0.00  0.00    +0.000 C 
ATOM      5  C   UNL     1      -2.021  15.468  24.661  0.00  0.00    +0.000 C 
ATOM      6  C   UNL     1      -1.813  16.723  23.790  0.00  0.00    +0.000 C 
ATOM      7  C   UNL     1      -1.252  15.685  25.978  0.00  0.00    +0.000 C 
ATOM      8  C   UNL     1      -3.498  15.276  25.022  0.00  0.00    +0.000 C 
ATOM      9  C   UNL     1      -4.360  14.823  23.871  0.00  0.00    +0.000 C 
ATOM     10  O   UNL     1      -5.571  14.992  23.939  0.00  0.00    +0.000 OA
ATOM     11  O   UNL     1      -1.796  13.079  21.764  0.00  0.00    +0.000 OA
ATOM     12  C   UNL     1      -2.515  12.637  20.665  0.00  0.00    +0.000 A 
ATOM     13  N   UNL     1      -1.790  11.879  19.810  0.00  0.00    +0.000 NA
ATOM     14  C   UNL     1      -2.397  11.366  18.707  0.00  0.00    +0.000 A 
ATOM     15  C   UNL     1      -3.729  11.614  18.414  0.00  0.00    +0.000 A 
ATOM     16  C   UNL     1      -4.484  12.391  19.326  0.00  0.00    +0.000 A 
ATOM     17  C   UNL     1      -3.865  12.933  20.476  0.00  0.00    +0.000 A 
ATOM     18  C   UNL     1      -4.373  11.087  17.162  0.00  0.00    +0.000 C 
ATOM     19  C   UNL     1      -3.613  10.073  16.321  0.00  0.00    +0.000 C 
ATOM     20  C   UNL     1      -2.111   9.999  16.516  0.00  0.00    +0.000 C 
ATOM     21  C   UNL     1      -1.554  10.449  17.864  0.00  0.00    +0.000 C 
ENDROOT
BRANCH   1  27
ATOM     22  C   UNL     1      -4.368  16.583  20.391  0.00  0.00    +0.000 C 
ATOM     23  N   UNL     1      -5.585  15.860  20.662  0.00  0.00    +0.000 N 
ATOM     24  C   UNL     1      -6.842  16.374  20.483  0.00  0.00    +0.000 A 
ATOM     25  C   UNL     1      -7.702  15.362  20.828  0.00  0.00    +0.000 A 
ATOM     26  N   UNL     1      -7.005  14.246  21.182  0.00  0.00    +0.000 NA
ATOM     27  C   UNL     1      -5.721  14.584  21.154  0.00  0.00    +0.000 A 
ENDBRANCH   1  27
BRANCH  16  28
ATOM     28  N   UNL     1      -5.782  12.774  18.948  0.00  0.00    +0.000 N 
ATOM     29  H   UNL     1      -6.471  12.041  18.846  0.00  0.00    +0.000 HD
ATOM     30  H   UNL     1      -6.193  13.563  19.454  0.00  0.00    +0.000 HD
ENDBRANCH  16  28
TORSDOF 2
ENDMDL
MODEL 7
REMARK VINA RESULT:      -6.6      7.886     12.434
REMARK  Name = 
REMARK  5 active torsions:
REMARK  status: ('A' for Active; 'I' for Inactive)
REMARK    1  A    between atoms: C_1  and  N_2
REMARK    2  A    between atoms: C_6  and  C_7
REMARK    3  A    between atoms: C_11  and  C_12
REMARK    4  A    between atoms: C_11  and  C_13
REMARK    5  A    between atoms: C_22  and  N_23
REMARK                            x       y       z     vdW  Elec       q    Type
REMARK                         _______ _______ _______ _____ _____    ______ ____
ROOT
ATOM      1  C   UNL     1      -4.586  13.547  21.519  0.00  0.00    +0.000 C 
ATOM      2  C   UNL     1      -3.705  14.028  22.638  0.00  0.00    +0.000 C 
ATOM      3  C   UNL     1      -2.392  13.737  22.681  0.00  0.00    +0.000 C 
ATOM      4  C   UNL     1      -1.492  14.139  23.835  0.00  0.00    +0.000 C 
ATOM      5  C   UNL     1      -1.998  15.395  24.582  0.00  0.00    +0.000 C 
ATOM      6  C   UNL     1      -1.791  16.650  23.710  0.00  0.00    +0.000 C 
ATOM      7  C   UNL     1      -1.233  15.617  25.901  0.00  0.00    +0.000 C 
ATOM      8  C   UNL     1      -3.475  15.200  24.939  0.00  0.00    +0.000 C 
ATOM      9  C   UNL     1      -4.331  14.742  23.787  0.00  0.00    +0.000 C 
ATOM     10  O   UNL     1      -5.543  14.908  23.850  0.00  0.00    +0.000 OA
ATOM     11  O   UNL     1      -1.756  13.002  21.690  0.00  0.00    +0.000 OA
ATOM     12  C   UNL     1      -2.471  12.556  20.590  0.00  0.00    +0.000 A 
ATOM     13  N   UNL     1      -1.741  11.798  19.739  0.00  0.00    +0.000 NA
ATOM     14  C   UNL     1      -2.343  11.282  18.635  0.00  0.00    +0.000 A 
ATOM     15  C   UNL     1      -3.674  11.525  18.337  0.00  0.00    +0.000 A 
ATOM     16  C   UNL     1      -4.434  12.302  19.245  0.00  0.00    +0.000 A 
ATOM     17  C   UNL     1      -3.821  12.847  20.396  0.00  0.00    +0.000 A 
ATOM     18  C   UNL     1      -4.313  10.994  17.084  0.00  0.00    +0.000 C 
ATOM     19  C   UNL     1      -3.548   9.981  16.247  0.00  0.00    +0.000 C 
ATOM     20  C   UNL     1      -2.046   9.912  16.447  0.00  0.00    +0.000 C 
ATOM     21  C   UNL     1      -1.495  10.365  17.796  0.00  0.00    +0.000 C 
ENDROOT
BRANCH   1  27
ATOM     22  C   UNL     1      -7.757  13.275  21.854  0.00  0.00    +0.000 C 
ATOM     23  N   UNL     1      -7.043  14.340  21.197  0.00  0.00    +0.000 N 
ATOM     24  C   UNL     1      -7.646  15.391  20.557  0.00  0.00    +0.000 A 
ATOM     25  C   UNL     1      -6.618  16.178  20.101  0.00  0.00    +0.000 A 
ATOM     26  N   UNL     1      -5.416  15.651  20.469  0.00  0.00    +0.000 NA
ATOM     27  C   UNL     1      -5.684  14.494  21.065  0.00  0.00    +0.000 A 
ENDBRANCH   1  27
BRANCH  16  28
ATOM     28  N   UNL     1      -5.732  12.680  18.862  0.00  0.00    +0.000 N 
ATOM     29  H   UNL     1      -5.897  12.845  17.878  0.00  0.00    +0.000 HD
ATOM     30  H   UNL     1      -6.504  12.129  19.250  0.00  0.00    +0.000 HD
ENDBRANCH  16  28
TORSDOF 2
ENDMDL
MODEL 8
REMARK VINA RESULT:      -6.5      9.685     12.004
REMARK  Name = 
REMARK  5 active torsions:
REMARK  status: ('A' for Active; 'I' for Inactive)
REMARK    1  A    between atoms: C_1  and  N_2
REMARK    2  A    between atoms: C_6  and  C_7
REMARK    3  A    between atoms: C_11  and  C_12
REMARK    4  A    between atoms: C_11  and  C_13
REMARK    5  A    between atoms: C_22  and  N_23
REMARK                            x       y       z     vdW  Elec       q    Type
REMARK                         _______ _______ _______ _____ _____    ______ ____
ROOT
ATOM      1  C   UNL     1       6.981  13.914  22.052  0.00  0.00    +0.000 C 
ATOM      2  C   UNL     1       6.944  13.366  23.451  0.00  0.00    +0.000 C 
ATOM      3  C   UNL     1       7.883  12.514  23.903  0.00  0.00    +0.000 C 
ATOM      4  C   UNL     1       7.832  11.881  25.282  0.00  0.00    +0.000 C 
ATOM      5  C   UNL     1       7.051  12.736  26.307  0.00  0.00    +0.000 C 
ATOM      6  C   UNL     1       7.867  13.989  26.684  0.00  0.00    +0.000 C 
ATOM      7  C   UNL     1       6.777  11.954  27.606  0.00  0.00    +0.000 C 
ATOM      8  C   UNL     1       5.693  13.112  25.708  0.00  0.00    +0.000 C 
ATOM      9  C   UNL     1       5.771  13.682  24.315  0.00  0.00    +0.000 C 
ATOM     10  O   UNL     1       4.830  14.343  23.893  0.00  0.00    +0.000 OA
ATOM     11  O   UNL     1       8.958  12.106  23.127  0.00  0.00    +0.000 OA
ATOM     12  C   UNL     1       9.111  12.596  21.840  0.00  0.00    +0.000 A 
ATOM     13  N   UNL     1      10.164  12.064  21.177  0.00  0.00    +0.000 NA
ATOM     14  C   UNL     1      10.398  12.449  19.895  0.00  0.00    +0.000 A 
ATOM     15  C   UNL     1       9.609  13.387  19.249  0.00  0.00    +0.000 A 
ATOM     16  C   UNL     1       8.497  13.922  19.944  0.00  0.00    +0.000 A 
ATOM     17  C   UNL     1       8.243  13.532  21.279  0.00  0.00    +0.000 A 
ATOM     18  C   UNL     1       9.912  13.846  17.850  0.00  0.00    +0.000 C 
ATOM     19  C   UNL     1      10.965  13.096  17.048  0.00  0.00    +0.000 C 
ATOM     20  C   UNL     1      11.958  12.255  17.826  0.00  0.00    +0.000 C 
ATOM     21  C   UNL     1      11.521  11.735  19.193  0.00  0.00    +0.000 C 
ENDROOT
BRANCH   1  27
ATOM     22  C   UNL     1       4.358  15.029  20.598  0.00  0.00    +0.000 C 
ATOM     23  N   UNL     1       5.400  15.806  21.220  0.00  0.00    +0.000 N 
ATOM     24  C   UNL     1       5.440  17.175  21.228  0.00  0.00    +0.000 A 
ATOM     25  C   UNL     1       6.567  17.502  21.939  0.00  0.00    +0.000 A 
ATOM     26  N   UNL     1       7.193  16.377  22.384  0.00  0.00    +0.000 NA
ATOM     27  C   UNL     1       6.519  15.351  21.875  0.00  0.00    +0.000 A 
ENDBRANCH   1  27
BRANCH  16  28
ATOM     28  N   UNL     1       7.798  14.986  19.349  0.00  0.00    +0.000 N 
ATOM     29  H   UNL     1       8.343  15.766  19.008  0.00  0.00    +0.000 HD
ATOM     30  H   UNL     1       7.086  14.737  18.657  0.00  0.00    +0.000 HD
ENDBRANCH  16  28
TORSDOF 2
ENDMDL
MODEL 9
REMARK VINA RESULT:      -6.5      9.042     12.146
REMARK  Name = 
REMARK  5 active torsions:
REMARK  status: ('A' for Active; 'I' for Inactive)
REMARK    1  A    between atoms: C_1  and  N_2
REMARK    2  A    between atoms: C_6  and  C_7
REMARK    3  A    between atoms: C_11  and  C_12
REMARK    4  A    between atoms: C_11  and  C_13
REMARK    5  A    between atoms: C_22  and  N_23
REMARK                            x       y       z     vdW  Elec       q    Type
REMARK                         _______ _______ _______ _____ _____    ______ ____
ROOT
ATOM      1  C   UNL     1       6.817  14.054  22.961  0.00  0.00    +0.000 C 
ATOM      2  C   UNL     1       6.532  13.257  24.203  0.00  0.00    +0.000 C 
ATOM      3  C   UNL     1       7.022  12.016  24.378  0.00  0.00    +0.000 C 
ATOM      4  C   UNL     1       6.688  11.155  25.582  0.00  0.00    +0.000 C 
ATOM      5  C   UNL     1       6.316  11.987  26.831  0.00  0.00    +0.000 C 
ATOM      6  C   UNL     1       7.572  12.670  27.406  0.00  0.00    +0.000 C 
ATOM      7  C   UNL     1       5.718  11.104  27.944  0.00  0.00    +0.000 C 
ATOM      8  C   UNL     1       5.248  13.015  26.443  0.00  0.00    +0.000 C 
ATOM      9  C   UNL     1       5.581  13.813  25.209  0.00  0.00    +0.000 C 
ATOM     10  O   UNL     1       5.008  14.879  25.022  0.00  0.00    +0.000 OA
ATOM     11  O   UNL     1       7.843  11.399  23.444  0.00  0.00    +0.000 OA
ATOM     12  C   UNL     1       8.208  12.070  22.289  0.00  0.00    +0.000 A 
ATOM     13  N   UNL     1       8.956  11.326  21.441  0.00  0.00    +0.000 NA
ATOM     14  C   UNL     1       9.351  11.871  20.260  0.00  0.00    +0.000 A 
ATOM     15  C   UNL     1       9.036  13.173  19.904  0.00  0.00    +0.000 A 
ATOM     16  C   UNL     1       8.236  13.936  20.789  0.00  0.00    +0.000 A 
ATOM     17  C   UNL     1       7.819  13.383  22.022  0.00  0.00    +0.000 A 
ATOM     18  C   UNL     1       9.527  13.782  18.620  0.00  0.00    +0.000 C 
ATOM     19  C   UNL     1      10.185  12.878  17.589  0.00  0.00    +0.000 C 
ATOM     20  C   UNL     1      10.725  11.548  18.078  0.00  0.00    +0.000 C 
ATOM     21  C   UNL     1      10.087  10.947  19.328  0.00  0.00    +0.000 C 
ENDROOT
BRANCH   1  27
ATOM     22  C   UNL     1       9.049  15.629  24.626  0.00  0.00    +0.000 C 
ATOM     23  N   UNL     1       7.953  16.203  23.889  0.00  0.00    +0.000 N 
ATOM     24  C   UNL     1       7.673  17.543  23.843  0.00  0.00    +0.000 A 
ATOM     25  C   UNL     1       6.581  17.659  23.021  0.00  0.00    +0.000 A 
ATOM     26  N   UNL     1       6.209  16.437  22.548  0.00  0.00    +0.000 NA
ATOM     27  C   UNL     1       6.999  15.551  23.144  0.00  0.00    +0.000 A 
ENDBRANCH   1  27
BRANCH  16  28
ATOM     28  N   UNL     1       8.054  15.299  20.503  0.00  0.00    +0.000 N 
ATOM     29  H   UNL     1       8.291  15.614  19.572  0.00  0.00    +0.000 HD
ATOM     30  H   UNL     1       7.162  15.713  20.788  0.00  0.00    +0.000 HD
ENDBRANCH  16  28
TORSDOF 2
ENDMDL
