MODEL 1
REMARK VINA RESULT:      -8.7      0.000      0.000
REMARK  Name = 
REMARK  8 active torsions:
REMARK  status: ('A' for Active; 'I' for Inactive)
REMARK    1  A    between atoms: C_1  and  C_2
REMARK    2  A    between atoms: C_4  and  C_5
REMARK    3  A    between atoms: N_8  and  C_9
REMARK    4  A    between atoms: C_11  and  N_12
REMARK    5  A    between atoms: N_12  and  C_13
REMARK    6  A    between atoms: C_13  and  C_14
REMARK    7  A    between atoms: C_13  and  C_15
REMARK    8  A    between atoms: C_22  and  C_23
REMARK                            x       y       z     vdW  Elec       q    Type
REMARK                         _______ _______ _______ _____ _____    ______ ____
ROOT
ATOM      1  C   UNL     1       2.923   4.985  20.066  0.00  0.00    +0.000 A 
ATOM      2  C   UNL     1       4.144   5.568  19.681  0.00  0.00    +0.000 A 
ATOM      3  C   UNL     1       5.163   4.839  19.063  0.00  0.00    +0.000 A 
ATOM      4  C   UNL     1       4.879   3.499  18.811  0.00  0.00    +0.000 A 
ATOM      5  N   UNL     1       3.722   2.869  19.139  0.00  0.00    +0.000 NA
ATOM      6  C   UNL     1       2.774   3.627  19.768  0.00  0.00    +0.000 A 
ENDROOT
BRANCH   1  14
ATOM      7  C   UNL     1       0.137  10.051  22.300  0.00  0.00    +0.000 C 
ATOM      8  C   UNL     1       0.733   9.196  21.223  0.00  0.00    +0.000 A 
ATOM      9  C   UNL     1       1.036   9.723  19.966  0.00  0.00    +0.000 A 
ATOM     10  C   UNL     1       1.627   8.895  19.019  0.00  0.00    +0.000 A 
ATOM     11  C   UNL     1       1.963   9.392  17.647  0.00  0.00    +0.000 C 
ATOM     12  N   UNL     1       1.934   7.603  19.273  0.00  0.00    +0.000 NA
ATOM     13  C   UNL     1       1.628   7.087  20.482  0.00  0.00    +0.000 A 
ATOM     14  N   UNL     1       1.963   5.746  20.772  0.00  0.00    +0.000 N 
ATOM     15  C   UNL     1       1.017   7.851  21.470  0.00  0.00    +0.000 A 
ATOM     16  H   UNL     1       1.112   5.208  20.973  0.00  0.00    +0.000 HD
ENDBRANCH   1  14
BRANCH   6  17
ATOM     17  C   UNL     1       1.505   2.898  20.110  0.00  0.00    +0.000 C 
ATOM     18  N   UNL     1       0.762   2.475  19.040  0.00  0.00    +0.000 N 
ATOM     19  O   UNL     1       1.140   2.697  21.265  0.00  0.00    +0.000 OA
ATOM     20  H   UNL     1       1.083   2.687  18.101  0.00  0.00    +0.000 HD
ATOM     21  H   UNL     1      -0.119   2.011  19.190  0.00  0.00    +0.000 HD
ENDBRANCH   6  17
BRANCH   3  22
ATOM     22  N   UNL     1       6.317   5.529  18.689  0.00  0.00    +0.000 N 
ATOM     23  H   UNL     1       6.783   5.927  19.508  0.00  0.00    +0.000 HD
BRANCH  22  24
ATOM     24  C   UNL     1       6.349   6.444  17.537  0.00  0.00    +0.000 C 
ATOM     25  C   UNL     1       7.547   7.396  17.619  0.00  0.00    +0.000 C 
BRANCH  24  26
ATOM     26  C   UNL     1       6.402   5.691  16.223  0.00  0.00    +0.000 A 
ATOM     27  N   UNL     1       7.459   5.462  15.466  0.00  0.00    +0.000 NA
ATOM     28  C   UNL     1       7.004   4.748  14.391  0.00  0.00    +0.000 A 
ATOM     29  C   UNL     1       5.648   4.537  14.488  0.00  0.00    +0.000 A 
ATOM     30  N   UNL     1       5.278   5.136  15.658  0.00  0.00    +0.000 N 
ATOM     31  H   UNL     1       4.355   5.170  16.070  0.00  0.00    +0.000 HD
ENDBRANCH  24  26
ENDBRANCH  22  24
ENDBRANCH   3  22
TORSDOF 5
ENDMDL
MODEL 2
REMARK VINA RESULT:      -8.2      1.835      6.732
REMARK  Name = 
REMARK  8 active torsions:
REMARK  status: ('A' for Active; 'I' for Inactive)
REMARK    1  A    between atoms: C_1  and  C_2
REMARK    2  A    between atoms: C_4  and  C_5
REMARK    3  A    between atoms: N_8  and  C_9
REMARK    4  A    between atoms: C_11  and  N_12
REMARK    5  A    between atoms: N_12  and  C_13
REMARK    6  A    between atoms: C_13  and  C_14
REMARK    7  A    between atoms: C_13  and  C_15
REMARK    8  A    between atoms: C_22  and  C_23
REMARK                            x       y       z     vdW  Elec       q    Type
REMARK                         _______ _______ _______ _____ _____    ______ ____
ROOT
ATOM      1  C   UNL     1       2.810   4.565  18.423  0.00  0.00    +0.000 A 
ATOM      2  C   UNL     1       2.763   5.912  18.822  0.00  0.00    +0.000 A 
ATOM      3  C   UNL     1       2.093   6.332  19.975  0.00  0.00    +0.000 A 
ATOM      4  C   UNL     1       1.506   5.322  20.733  0.00  0.00    +0.000 A 
ATOM      5  N   UNL     1       1.520   4.001  20.422  0.00  0.00    +0.000 NA
ATOM      6  C   UNL     1       2.164   3.655  19.267  0.00  0.00    +0.000 A 
ENDROOT
BRANCH   1  14
ATOM      7  C   UNL     1       6.905   4.791  13.776  0.00  0.00    +0.000 C 
ATOM      8  C   UNL     1       6.491   4.708  15.214  0.00  0.00    +0.000 A 
ATOM      9  C   UNL     1       7.407   4.922  16.244  0.00  0.00    +0.000 A 
ATOM     10  C   UNL     1       6.959   4.875  17.559  0.00  0.00    +0.000 A 
ATOM     11  C   UNL     1       7.893   5.080  18.712  0.00  0.00    +0.000 C 
ATOM     12  N   UNL     1       5.666   4.647  17.878  0.00  0.00    +0.000 NA
ATOM     13  C   UNL     1       4.779   4.424  16.884  0.00  0.00    +0.000 A 
ATOM     14  N   UNL     1       3.421   4.206  17.199  0.00  0.00    +0.000 N 
ATOM     15  C   UNL     1       5.162   4.435  15.547  0.00  0.00    +0.000 A 
ATOM     16  H   UNL     1       3.131   3.275  16.879  0.00  0.00    +0.000 HD
ENDBRANCH   1  14
BRANCH   6  17
ATOM     17  C   UNL     1       2.164   2.184  18.958  0.00  0.00    +0.000 C 
ATOM     18  N   UNL     1       0.928   1.614  18.805  0.00  0.00    +0.000 N 
ATOM     19  O   UNL     1       3.194   1.522  18.857  0.00  0.00    +0.000 OA
ATOM     20  H   UNL     1       0.100   2.189  18.926  0.00  0.00    +0.000 HD
ATOM     21  H   UNL     1       0.846   0.625  18.632  0.00  0.00    +0.000 HD
ENDBRANCH   6  17
BRANCH   3  22
ATOM     22  N   UNL     1       2.146   7.689  20.295  0.00  0.00    +0.000 N 
ATOM     23  H   UNL     1       3.052   7.931  20.704  0.00  0.00    +0.000 HD
BRANCH  22  24
ATOM     24  C   UNL     1       1.035   8.385  20.964  0.00  0.00    +0.000 C 
ATOM     25  C   UNL     1       1.485   8.997  22.294  0.00  0.00    +0.000 C 
BRANCH  24  26
ATOM     26  C   UNL     1       0.448   9.475  20.090  0.00  0.00    +0.000 A 
ATOM     27  N   UNL     1       0.774   9.774  18.845  0.00  0.00    +0.000 NA
ATOM     28  C   UNL     1      -0.026  10.825  18.489  0.00  0.00    +0.000 A 
ATOM     29  C   UNL     1      -0.854  11.178  19.530  0.00  0.00    +0.000 A 
ATOM     30  N   UNL     1      -0.547  10.310  20.538  0.00  0.00    +0.000 N 
ATOM     31  H   UNL     1      -0.968  10.256  21.456  0.00  0.00    +0.000 HD
ENDBRANCH  24  26
ENDBRANCH  22  24
ENDBRANCH   3  22
TORSDOF 5
ENDMDL
MODEL 3
REMARK VINA RESULT:      -8.2      2.333      6.981
REMARK  Name = 
REMARK  8 active torsions:
REMARK  status: ('A' for Active; 'I' for Inactive)
REMARK    1  A    between atoms: C_1  and  C_2
REMARK    2  A    between atoms: C_4  and  C_5
REMARK    3  A    between atoms: N_8  and  C_9
REMARK    4  A    between atoms: C_11  and  N_12
REMARK    5  A    between atoms: N_12  and  C_13
REMARK    6  A    between atoms: C_13  and  C_14
REMARK    7  A    between atoms: C_13  and  C_15
REMARK    8  A    between atoms: C_22  and  C_23
REMARK                            x       y       z     vdW  Elec       q    Type
REMARK                         _______ _______ _______ _____ _____    ______ ____
ROOT
ATOM      1  C   UNL     1       2.601   6.096  18.579  0.00  0.00    +0.000 A 
ATOM      2  C   UNL     1       2.401   7.442  18.223  0.00  0.00    +0.000 A 
ATOM      3  C   UNL     1       1.834   8.374  19.097  0.00  0.00    +0.000 A 
ATOM      4  C   UNL     1       1.515   7.895  20.365  0.00  0.00    +0.000 A 
ATOM      5  N   UNL     1       1.690   6.618  20.787  0.00  0.00    +0.000 NA
ATOM      6  C   UNL     1       2.220   5.745  19.878  0.00  0.00    +0.000 A 
ENDROOT
BRANCH   1  14
ATOM      7  C   UNL     1       6.395   3.798  14.250  0.00  0.00    +0.000 C 
ATOM      8  C   UNL     1       6.066   4.393  15.586  0.00  0.00    +0.000 A 
ATOM      9  C   UNL     1       7.063   4.915  16.410  0.00  0.00    +0.000 A 
ATOM     10  C   UNL     1       6.697   5.494  17.619  0.00  0.00    +0.000 A 
ATOM     11  C   UNL     1       7.718   6.058  18.558  0.00  0.00    +0.000 C 
ATOM     12  N   UNL     1       5.409   5.585  18.020  0.00  0.00    +0.000 NA
ATOM     13  C   UNL     1       4.443   5.067  17.232  0.00  0.00    +0.000 A 
ATOM     14  N   UNL     1       3.092   5.174  17.626  0.00  0.00    +0.000 N 
ATOM     15  C   UNL     1       4.740   4.455  16.019  0.00  0.00    +0.000 A 
ATOM     16  H   UNL     1       2.686   4.239  17.745  0.00  0.00    +0.000 HD
ENDBRANCH   1  14
BRANCH   6  17
ATOM     17  C   UNL     1       2.406   4.341  20.381  0.00  0.00    +0.000 C 
ATOM     18  N   UNL     1       1.313   3.785  20.994  0.00  0.00    +0.000 N 
ATOM     19  O   UNL     1       3.461   3.724  20.268  0.00  0.00    +0.000 OA
ATOM     20  H   UNL     1       0.468   4.339  21.095  0.00  0.00    +0.000 HD
ATOM     21  H   UNL     1       1.372   2.861  21.389  0.00  0.00    +0.000 HD
ENDBRANCH   6  17
BRANCH   3  22
ATOM     22  N   UNL     1       1.719   9.691  18.651  0.00  0.00    +0.000 N 
ATOM     23  H   UNL     1       2.642  10.101  18.486  0.00  0.00    +0.000 HD
BRANCH  22  24
ATOM     24  C   UNL     1       0.791  10.654  19.267  0.00  0.00    +0.000 C 
ATOM     25  C   UNL     1       1.335  12.083  19.176  0.00  0.00    +0.000 C 
BRANCH  24  26
ATOM     26  C   UNL     1      -0.579  10.602  18.623  0.00  0.00    +0.000 A 
ATOM     27  N   UNL     1      -1.709  11.104  19.088  0.00  0.00    +0.000 NA
ATOM     28  C   UNL     1      -2.665  10.802  18.157  0.00  0.00    +0.000 A 
ATOM     29  C   UNL     1      -2.117  10.105  17.106  0.00  0.00    +0.000 A 
ATOM     30  N   UNL     1      -0.790   9.988  17.412  0.00  0.00    +0.000 N 
ATOM     31  H   UNL     1      -0.066   9.549  16.859  0.00  0.00    +0.000 HD
ENDBRANCH  24  26
ENDBRANCH  22  24
ENDBRANCH   3  22
TORSDOF 5
ENDMDL
MODEL 4
REMARK VINA RESULT:      -7.9      2.231      6.642
REMARK  Name = 
REMARK  8 active torsions:
REMARK  status: ('A' for Active; 'I' for Inactive)
REMARK    1  A    between atoms: C_1  and  C_2
REMARK    2  A    between atoms: C_4  and  C_5
REMARK    3  A    between atoms: N_8  and  C_9
REMARK    4  A    between atoms: C_11  and  N_12
REMARK    5  A    between atoms: N_12  and  C_13
REMARK    6  A    between atoms: C_13  and  C_14
REMARK    7  A    between atoms: C_13  and  C_15
REMARK    8  A    between atoms: C_22  and  C_23
REMARK                            x       y       z     vdW  Elec       q    Type
REMARK                         _______ _______ _______ _____ _____    ______ ____
ROOT
ATOM      1  C   UNL     1       2.657   5.784  18.745  0.00  0.00    +0.000 A 
ATOM      2  C   UNL     1       2.438   7.174  18.765  0.00  0.00    +0.000 A 
ATOM      3  C   UNL     1       1.773   7.816  19.813  0.00  0.00    +0.000 A 
ATOM      4  C   UNL     1       1.373   6.996  20.865  0.00  0.00    +0.000 A 
ATOM      5  N   UNL     1       1.559   5.653  20.926  0.00  0.00    +0.000 NA
ATOM      6  C   UNL     1       2.189   5.077  19.858  0.00  0.00    +0.000 A 
ENDROOT
BRANCH   1  14
ATOM      7  C   UNL     1       6.880   4.805  14.316  0.00  0.00    +0.000 C 
ATOM      8  C   UNL     1       6.417   4.991  15.729  0.00  0.00    +0.000 A 
ATOM      9  C   UNL     1       7.323   5.244  16.760  0.00  0.00    +0.000 A 
ATOM     10  C   UNL     1       6.835   5.450  18.044  0.00  0.00    +0.000 A 
ATOM     11  C   UNL     1       7.753   5.711  19.198  0.00  0.00    +0.000 C 
ATOM     12  N   UNL     1       5.514   5.433  18.331  0.00  0.00    +0.000 NA
ATOM     13  C   UNL     1       4.635   5.173  17.339  0.00  0.00    +0.000 A 
ATOM     14  N   UNL     1       3.251   5.173  17.618  0.00  0.00    +0.000 N 
ATOM     15  C   UNL     1       5.055   4.936  16.035  0.00  0.00    +0.000 A 
ATOM     16  H   UNL     1       2.854   4.247  17.423  0.00  0.00    +0.000 HD
ENDBRANCH   1  14
BRANCH   6  17
ATOM     17  C   UNL     1       2.383   3.591  19.963  0.00  0.00    +0.000 C 
ATOM     18  N   UNL     1       1.236   2.855  20.102  0.00  0.00    +0.000 N 
ATOM     19  O   UNL     1       3.488   3.057  19.937  0.00  0.00    +0.000 OA
ATOM     20  H   UNL     1       0.343   3.336  20.149  0.00  0.00    +0.000 HD
ATOM     21  H   UNL     1       1.288   1.856  20.214  0.00  0.00    +0.000 HD
ENDBRANCH   6  17
BRANCH   3  22
ATOM     22  N   UNL     1       1.648   9.204  19.745  0.00  0.00    +0.000 N 
ATOM     23  H   UNL     1       1.047   9.552  20.496  0.00  0.00    +0.000 HD
BRANCH  22  24
ATOM     24  C   UNL     1       1.411   9.913  18.477  0.00  0.00    +0.000 C 
ATOM     25  C   UNL     1      -0.046   9.773  18.027  0.00  0.00    +0.000 C 
BRANCH  24  26
ATOM     26  C   UNL     1       1.759  11.384  18.584  0.00  0.00    +0.000 A 
ATOM     27  N   UNL     1       1.473  12.211  19.573  0.00  0.00    +0.000 NA
ATOM     28  C   UNL     1       1.991  13.424  19.210  0.00  0.00    +0.000 A 
ATOM     29  C   UNL     1       2.604  13.342  17.982  0.00  0.00    +0.000 A 
ATOM     30  N   UNL     1       2.454  12.040  17.596  0.00  0.00    +0.000 N 
ATOM     31  H   UNL     1       2.794  11.603  16.750  0.00  0.00    +0.000 HD
ENDBRANCH  24  26
ENDBRANCH  22  24
ENDBRANCH   3  22
TORSDOF 5
ENDMDL
MODEL 5
REMARK VINA RESULT:      -7.8      1.742      6.409
REMARK  Name = 
REMARK  8 active torsions:
REMARK  status: ('A' for Active; 'I' for Inactive)
REMARK    1  A    between atoms: C_1  and  C_2
REMARK    2  A    between atoms: C_4  and  C_5
REMARK    3  A    between atoms: N_8  and  C_9
REMARK    4  A    between atoms: C_11  and  N_12
REMARK    5  A    between atoms: N_12  and  C_13
REMARK    6  A    between atoms: C_13  and  C_14
REMARK    7  A    between atoms: C_13  and  C_15
REMARK    8  A    between atoms: C_22  and  C_23
REMARK                            x       y       z     vdW  Elec       q    Type
REMARK                         _______ _______ _______ _____ _____    ______ ____
ROOT
ATOM      1  C   UNL     1       2.559   4.471  18.523  0.00  0.00    +0.000 A 
ATOM      2  C   UNL     1       2.712   5.762  19.060  0.00  0.00    +0.000 A 
ATOM      3  C   UNL     1       1.973   6.214  20.157  0.00  0.00    +0.000 A 
ATOM      4  C   UNL     1       1.099   5.286  20.717  0.00  0.00    +0.000 A 
ATOM      5  N   UNL     1       0.905   4.020  20.267  0.00  0.00    +0.000 NA
ATOM      6  C   UNL     1       1.634   3.646  19.172  0.00  0.00    +0.000 A 
ENDROOT
BRANCH   1  14
ATOM      7  C   UNL     1       6.864   4.791  14.076  0.00  0.00    +0.000 C 
ATOM      8  C   UNL     1       6.381   4.755  15.495  0.00  0.00    +0.000 A 
ATOM      9  C   UNL     1       7.220   5.108  16.553  0.00  0.00    +0.000 A 
ATOM     10  C   UNL     1       6.707   5.097  17.844  0.00  0.00    +0.000 A 
ATOM     11  C   UNL     1       7.556   5.451  19.026  0.00  0.00    +0.000 C 
ATOM     12  N   UNL     1       5.422   4.774  18.114  0.00  0.00    +0.000 NA
ATOM     13  C   UNL     1       4.613   4.417  17.094  0.00  0.00    +0.000 A 
ATOM     14  N   UNL     1       3.263   4.098  17.355  0.00  0.00    +0.000 N 
ATOM     15  C   UNL     1       5.065   4.384  15.779  0.00  0.00    +0.000 A 
ATOM     16  H   UNL     1       3.072   3.128  17.080  0.00  0.00    +0.000 HD
ENDBRANCH   1  14
BRANCH   6  17
ATOM     17  C   UNL     1       1.399   2.237  18.705  0.00  0.00    +0.000 C 
ATOM     18  N   UNL     1       2.499   1.421  18.718  0.00  0.00    +0.000 N 
ATOM     19  O   UNL     1       0.304   1.833  18.325  0.00  0.00    +0.000 OA
ATOM     20  H   UNL     1       3.394   1.801  19.011  0.00  0.00    +0.000 HD
ATOM     21  H   UNL     1       2.428   0.473  18.385  0.00  0.00    +0.000 HD
ENDBRANCH   6  17
BRANCH   3  22
ATOM     22  N   UNL     1       2.236   7.500  20.629  0.00  0.00    +0.000 N 
ATOM     23  H   UNL     1       2.915   7.475  21.393  0.00  0.00    +0.000 HD
BRANCH  22  24
ATOM     24  C   UNL     1       1.169   8.484  20.872  0.00  0.00    +0.000 C 
ATOM     25  C   UNL     1       1.255   9.056  22.290  0.00  0.00    +0.000 C 
BRANCH  24  26
ATOM     26  C   UNL     1       1.218   9.622  19.873  0.00  0.00    +0.000 A 
ATOM     27  N   UNL     1       0.856  10.878  20.062  0.00  0.00    +0.000 NA
ATOM     28  C   UNL     1       1.084  11.518  18.874  0.00  0.00    +0.000 A 
ATOM     29  C   UNL     1       1.592  10.643  17.942  0.00  0.00    +0.000 A 
ATOM     30  N   UNL     1       1.677   9.444  18.590  0.00  0.00    +0.000 N 
ATOM     31  H   UNL     1       2.025   8.567  18.223  0.00  0.00    +0.000 HD
ENDBRANCH  24  26
ENDBRANCH  22  24
ENDBRANCH   3  22
TORSDOF 5
ENDMDL
MODEL 6
REMARK VINA RESULT:      -7.8      0.913      1.171
REMARK  Name = 
REMARK  8 active torsions:
REMARK  status: ('A' for Active; 'I' for Inactive)
REMARK    1  A    between atoms: C_1  and  C_2
REMARK    2  A    between atoms: C_4  and  C_5
REMARK    3  A    between atoms: N_8  and  C_9
REMARK    4  A    between atoms: C_11  and  N_12
REMARK    5  A    between atoms: N_12  and  C_13
REMARK    6  A    between atoms: C_13  and  C_14
REMARK    7  A    between atoms: C_13  and  C_15
REMARK    8  A    between atoms: C_22  and  C_23
REMARK                            x       y       z     vdW  Elec       q    Type
REMARK                         _______ _______ _______ _____ _____    ______ ____
ROOT
ATOM      1  C   UNL     1       2.993   5.326  20.015  0.00  0.00    +0.000 A 
ATOM      2  C   UNL     1       3.868   6.032  19.170  0.00  0.00    +0.000 A 
ATOM      3  C   UNL     1       4.905   5.408  18.470  0.00  0.00    +0.000 A 
ATOM      4  C   UNL     1       4.994   4.027  18.630  0.00  0.00    +0.000 A 
ATOM      5  N   UNL     1       4.181   3.275  19.414  0.00  0.00    +0.000 NA
ATOM      6  C   UNL     1       3.205   3.945  20.097  0.00  0.00    +0.000 A 
ENDROOT
BRANCH   1  14
ATOM      7  C   UNL     1       0.034  10.187  22.470  0.00  0.00    +0.000 C 
ATOM      8  C   UNL     1       0.635   9.390  21.352  0.00  0.00    +0.000 A 
ATOM      9  C   UNL     1       0.868   9.961  20.100  0.00  0.00    +0.000 A 
ATOM     10  C   UNL     1       1.467   9.188  19.113  0.00  0.00    +0.000 A 
ATOM     11  C   UNL     1       1.731   9.734  17.744  0.00  0.00    +0.000 C 
ATOM     12  N   UNL     1       1.848   7.908  19.323  0.00  0.00    +0.000 NA
ATOM     13  C   UNL     1       1.609   7.347  20.528  0.00  0.00    +0.000 A 
ATOM     14  N   UNL     1       2.020   6.019  20.771  0.00  0.00    +0.000 N 
ATOM     15  C   UNL     1       0.995   8.055  21.555  0.00  0.00    +0.000 A 
ATOM     16  H   UNL     1       1.206   5.434  20.987  0.00  0.00    +0.000 HD
ENDBRANCH   1  14
BRANCH   6  17
ATOM     17  C   UNL     1       2.320   3.080  20.950  0.00  0.00    +0.000 C 
ATOM     18  N   UNL     1       1.515   2.207  20.268  0.00  0.00    +0.000 N 
ATOM     19  O   UNL     1       2.301   3.147  22.176  0.00  0.00    +0.000 OA
ATOM     20  H   UNL     1       1.538   2.203  19.253  0.00  0.00    +0.000 HD
ATOM     21  H   UNL     1       0.869   1.620  20.769  0.00  0.00    +0.000 HD
ENDBRANCH   6  17
BRANCH   3  22
ATOM     22  N   UNL     1       5.687   6.201  17.630  0.00  0.00    +0.000 N 
ATOM     23  H   UNL     1       5.108   6.661  16.923  0.00  0.00    +0.000 HD
BRANCH  22  24
ATOM     24  C   UNL     1       6.970   5.737  17.077  0.00  0.00    +0.000 C 
ATOM     25  C   UNL     1       7.644   4.729  18.012  0.00  0.00    +0.000 C 
BRANCH  24  26
ATOM     26  C   UNL     1       6.796   5.108  15.710  0.00  0.00    +0.000 A 
ATOM     27  N   UNL     1       5.930   4.176  15.355  0.00  0.00    +0.000 NA
ATOM     28  C   UNL     1       6.161   3.936  14.027  0.00  0.00    +0.000 A 
ATOM     29  C   UNL     1       7.182   4.730  13.561  0.00  0.00    +0.000 A 
ATOM     30  N   UNL     1       7.574   5.474  14.638  0.00  0.00    +0.000 N 
ATOM     31  H   UNL     1       8.294   6.184  14.669  0.00  0.00    +0.000 HD
ENDBRANCH  24  26
ENDBRANCH  22  24
ENDBRANCH   3  22
TORSDOF 5
ENDMDL
MODEL 7
REMARK VINA RESULT:      -7.7      2.425      7.289
REMARK  Name = 
REMARK  8 active torsions:
REMARK  status: ('A' for Active; 'I' for Inactive)
REMARK    1  A    between atoms: C_1  and  C_2
REMARK    2  A    between atoms: C_4  and  C_5
REMARK    3  A    between atoms: N_8  and  C_9
REMARK    4  A    between atoms: C_11  and  N_12
REMARK    5  A    between atoms: N_12  and  C_13
REMARK    6  A    between atoms: C_13  and  C_14
REMARK    7  A    between atoms: C_13  and  C_15
REMARK    8  A    between atoms: C_22  and  C_23
REMARK                            x       y       z     vdW  Elec       q    Type
REMARK                         _______ _______ _______ _____ _____    ______ ____
ROOT
ATOM      1  C   UNL     1       2.702   6.620  18.312  0.00  0.00    +0.000 A 
ATOM      2  C   UNL     1       2.429   7.914  17.833  0.00  0.00    +0.000 A 
ATOM      3  C   UNL     1       1.817   8.894  18.620  0.00  0.00    +0.000 A 
ATOM      4  C   UNL     1       1.531   8.521  19.931  0.00  0.00    +0.000 A 
ATOM      5  N   UNL     1       1.776   7.300  20.470  0.00  0.00    +0.000 NA
ATOM      6  C   UNL     1       2.347   6.374  19.643  0.00  0.00    +0.000 A 
ENDROOT
BRANCH   1  14
ATOM      7  C   UNL     1       6.560   4.140  14.143  0.00  0.00    +0.000 C 
ATOM      8  C   UNL     1       6.217   4.848  15.419  0.00  0.00    +0.000 A 
ATOM      9  C   UNL     1       7.192   5.517  16.160  0.00  0.00    +0.000 A 
ATOM     10  C   UNL     1       6.810   6.191  17.313  0.00  0.00    +0.000 A 
ATOM     11  C   UNL     1       7.808   6.916  18.163  0.00  0.00    +0.000 C 
ATOM     12  N   UNL     1       5.527   6.240  17.736  0.00  0.00    +0.000 NA
ATOM     13  C   UNL     1       4.584   5.580  17.030  0.00  0.00    +0.000 A 
ATOM     14  N   UNL     1       3.236   5.638  17.446  0.00  0.00    +0.000 N 
ATOM     15  C   UNL     1       4.898   4.867  15.879  0.00  0.00    +0.000 A 
ATOM     16  H   UNL     1       2.897   4.696  17.670  0.00  0.00    +0.000 HD
ENDBRANCH   1  14
BRANCH   6  17
ATOM     17  C   UNL     1       2.610   5.036  20.275  0.00  0.00    +0.000 C 
ATOM     18  N   UNL     1       1.600   4.548  21.062  0.00  0.00    +0.000 N 
ATOM     19  O   UNL     1       3.656   4.415  20.115  0.00  0.00    +0.000 OA
ATOM     20  H   UNL     1       0.762   5.106  21.193  0.00  0.00    +0.000 HD
ATOM     21  H   UNL     1       1.717   3.674  21.548  0.00  0.00    +0.000 HD
ENDBRANCH   6  17
BRANCH   3  22
ATOM     22  N   UNL     1       1.631  10.155  18.053  0.00  0.00    +0.000 N 
ATOM     23  H   UNL     1       2.240  10.282  17.241  0.00  0.00    +0.000 HD
BRANCH  22  24
ATOM     24  C   UNL     1       1.533  11.378  18.866  0.00  0.00    +0.000 C 
ATOM     25  C   UNL     1       2.211  12.562  18.169  0.00  0.00    +0.000 C 
BRANCH  24  26
ATOM     26  C   UNL     1       0.092  11.738  19.166  0.00  0.00    +0.000 A 
ATOM     27  N   UNL     1      -0.824  12.175  18.321  0.00  0.00    +0.000 NA
ATOM     28  C   UNL     1      -1.960  12.359  19.061  0.00  0.00    +0.000 A 
ATOM     29  C   UNL     1      -1.740  12.032  20.378  0.00  0.00    +0.000 A 
ATOM     30  N   UNL     1      -0.434  11.634  20.432  0.00  0.00    +0.000 N 
ATOM     31  H   UNL     1       0.078  11.303  21.239  0.00  0.00    +0.000 HD
ENDBRANCH  24  26
ENDBRANCH  22  24
ENDBRANCH   3  22
TORSDOF 5
ENDMDL
MODEL 8
REMARK VINA RESULT:      -7.7      1.992      6.915
REMARK  Name = 
REMARK  8 active torsions:
REMARK  status: ('A' for Active; 'I' for Inactive)
REMARK    1  A    between atoms: C_1  and  C_2
REMARK    2  A    between atoms: C_4  and  C_5
REMARK    3  A    between atoms: N_8  and  C_9
REMARK    4  A    between atoms: C_11  and  N_12
REMARK    5  A    between atoms: N_12  and  C_13
REMARK    6  A    between atoms: C_13  and  C_14
REMARK    7  A    between atoms: C_13  and  C_15
REMARK    8  A    between atoms: C_22  and  C_23
REMARK                            x       y       z     vdW  Elec       q    Type
REMARK                         _______ _______ _______ _____ _____    ______ ____
ROOT
ATOM      1  C   UNL     1       2.756   5.065  18.646  0.00  0.00    +0.000 A 
ATOM      2  C   UNL     1       2.492   6.446  18.676  0.00  0.00    +0.000 A 
ATOM      3  C   UNL     1       1.914   7.077  19.781  0.00  0.00    +0.000 A 
ATOM      4  C   UNL     1       1.652   6.256  20.875  0.00  0.00    +0.000 A 
ATOM      5  N   UNL     1       1.891   4.921  20.928  0.00  0.00    +0.000 NA
ATOM      6  C   UNL     1       2.429   4.355  19.806  0.00  0.00    +0.000 A 
ENDROOT
BRANCH   1  14
ATOM      7  C   UNL     1       6.532   4.189  13.809  0.00  0.00    +0.000 C 
ATOM      8  C   UNL     1       6.211   4.378  15.261  0.00  0.00    +0.000 A 
ATOM      9  C   UNL     1       7.209   4.681  16.188  0.00  0.00    +0.000 A 
ATOM     10  C   UNL     1       6.849   4.887  17.514  0.00  0.00    +0.000 A 
ATOM     11  C   UNL     1       7.871   5.201  18.563  0.00  0.00    +0.000 C 
ATOM     12  N   UNL     1       5.567   4.822  17.938  0.00  0.00    +0.000 NA
ATOM     13  C   UNL     1       4.601   4.512  17.047  0.00  0.00    +0.000 A 
ATOM     14  N   UNL     1       3.255   4.461  17.468  0.00  0.00    +0.000 N 
ATOM     15  C   UNL     1       4.892   4.272  15.708  0.00  0.00    +0.000 A 
ATOM     16  H   UNL     1       2.879   3.517  17.326  0.00  0.00    +0.000 HD
ENDBRANCH   1  14
BRANCH   6  17
ATOM     17  C   UNL     1       2.686   2.878  19.903  0.00  0.00    +0.000 C 
ATOM     18  N   UNL     1       3.150   2.438  21.114  0.00  0.00    +0.000 N 
ATOM     19  O   UNL     1       2.506   2.105  18.965  0.00  0.00    +0.000 OA
ATOM     20  H   UNL     1       3.315   3.113  21.855  0.00  0.00    +0.000 HD
ATOM     21  H   UNL     1       3.379   1.466  21.244  0.00  0.00    +0.000 HD
ENDBRANCH   6  17
BRANCH   3  22
ATOM     22  N   UNL     1       1.733   8.459  19.715  0.00  0.00    +0.000 N 
ATOM     23  H   UNL     1       2.627   8.947  19.808  0.00  0.00    +0.000 HD
BRANCH  22  24
ATOM     24  C   UNL     1       0.651   9.148  20.436  0.00  0.00    +0.000 C 
ATOM     25  C   UNL     1       1.119   9.622  21.816  0.00  0.00    +0.000 C 
BRANCH  24  26
ATOM     26  C   UNL     1       0.124  10.334  19.655  0.00  0.00    +0.000 A 
ATOM     27  N   UNL     1       0.650  11.543  19.570  0.00  0.00    +0.000 NA
ATOM     28  C   UNL     1      -0.185  12.260  18.756  0.00  0.00    +0.000 A 
ATOM     29  C   UNL     1      -1.238  11.482  18.337  0.00  0.00    +0.000 A 
ATOM     30  N   UNL     1      -1.029  10.260  18.910  0.00  0.00    +0.000 N 
ATOM     31  H   UNL     1      -1.593   9.426  18.812  0.00  0.00    +0.000 HD
ENDBRANCH  24  26
ENDBRANCH  22  24
ENDBRANCH   3  22
TORSDOF 5
ENDMDL
MODEL 9
REMARK VINA RESULT:      -7.7      1.351      2.362
REMARK  Name = 
REMARK  8 active torsions:
REMARK  status: ('A' for Active; 'I' for Inactive)
REMARK    1  A    between atoms: C_1  and  C_2
REMARK    2  A    between atoms: C_4  and  C_5
REMARK    3  A    between atoms: N_8  and  C_9
REMARK    4  A    between atoms: C_11  and  N_12
REMARK    5  A    between atoms: N_12  and  C_13
REMARK    6  A    between atoms: C_13  and  C_14
REMARK    7  A    between atoms: C_13  and  C_15
REMARK    8  A    between atoms: C_22  and  C_23
REMARK                            x       y       z     vdW  Elec       q    Type
REMARK                         _______ _______ _______ _____ _____    ______ ____
ROOT
ATOM      1  C   UNL     1       3.115   4.917  19.826  0.00  0.00    +0.000 A 
ATOM      2  C   UNL     1       4.407   5.455  19.682  0.00  0.00    +0.000 A 
ATOM      3  C   UNL     1       5.433   4.779  19.016  0.00  0.00    +0.000 A 
ATOM      4  C   UNL     1       5.084   3.549  18.462  0.00  0.00    +0.000 A 
ATOM      5  N   UNL     1       3.860   2.971  18.546  0.00  0.00    +0.000 NA
ATOM      6  C   UNL     1       2.905   3.666  19.236  0.00  0.00    +0.000 A 
ENDROOT
BRANCH   1  14
ATOM      7  C   UNL     1       0.185   9.741  22.386  0.00  0.00    +0.000 C 
ATOM      8  C   UNL     1       0.792   8.970  21.253  0.00  0.00    +0.000 A 
ATOM      9  C   UNL     1       1.050   9.576  20.023  0.00  0.00    +0.000 A 
ATOM     10  C   UNL     1       1.653   8.825  19.021  0.00  0.00    +0.000 A 
ATOM     11  C   UNL     1       1.944   9.409  17.673  0.00  0.00    +0.000 C 
ATOM     12  N   UNL     1       2.014   7.535  19.197  0.00  0.00    +0.000 NA
ATOM     13  C   UNL     1       1.751   6.941  20.381  0.00  0.00    +0.000 A 
ATOM     14  N   UNL     1       2.141   5.600  20.590  0.00  0.00    +0.000 N 
ATOM     15  C   UNL     1       1.131   7.626  21.421  0.00  0.00    +0.000 A 
ATOM     16  H   UNL     1       1.316   5.020  20.776  0.00  0.00    +0.000 HD
ENDBRANCH   1  14
BRANCH   6  17
ATOM     17  C   UNL     1       1.560   2.999  19.303  0.00  0.00    +0.000 C 
ATOM     18  N   UNL     1       1.397   1.918  18.477  0.00  0.00    +0.000 N 
ATOM     19  O   UNL     1       0.655   3.391  20.034  0.00  0.00    +0.000 OA
ATOM     20  H   UNL     1       2.159   1.644  17.865  0.00  0.00    +0.000 HD
ATOM     21  H   UNL     1       0.511   1.441  18.440  0.00  0.00    +0.000 HD
ENDBRANCH   6  17
BRANCH   3  22
ATOM     22  N   UNL     1       6.664   5.425  18.900  0.00  0.00    +0.000 N 
ATOM     23  H   UNL     1       6.840   6.019  19.714  0.00  0.00    +0.000 HD
BRANCH  22  24
ATOM     24  C   UNL     1       7.106   6.061  17.648  0.00  0.00    +0.000 C 
ATOM     25  C   UNL     1       5.958   6.154  16.639  0.00  0.00    +0.000 C 
BRANCH  24  26
ATOM     26  C   UNL     1       7.668   7.447  17.891  0.00  0.00    +0.000 A 
ATOM     27  N   UNL     1       7.409   8.552  17.216  0.00  0.00    +0.000 NA
ATOM     28  C   UNL     1       8.152   9.537  17.809  0.00  0.00    +0.000 A 
ATOM     29  C   UNL     1       8.879   9.029  18.860  0.00  0.00    +0.000 A 
ATOM     30  N   UNL     1       8.559   7.702  18.906  0.00  0.00    +0.000 N 
ATOM     31  H   UNL     1       8.890   7.009  19.564  0.00  0.00    +0.000 HD
ENDBRANCH  24  26
ENDBRANCH  22  24
ENDBRANCH   3  22
TORSDOF 5
ENDMDL
