MODEL 1
REMARK VINA RESULT:      -6.0      0.000      0.000
REMARK  Name = 
REMARK  5 active torsions:
REMARK  status: ('A' for Active; 'I' for Inactive)
REMARK    1  A    between atoms: C_1  and  C_2
REMARK    2  A    between atoms: N_4  and  C_5
REMARK    3  A    between atoms: C_6  and  C_7
REMARK    4  A    between atoms: C_10  and  C_11
REMARK    5  A    between atoms: C_13  and  C_14
REMARK                            x       y       z     vdW  Elec       q    Type
REMARK                         _______ _______ _______ _____ _____    ______ ____
ROOT
ATOM      1  C   UNL     1       4.872   4.038  17.544  0.00  0.00    +0.000 A 
ATOM      2  C   UNL     1       5.329   4.774  18.663  0.00  0.00    +0.000 A 
ATOM      3  C   UNL     1       6.625   5.465  18.881  0.00  0.00    +0.000 C 
ATOM      4  N   UNL     1       4.371   4.889  19.589  0.00  0.00    +0.000 NA
ATOM      5  N   UNL     1       3.289   4.237  19.084  0.00  0.00    +0.000 N 
ATOM      6  C   UNL     1       2.076   4.220  19.808  0.00  0.00    +0.000 C 
ATOM      7  C   UNL     1       2.097   4.834  21.180  0.00  0.00    +0.000 C 
ATOM      8  O   UNL     1       1.070   3.711  19.322  0.00  0.00    +0.000 OA
ATOM      9  C   UNL     1       3.576   3.679  17.839  0.00  0.00    +0.000 A 
ATOM     10  C   UNL     1       2.665   2.785  17.075  0.00  0.00    +0.000 C 
ENDROOT
BRANCH   1  14
ATOM     11  C   UNL     1       6.399   3.985  14.160  0.00  0.00    +0.000 C 
ATOM     12  C   UNL     1       5.657   4.585  15.323  0.00  0.00    +0.000 C 
ATOM     13  O   UNL     1       5.280   5.751  15.316  0.00  0.00    +0.000 OA
ATOM     14  N   UNL     1       5.507   3.690  16.366  0.00  0.00    +0.000 N 
ATOM     15  H   UNL     1       6.198   2.951  16.431  0.00  0.00    +0.000 HD
ENDBRANCH   1  14
TORSDOF 1
ENDMDL
MODEL 2
REMARK VINA RESULT:      -5.9      2.434      3.516
REMARK  Name = 
REMARK  5 active torsions:
REMARK  status: ('A' for Active; 'I' for Inactive)
REMARK    1  A    between atoms: C_1  and  C_2
REMARK    2  A    between atoms: N_4  and  C_5
REMARK    3  A    between atoms: C_6  and  C_7
REMARK    4  A    between atoms: C_10  and  C_11
REMARK    5  A    between atoms: C_13  and  C_14
REMARK                            x       y       z     vdW  Elec       q    Type
REMARK                         _______ _______ _______ _____ _____    ______ ____
ROOT
ATOM      1  C   UNL     1       5.558   6.116  16.987  0.00  0.00    +0.000 A 
ATOM      2  C   UNL     1       5.851   4.813  16.519  0.00  0.00    +0.000 A 
ATOM      3  C   UNL     1       7.107   4.272  15.940  0.00  0.00    +0.000 C 
ATOM      4  N   UNL     1       4.827   3.980  16.734  0.00  0.00    +0.000 NA
ATOM      5  N   UNL     1       3.865   4.727  17.342  0.00  0.00    +0.000 N 
ATOM      6  C   UNL     1       2.659   4.119  17.754  0.00  0.00    +0.000 C 
ATOM      7  C   UNL     1       2.460   2.679  17.374  0.00  0.00    +0.000 C 
ATOM      8  O   UNL     1       1.822   4.763  18.382  0.00  0.00    +0.000 OA
ATOM      9  C   UNL     1       4.276   6.051  17.486  0.00  0.00    +0.000 A 
ATOM     10  C   UNL     1       3.418   7.160  17.981  0.00  0.00    +0.000 C 
ENDROOT
BRANCH   1  14
ATOM     11  C   UNL     1       8.088   8.760  17.611  0.00  0.00    +0.000 C 
ATOM     12  C   UNL     1       7.414   7.430  17.808  0.00  0.00    +0.000 C 
ATOM     13  O   UNL     1       7.848   6.597  18.595  0.00  0.00    +0.000 OA
ATOM     14  N   UNL     1       6.315   7.273  16.985  0.00  0.00    +0.000 N 
ATOM     15  H   UNL     1       6.315   7.806  16.124  0.00  0.00    +0.000 HD
ENDBRANCH   1  14
TORSDOF 1
ENDMDL
MODEL 3
REMARK VINA RESULT:      -5.7      1.425      5.131
REMARK  Name = 
REMARK  5 active torsions:
REMARK  status: ('A' for Active; 'I' for Inactive)
REMARK    1  A    between atoms: C_1  and  C_2
REMARK    2  A    between atoms: N_4  and  C_5
REMARK    3  A    between atoms: C_6  and  C_7
REMARK    4  A    between atoms: C_10  and  C_11
REMARK    5  A    between atoms: C_13  and  C_14
REMARK                            x       y       z     vdW  Elec       q    Type
REMARK                         _______ _______ _______ _____ _____    ______ ____
ROOT
ATOM      1  C   UNL     1       3.603   4.325  18.124  0.00  0.00    +0.000 A 
ATOM      2  C   UNL     1       4.206   3.195  17.523  0.00  0.00    +0.000 A 
ATOM      3  C   UNL     1       4.035   1.752  17.829  0.00  0.00    +0.000 C 
ATOM      4  N   UNL     1       4.966   3.549  16.482  0.00  0.00    +0.000 NA
ATOM      5  N   UNL     1       4.865   4.903  16.394  0.00  0.00    +0.000 N 
ATOM      6  C   UNL     1       5.519   5.592  15.349  0.00  0.00    +0.000 C 
ATOM      7  C   UNL     1       6.408   4.776  14.452  0.00  0.00    +0.000 C 
ATOM      8  O   UNL     1       5.363   6.802  15.208  0.00  0.00    +0.000 OA
ATOM      9  C   UNL     1       4.054   5.411  17.408  0.00  0.00    +0.000 A 
ATOM     10  C   UNL     1       3.845   6.857  17.687  0.00  0.00    +0.000 C 
ENDROOT
BRANCH   1  14
ATOM     11  C   UNL     1       0.712   4.157  20.448  0.00  0.00    +0.000 C 
ATOM     12  C   UNL     1       1.447   3.949  19.152  0.00  0.00    +0.000 C 
ATOM     13  O   UNL     1       0.926   3.380  18.199  0.00  0.00    +0.000 OA
ATOM     14  N   UNL     1       2.741   4.430  19.201  0.00  0.00    +0.000 N 
ATOM     15  H   UNL     1       3.173   4.475  20.116  0.00  0.00    +0.000 HD
ENDBRANCH   1  14
TORSDOF 1
ENDMDL
MODEL 4
REMARK VINA RESULT:      -5.7      1.450      1.498
REMARK  Name = 
REMARK  5 active torsions:
REMARK  status: ('A' for Active; 'I' for Inactive)
REMARK    1  A    between atoms: C_1  and  C_2
REMARK    2  A    between atoms: N_4  and  C_5
REMARK    3  A    between atoms: C_6  and  C_7
REMARK    4  A    between atoms: C_10  and  C_11
REMARK    5  A    between atoms: C_13  and  C_14
REMARK                            x       y       z     vdW  Elec       q    Type
REMARK                         _______ _______ _______ _____ _____    ______ ____
ROOT
ATOM      1  C   UNL     1       4.079   4.441  17.126  0.00  0.00    +0.000 A 
ATOM      2  C   UNL     1       3.901   5.643  17.851  0.00  0.00    +0.000 A 
ATOM      3  C   UNL     1       4.190   7.044  17.454  0.00  0.00    +0.000 C 
ATOM      4  N   UNL     1       3.306   5.414  19.027  0.00  0.00    +0.000 NA
ATOM      5  N   UNL     1       3.092   4.071  19.077  0.00  0.00    +0.000 N 
ATOM      6  C   UNL     1       2.422   3.506  20.185  0.00  0.00    +0.000 C 
ATOM      7  C   UNL     1       2.092   4.432  21.322  0.00  0.00    +0.000 C 
ATOM      8  O   UNL     1       2.145   2.310  20.199  0.00  0.00    +0.000 OA
ATOM      9  C   UNL     1       3.582   3.443  17.933  0.00  0.00    +0.000 A 
ATOM     10  C   UNL     1       3.636   1.971  17.726  0.00  0.00    +0.000 C 
ENDROOT
BRANCH   1  14
ATOM     11  C   UNL     1       6.352   3.871  14.245  0.00  0.00    +0.000 C 
ATOM     12  C   UNL     1       5.996   4.163  15.678  0.00  0.00    +0.000 C 
ATOM     13  O   UNL     1       6.855   4.303  16.540  0.00  0.00    +0.000 OA
ATOM     14  N   UNL     1       4.629   4.206  15.879  0.00  0.00    +0.000 N 
ATOM     15  H   UNL     1       4.060   3.674  15.232  0.00  0.00    +0.000 HD
ENDBRANCH   1  14
TORSDOF 1
ENDMDL
MODEL 5
REMARK VINA RESULT:      -5.7      2.480      4.715
REMARK  Name = 
REMARK  5 active torsions:
REMARK  status: ('A' for Active; 'I' for Inactive)
REMARK    1  A    between atoms: C_1  and  C_2
REMARK    2  A    between atoms: N_4  and  C_5
REMARK    3  A    between atoms: C_6  and  C_7
REMARK    4  A    between atoms: C_10  and  C_11
REMARK    5  A    between atoms: C_13  and  C_14
REMARK                            x       y       z     vdW  Elec       q    Type
REMARK                         _______ _______ _______ _____ _____    ______ ____
ROOT
ATOM      1  C   UNL     1       3.351   5.214  18.755  0.00  0.00    +0.000 A 
ATOM      2  C   UNL     1       3.428   6.497  18.161  0.00  0.00    +0.000 A 
ATOM      3  C   UNL     1       2.356   7.493  17.909  0.00  0.00    +0.000 C 
ATOM      4  N   UNL     1       4.694   6.825  17.884  0.00  0.00    +0.000 NA
ATOM      5  N   UNL     1       5.448   5.769  18.294  0.00  0.00    +0.000 N 
ATOM      6  C   UNL     1       6.855   5.826  18.187  0.00  0.00    +0.000 C 
ATOM      7  C   UNL     1       7.435   7.028  17.497  0.00  0.00    +0.000 C 
ATOM      8  O   UNL     1       7.549   4.916  18.634  0.00  0.00    +0.000 OA
ATOM      9  C   UNL     1       4.646   4.752  18.809  0.00  0.00    +0.000 A 
ATOM     10  C   UNL     1       5.133   3.406  19.215  0.00  0.00    +0.000 C 
ENDROOT
BRANCH   1  14
ATOM     11  C   UNL     1       0.458   2.914  19.118  0.00  0.00    +0.000 C 
ATOM     12  C   UNL     1       1.585   3.602  18.396  0.00  0.00    +0.000 C 
ATOM     13  O   UNL     1       1.853   3.346  17.227  0.00  0.00    +0.000 OA
ATOM     14  N   UNL     1       2.265   4.488  19.210  0.00  0.00    +0.000 N 
ATOM     15  H   UNL     1       2.237   4.301  20.204  0.00  0.00    +0.000 HD
ENDBRANCH   1  14
TORSDOF 1
ENDMDL
MODEL 6
REMARK VINA RESULT:      -5.7      2.211      4.765
REMARK  Name = 
REMARK  5 active torsions:
REMARK  status: ('A' for Active; 'I' for Inactive)
REMARK    1  A    between atoms: C_1  and  C_2
REMARK    2  A    between atoms: N_4  and  C_5
REMARK    3  A    between atoms: C_6  and  C_7
REMARK    4  A    between atoms: C_10  and  C_11
REMARK    5  A    between atoms: C_13  and  C_14
REMARK                            x       y       z     vdW  Elec       q    Type
REMARK                         _______ _______ _______ _____ _____    ______ ____
ROOT
ATOM      1  C   UNL     1       3.478   5.151  17.627  0.00  0.00    +0.000 A 
ATOM      2  C   UNL     1       3.543   6.522  17.975  0.00  0.00    +0.000 A 
ATOM      3  C   UNL     1       2.501   7.403  18.560  0.00  0.00    +0.000 C 
ATOM      4  N   UNL     1       4.776   7.007  17.797  0.00  0.00    +0.000 NA
ATOM      5  N   UNL     1       5.521   5.965  17.338  0.00  0.00    +0.000 N 
ATOM      6  C   UNL     1       6.902   6.139  17.099  0.00  0.00    +0.000 C 
ATOM      7  C   UNL     1       7.447   7.532  17.253  0.00  0.00    +0.000 C 
ATOM      8  O   UNL     1       7.600   5.184  16.769  0.00  0.00    +0.000 OA
ATOM      9  C   UNL     1       4.743   4.817  17.198  0.00  0.00    +0.000 A 
ATOM     10  C   UNL     1       5.208   3.542  16.589  0.00  0.00    +0.000 C 
ENDROOT
BRANCH   1  14
ATOM     11  C   UNL     1       0.922   2.643  18.607  0.00  0.00    +0.000 C 
ATOM     12  C   UNL     1       2.118   3.535  18.803  0.00  0.00    +0.000 C 
ATOM     13  O   UNL     1       2.697   3.609  19.880  0.00  0.00    +0.000 OA
ATOM     14  N   UNL     1       2.427   4.254  17.664  0.00  0.00    +0.000 N 
ATOM     15  H   UNL     1       1.665   4.430  17.020  0.00  0.00    +0.000 HD
ENDBRANCH   1  14
TORSDOF 1
ENDMDL
MODEL 7
REMARK VINA RESULT:      -5.6      1.142      5.275
REMARK  Name = 
REMARK  5 active torsions:
REMARK  status: ('A' for Active; 'I' for Inactive)
REMARK    1  A    between atoms: C_1  and  C_2
REMARK    2  A    between atoms: N_4  and  C_5
REMARK    3  A    between atoms: C_6  and  C_7
REMARK    4  A    between atoms: C_10  and  C_11
REMARK    5  A    between atoms: C_13  and  C_14
REMARK                            x       y       z     vdW  Elec       q    Type
REMARK                         _______ _______ _______ _____ _____    ______ ____
ROOT
ATOM      1  C   UNL     1       4.439   3.914  18.574  0.00  0.00    +0.000 A 
ATOM      2  C   UNL     1       4.037   3.338  17.345  0.00  0.00    +0.000 A 
ATOM      3  C   UNL     1       2.873   2.467  17.040  0.00  0.00    +0.000 C 
ATOM      4  N   UNL     1       4.821   3.745  16.341  0.00  0.00    +0.000 NA
ATOM      5  N   UNL     1       5.732   4.586  16.902  0.00  0.00    +0.000 N 
ATOM      6  C   UNL     1       6.685   5.235  16.086  0.00  0.00    +0.000 C 
ATOM      7  C   UNL     1       6.709   4.851  14.633  0.00  0.00    +0.000 C 
ATOM      8  O   UNL     1       7.454   6.063  16.568  0.00  0.00    +0.000 OA
ATOM      9  C   UNL     1       5.539   4.688  18.278  0.00  0.00    +0.000 A 
ATOM     10  C   UNL     1       6.441   5.411  19.214  0.00  0.00    +0.000 C 
ENDROOT
BRANCH   1  14
ATOM     11  C   UNL     1       2.325   4.032  21.624  0.00  0.00    +0.000 C 
ATOM     12  C   UNL     1       2.687   4.315  20.191  0.00  0.00    +0.000 C 
ATOM     13  O   UNL     1       1.926   4.915  19.440  0.00  0.00    +0.000 OA
ATOM     14  N   UNL     1       3.918   3.789  19.849  0.00  0.00    +0.000 N 
ATOM     15  H   UNL     1       4.233   2.989  20.384  0.00  0.00    +0.000 HD
ENDBRANCH   1  14
TORSDOF 1
ENDMDL
MODEL 8
REMARK VINA RESULT:      -5.6      1.948      3.033
REMARK  Name = 
REMARK  5 active torsions:
REMARK  status: ('A' for Active; 'I' for Inactive)
REMARK    1  A    between atoms: C_1  and  C_2
REMARK    2  A    between atoms: N_4  and  C_5
REMARK    3  A    between atoms: C_6  and  C_7
REMARK    4  A    between atoms: C_10  and  C_11
REMARK    5  A    between atoms: C_13  and  C_14
REMARK                            x       y       z     vdW  Elec       q    Type
REMARK                         _______ _______ _______ _____ _____    ______ ____
ROOT
ATOM      1  C   UNL     1       4.514   5.274  17.754  0.00  0.00    +0.000 A 
ATOM      2  C   UNL     1       4.349   4.071  17.026  0.00  0.00    +0.000 A 
ATOM      3  C   UNL     1       5.222   3.458  15.994  0.00  0.00    +0.000 C 
ATOM      4  N   UNL     1       3.268   3.402  17.440  0.00  0.00    +0.000 NA
ATOM      5  N   UNL     1       2.724   4.156  18.434  0.00  0.00    +0.000 N 
ATOM      6  C   UNL     1       1.583   3.691  19.124  0.00  0.00    +0.000 C 
ATOM      7  C   UNL     1       0.955   2.422  18.621  0.00  0.00    +0.000 C 
ATOM      8  O   UNL     1       1.137   4.320  20.080  0.00  0.00    +0.000 OA
ATOM      9  C   UNL     1       3.454   5.327  18.630  0.00  0.00    +0.000 A 
ATOM     10  C   UNL     1       3.057   6.435  19.539  0.00  0.00    +0.000 C 
ENDROOT
BRANCH   1  14
ATOM     11  C   UNL     1       7.650   7.255  17.925  0.00  0.00    +0.000 C 
ATOM     12  C   UNL     1       6.770   6.053  18.140  0.00  0.00    +0.000 C 
ATOM     13  O   UNL     1       7.200   5.020  18.640  0.00  0.00    +0.000 OA
ATOM     14  N   UNL     1       5.484   6.257  17.676  0.00  0.00    +0.000 N 
ATOM     15  H   UNL     1       5.374   6.937  16.934  0.00  0.00    +0.000 HD
ENDBRANCH   1  14
TORSDOF 1
ENDMDL
MODEL 9
REMARK VINA RESULT:      -5.6      1.414      5.362
REMARK  Name = 
REMARK  5 active torsions:
REMARK  status: ('A' for Active; 'I' for Inactive)
REMARK    1  A    between atoms: C_1  and  C_2
REMARK    2  A    between atoms: N_4  and  C_5
REMARK    3  A    between atoms: C_6  and  C_7
REMARK    4  A    between atoms: C_10  and  C_11
REMARK    5  A    between atoms: C_13  and  C_14
REMARK                            x       y       z     vdW  Elec       q    Type
REMARK                         _______ _______ _______ _____ _____    ______ ____
ROOT
ATOM      1  C   UNL     1       4.034   4.393  18.547  0.00  0.00    +0.000 A 
ATOM      2  C   UNL     1       3.627   3.877  17.293  0.00  0.00    +0.000 A 
ATOM      3  C   UNL     1       2.322   3.301  16.882  0.00  0.00    +0.000 C 
ATOM      4  N   UNL     1       4.584   4.036  16.372  0.00  0.00    +0.000 NA
ATOM      5  N   UNL     1       5.613   4.655  17.012  0.00  0.00    +0.000 N 
ATOM      6  C   UNL     1       6.772   5.017  16.291  0.00  0.00    +0.000 C 
ATOM      7  C   UNL     1       6.846   4.573  14.857  0.00  0.00    +0.000 C 
ATOM      8  O   UNL     1       7.669   5.654  16.836  0.00  0.00    +0.000 OA
ATOM      9  C   UNL     1       5.314   4.863  18.357  0.00  0.00    +0.000 A 
ATOM     10  C   UNL     1       6.269   5.388  19.370  0.00  0.00    +0.000 C 
ENDROOT
BRANCH   1  14
ATOM     11  C   UNL     1       2.307   3.638  21.746  0.00  0.00    +0.000 C 
ATOM     12  C   UNL     1       2.985   3.318  20.441  0.00  0.00    +0.000 C 
ATOM     13  O   UNL     1       3.180   2.162  20.082  0.00  0.00    +0.000 OA
ATOM     14  N   UNL     1       3.375   4.456  19.761  0.00  0.00    +0.000 N 
ATOM     15  H   UNL     1       3.547   5.281  20.322  0.00  0.00    +0.000 HD
ENDBRANCH   1  14
TORSDOF 1
ENDMDL
