MODEL 1
REMARK VINA RESULT:      -7.6      0.000      0.000
REMARK  Name = 
REMARK  8 active torsions:
REMARK  status: ('A' for Active; 'I' for Inactive)
REMARK    1  A    between atoms: C_1  and  C_2
REMARK    2  A    between atoms: C_10  and  C_11
REMARK    3  A    between atoms: C_15  and  N_16
REMARK    4  A    between atoms: C_21  and  O_22
REMARK    5  A    between atoms: C_21  and  O_23
REMARK    6  A    between atoms: O_23  and  C_24
REMARK    7  A    between atoms: C_24  and  C_25
REMARK    8  A    between atoms: C_24  and  C_26
REMARK                            x       y       z     vdW  Elec       q    Type
REMARK                         _______ _______ _______ _____ _____    ______ ____
ROOT
ATOM      1  C   UNL     1       3.839   3.017  15.805  0.00  0.00    +0.000 C 
ATOM      2  C   UNL     1       3.567   3.499  17.218  0.00  0.00    +0.000 C 
ATOM      3  N   UNL     1       2.693   2.777  17.852  0.00  0.00    +0.000 NA
ATOM      4  C   UNL     1       2.498   3.099  19.150  0.00  0.00    +0.000 A 
ATOM      5  C   UNL     1       1.739   2.375  19.986  0.00  0.00    +0.000 A 
ATOM      6  C   UNL     1       1.864   3.038  21.300  0.00  0.00    +0.000 A 
ATOM      7  O   UNL     1       1.217   2.771  22.296  0.00  0.00    +0.000 OA
ATOM      8  N   UNL     1       2.823   4.032  21.157  0.00  0.00    +0.000 N 
ATOM      9  N   UNL     1       3.092   4.142  19.803  0.00  0.00    +0.000 N 
ATOM     10  C   UNL     1       3.779   5.240  19.136  0.00  0.00    +0.000 C 
ATOM     11  C   UNL     1       4.291   4.728  17.766  0.00  0.00    +0.000 C 
ATOM     12  C   UNL     1       5.334   5.354  17.172  0.00  0.00    +0.000 C 
ATOM     13  H   UNL     1       2.972   4.762  21.841  0.00  0.00    +0.000 HD
ENDROOT
BRANCH  10  14
ATOM     14  C   UNL     1       2.919   6.536  19.069  0.00  0.00    +0.000 A 
ATOM     15  C   UNL     1       2.881   7.358  17.922  0.00  0.00    +0.000 A 
ATOM     16  C   UNL     1       2.249   8.607  17.904  0.00  0.00    +0.000 A 
ATOM     17  C   UNL     1       1.594   9.073  19.033  0.00  0.00    +0.000 A 
ATOM     18  C   UNL     1       1.584   8.277  20.178  0.00  0.00    +0.000 A 
ATOM     19  C   UNL     1       2.245   7.036  20.200  0.00  0.00    +0.000 A 
BRANCH  18  20
ATOM     20  N   UNL     1       0.887   8.747  21.382  0.00  0.00    +0.000 N 
ATOM     21  O   UNL     1       1.509   9.487  22.157  0.00  0.00    +0.000 OA
ATOM     22  O   UNL     1      -0.279   8.368  21.556  0.00  0.00    +0.000 OA
ENDBRANCH  18  20
ENDBRANCH  10  14
BRANCH  12  23
ATOM     23  O   UNL     1       5.847   5.016  15.946  0.00  0.00    +0.000 OA
ATOM     24  H   UNL     1       5.343   4.249  15.619  0.00  0.00    +0.000 HD
ENDBRANCH  12  23
BRANCH  12  25
ATOM     25  O   UNL     1       5.849   6.467  17.804  0.00  0.00    +0.000 OA
BRANCH  25  26
ATOM     26  C   UNL     1       7.240   6.779  17.730  0.00  0.00    +0.000 C 
ATOM     27  C   UNL     1       7.503   8.285  17.728  0.00  0.00    +0.000 C 
ATOM     28  C   UNL     1       7.828   6.179  19.013  0.00  0.00    +0.000 C 
ENDBRANCH  25  26
ENDBRANCH  12  25
TORSDOF 5
ENDMDL
MODEL 2
REMARK VINA RESULT:      -7.5      0.450      1.008
REMARK  Name = 
REMARK  8 active torsions:
REMARK  status: ('A' for Active; 'I' for Inactive)
REMARK    1  A    between atoms: C_1  and  C_2
REMARK    2  A    between atoms: C_10  and  C_11
REMARK    3  A    between atoms: C_15  and  N_16
REMARK    4  A    between atoms: C_21  and  O_22
REMARK    5  A    between atoms: C_21  and  O_23
REMARK    6  A    between atoms: O_23  and  C_24
REMARK    7  A    between atoms: C_24  and  C_25
REMARK    8  A    between atoms: C_24  and  C_26
REMARK                            x       y       z     vdW  Elec       q    Type
REMARK                         _______ _______ _______ _____ _____    ______ ____
ROOT
ATOM      1  C   UNL     1       3.466   3.170  15.812  0.00  0.00    +0.000 C 
ATOM      2  C   UNL     1       3.250   3.605  17.249  0.00  0.00    +0.000 C 
ATOM      3  N   UNL     1       2.401   2.863  17.894  0.00  0.00    +0.000 NA
ATOM      4  C   UNL     1       2.258   3.142  19.208  0.00  0.00    +0.000 A 
ATOM      5  C   UNL     1       1.532   2.390  20.049  0.00  0.00    +0.000 A 
ATOM      6  C   UNL     1       1.710   3.010  21.378  0.00  0.00    +0.000 A 
ATOM      7  O   UNL     1       1.103   2.710  22.389  0.00  0.00    +0.000 OA
ATOM      8  N   UNL     1       2.662   4.009  21.229  0.00  0.00    +0.000 N 
ATOM      9  N   UNL     1       2.878   4.164  19.871  0.00  0.00    +0.000 N 
ATOM     10  C   UNL     1       3.539   5.283  19.213  0.00  0.00    +0.000 C 
ATOM     11  C   UNL     1       3.996   4.817  17.808  0.00  0.00    +0.000 C 
ATOM     12  C   UNL     1       5.015   5.462  17.193  0.00  0.00    +0.000 C 
ATOM     13  H   UNL     1       2.839   4.716  21.931  0.00  0.00    +0.000 HD
ENDROOT
BRANCH  10  14
ATOM     14  C   UNL     1       2.678   6.580  19.223  0.00  0.00    +0.000 A 
ATOM     15  C   UNL     1       2.534   7.399  18.082  0.00  0.00    +0.000 A 
ATOM     16  C   UNL     1       1.904   8.649  18.119  0.00  0.00    +0.000 A 
ATOM     17  C   UNL     1       1.357   9.118  19.303  0.00  0.00    +0.000 A 
ATOM     18  C   UNL     1       1.452   8.325  20.445  0.00  0.00    +0.000 A 
ATOM     19  C   UNL     1       2.111   7.084  20.410  0.00  0.00    +0.000 A 
BRANCH  18  20
ATOM     20  N   UNL     1       0.870   8.799  21.707  0.00  0.00    +0.000 N 
ATOM     21  O   UNL     1      -0.347   8.639  21.878  0.00  0.00    +0.000 OA
ATOM     22  O   UNL     1       1.628   9.342  22.523  0.00  0.00    +0.000 OA
ENDBRANCH  18  20
ENDBRANCH  10  14
BRANCH  12  23
ATOM     23  O   UNL     1       5.479   5.164  15.938  0.00  0.00    +0.000 OA
ATOM     24  H   UNL     1       4.953   5.681  15.302  0.00  0.00    +0.000 HD
ENDBRANCH  12  23
BRANCH  12  25
ATOM     25  O   UNL     1       5.555   6.554  17.840  0.00  0.00    +0.000 OA
BRANCH  25  26
ATOM     26  C   UNL     1       6.891   6.528  18.340  0.00  0.00    +0.000 C 
ATOM     27  C   UNL     1       7.566   5.171  18.139  0.00  0.00    +0.000 C 
ATOM     28  C   UNL     1       7.630   7.574  17.494  0.00  0.00    +0.000 C 
ENDBRANCH  25  26
ENDBRANCH  12  25
TORSDOF 5
ENDMDL
MODEL 3
REMARK VINA RESULT:      -7.3      1.016      1.089
REMARK  Name = 
REMARK  8 active torsions:
REMARK  status: ('A' for Active; 'I' for Inactive)
REMARK    1  A    between atoms: C_1  and  C_2
REMARK    2  A    between atoms: C_10  and  C_11
REMARK    3  A    between atoms: C_15  and  N_16
REMARK    4  A    between atoms: C_21  and  O_22
REMARK    5  A    between atoms: C_21  and  O_23
REMARK    6  A    between atoms: O_23  and  C_24
REMARK    7  A    between atoms: C_24  and  C_25
REMARK    8  A    between atoms: C_24  and  C_26
REMARK                            x       y       z     vdW  Elec       q    Type
REMARK                         _______ _______ _______ _____ _____    ______ ____
ROOT
ATOM      1  C   UNL     1       5.072   3.626  15.096  0.00  0.00    +0.000 C 
ATOM      2  C   UNL     1       4.643   3.959  16.513  0.00  0.00    +0.000 C 
ATOM      3  N   UNL     1       3.850   3.072  17.036  0.00  0.00    +0.000 NA
ATOM      4  C   UNL     1       3.528   3.267  18.334  0.00  0.00    +0.000 A 
ATOM      5  C   UNL     1       2.838   2.380  19.065  0.00  0.00    +0.000 A 
ATOM      6  C   UNL     1       2.779   2.957  20.424  0.00  0.00    +0.000 A 
ATOM      7  O   UNL     1       2.119   2.526  21.351  0.00  0.00    +0.000 OA
ATOM      8  N   UNL     1       3.582   4.089  20.413  0.00  0.00    +0.000 N 
ATOM      9  N   UNL     1       3.915   4.336  19.092  0.00  0.00    +0.000 N 
ATOM     10  C   UNL     1       4.468   5.568  18.546  0.00  0.00    +0.000 C 
ATOM     11  C   UNL     1       5.136   5.238  17.187  0.00  0.00    +0.000 C 
ATOM     12  C   UNL     1       6.107   6.052  16.710  0.00  0.00    +0.000 C 
ATOM     13  H   UNL     1       3.576   4.781  21.150  0.00  0.00    +0.000 HD
ENDROOT
BRANCH  10  14
ATOM     14  C   UNL     1       3.427   6.725  18.498  0.00  0.00    +0.000 A 
ATOM     15  C   UNL     1       3.305   7.585  17.385  0.00  0.00    +0.000 A 
ATOM     16  C   UNL     1       2.494   8.726  17.392  0.00  0.00    +0.000 A 
ATOM     17  C   UNL     1       1.740   9.038  18.513  0.00  0.00    +0.000 A 
ATOM     18  C   UNL     1       1.811   8.196  19.623  0.00  0.00    +0.000 A 
ATOM     19  C   UNL     1       2.649   7.067  19.621  0.00  0.00    +0.000 A 
BRANCH  18  20
ATOM     20  N   UNL     1       1.012   8.502  20.816  0.00  0.00    +0.000 N 
ATOM     21  O   UNL     1       0.747   9.691  21.044  0.00  0.00    +0.000 OA
ATOM     22  O   UNL     1       0.659   7.554  21.531  0.00  0.00    +0.000 OA
ENDBRANCH  18  20
ENDBRANCH  10  14
BRANCH  12  23
ATOM     23  O   UNL     1       6.741   5.883  15.506  0.00  0.00    +0.000 OA
ATOM     24  H   UNL     1       7.693   6.026  15.654  0.00  0.00    +0.000 HD
ENDBRANCH  12  23
BRANCH  12  25
ATOM     25  O   UNL     1       6.406   7.180  17.446  0.00  0.00    +0.000 OA
BRANCH  25  26
ATOM     26  C   UNL     1       7.759   7.586  17.654  0.00  0.00    +0.000 C 
ATOM     27  C   UNL     1       7.885   9.085  17.927  0.00  0.00    +0.000 C 
ATOM     28  C   UNL     1       8.193   6.820  18.910  0.00  0.00    +0.000 C 
ENDBRANCH  25  26
ENDBRANCH  12  25
TORSDOF 5
ENDMDL
MODEL 4
REMARK VINA RESULT:      -7.1      4.469      8.450
REMARK  Name = 
REMARK  8 active torsions:
REMARK  status: ('A' for Active; 'I' for Inactive)
REMARK    1  A    between atoms: C_1  and  C_2
REMARK    2  A    between atoms: C_10  and  C_11
REMARK    3  A    between atoms: C_15  and  N_16
REMARK    4  A    between atoms: C_21  and  O_22
REMARK    5  A    between atoms: C_21  and  O_23
REMARK    6  A    between atoms: O_23  and  C_24
REMARK    7  A    between atoms: C_24  and  C_25
REMARK    8  A    between atoms: C_24  and  C_26
REMARK                            x       y       z     vdW  Elec       q    Type
REMARK                         _______ _______ _______ _____ _____    ______ ____
ROOT
ATOM      1  C   UNL     1      -2.887  13.662  21.360  0.00  0.00    +0.000 C 
ATOM      2  C   UNL     1      -2.370  12.779  20.240  0.00  0.00    +0.000 C 
ATOM      3  N   UNL     1      -3.314  12.219  19.545  0.00  0.00    +0.000 NA
ATOM      4  C   UNL     1      -2.908  11.511  18.468  0.00  0.00    +0.000 A 
ATOM      5  C   UNL     1      -3.751  10.986  17.567  0.00  0.00    +0.000 A 
ATOM      6  C   UNL     1      -2.888  10.371  16.537  0.00  0.00    +0.000 A 
ATOM      7  O   UNL     1      -3.267   9.668  15.619  0.00  0.00    +0.000 OA
ATOM      8  N   UNL     1      -1.581  10.720  16.850  0.00  0.00    +0.000 N 
ATOM      9  N   UNL     1      -1.607  11.297  18.109  0.00  0.00    +0.000 N 
ATOM     10  C   UNL     1      -0.467  11.532  18.985  0.00  0.00    +0.000 C 
ATOM     11  C   UNL     1      -0.867  12.613  20.020  0.00  0.00    +0.000 C 
ATOM     12  C   UNL     1       0.099  13.347  20.620  0.00  0.00    +0.000 C 
ATOM     13  H   UNL     1      -0.774  10.283  16.427  0.00  0.00    +0.000 HD
ENDROOT
BRANCH  10  14
ATOM     14  C   UNL     1       0.100  10.218  19.599  0.00  0.00    +0.000 A 
ATOM     15  C   UNL     1      -0.183   9.821  20.924  0.00  0.00    +0.000 A 
ATOM     16  C   UNL     1       0.449   8.736  21.544  0.00  0.00    +0.000 A 
ATOM     17  C   UNL     1       1.373   7.977  20.844  0.00  0.00    +0.000 A 
ATOM     18  C   UNL     1       1.658   8.319  19.522  0.00  0.00    +0.000 A 
ATOM     19  C   UNL     1       1.043   9.427  18.914  0.00  0.00    +0.000 A 
BRANCH  18  20
ATOM     20  N   UNL     1       2.627   7.521  18.760  0.00  0.00    +0.000 N 
ATOM     21  O   UNL     1       3.036   7.981  17.685  0.00  0.00    +0.000 OA
ATOM     22  O   UNL     1       2.970   6.428  19.233  0.00  0.00    +0.000 OA
ENDBRANCH  18  20
ENDBRANCH  10  14
BRANCH  12  23
ATOM     23  O   UNL     1      -0.132  14.302  21.576  0.00  0.00    +0.000 OA
ATOM     24  H   UNL     1      -1.025  14.148  21.934  0.00  0.00    +0.000 HD
ENDBRANCH  12  23
BRANCH  12  25
ATOM     25  O   UNL     1       1.409  13.040  20.315  0.00  0.00    +0.000 OA
BRANCH  25  26
ATOM     26  C   UNL     1       2.259  13.992  19.676  0.00  0.00    +0.000 C 
ATOM     27  C   UNL     1       3.467  14.368  20.534  0.00  0.00    +0.000 C 
ATOM     28  C   UNL     1       2.756  13.267  18.418  0.00  0.00    +0.000 C 
ENDBRANCH  25  26
ENDBRANCH  12  25
TORSDOF 5
ENDMDL
MODEL 5
REMARK VINA RESULT:      -6.9      6.410      9.509
REMARK  Name = 
REMARK  8 active torsions:
REMARK  status: ('A' for Active; 'I' for Inactive)
REMARK    1  A    between atoms: C_1  and  C_2
REMARK    2  A    between atoms: C_10  and  C_11
REMARK    3  A    between atoms: C_15  and  N_16
REMARK    4  A    between atoms: C_21  and  O_22
REMARK    5  A    between atoms: C_21  and  O_23
REMARK    6  A    between atoms: O_23  and  C_24
REMARK    7  A    between atoms: C_24  and  C_25
REMARK    8  A    between atoms: C_24  and  C_26
REMARK                            x       y       z     vdW  Elec       q    Type
REMARK                         _______ _______ _______ _____ _____    ______ ____
ROOT
ATOM      1  C   UNL     1       0.404   9.158  21.381  0.00  0.00    +0.000 C 
ATOM      2  C   UNL     1      -0.375  10.100  20.482  0.00  0.00    +0.000 C 
ATOM      3  N   UNL     1      -0.476   9.681  19.256  0.00  0.00    +0.000 NA
ATOM      4  C   UNL     1      -1.254  10.429  18.443  0.00  0.00    +0.000 A 
ATOM      5  C   UNL     1      -1.578  10.069  17.192  0.00  0.00    +0.000 A 
ATOM      6  C   UNL     1      -2.487  11.127  16.705  0.00  0.00    +0.000 A 
ATOM      7  O   UNL     1      -2.894  11.245  15.565  0.00  0.00    +0.000 OA
ATOM      8  N   UNL     1      -2.743  11.962  17.784  0.00  0.00    +0.000 N 
ATOM      9  N   UNL     1      -1.869  11.597  18.795  0.00  0.00    +0.000 N 
ATOM     10  C   UNL     1      -1.541  12.369  19.986  0.00  0.00    +0.000 C 
ATOM     11  C   UNL     1      -0.949  11.401  21.041  0.00  0.00    +0.000 C 
ATOM     12  C   UNL     1      -1.005  11.734  22.352  0.00  0.00    +0.000 C 
ATOM     13  H   UNL     1      -3.179  12.870  17.692  0.00  0.00    +0.000 HD
ENDROOT
BRANCH  10  14
ATOM     14  C   UNL     1      -0.657  13.612  19.672  0.00  0.00    +0.000 A 
ATOM     15  C   UNL     1      -1.139  14.933  19.800  0.00  0.00    +0.000 A 
ATOM     16  C   UNL     1      -0.417  16.051  19.366  0.00  0.00    +0.000 A 
ATOM     17  C   UNL     1       0.843  15.892  18.810  0.00  0.00    +0.000 A 
ATOM     18  C   UNL     1       1.367  14.605  18.693  0.00  0.00    +0.000 A 
ATOM     19  C   UNL     1       0.626  13.484  19.104  0.00  0.00    +0.000 A 
BRANCH  18  20
ATOM     20  N   UNL     1       2.705  14.417  18.116  0.00  0.00    +0.000 N 
ATOM     21  O   UNL     1       3.268  13.330  18.308  0.00  0.00    +0.000 OA
ATOM     22  O   UNL     1       3.195  15.361  17.482  0.00  0.00    +0.000 OA
ENDBRANCH  18  20
ENDBRANCH  10  14
BRANCH  12  23
ATOM     23  O   UNL     1      -0.483  10.977  23.369  0.00  0.00    +0.000 OA
ATOM     24  H   UNL     1       0.414  11.311  23.551  0.00  0.00    +0.000 HD
ENDBRANCH  12  23
BRANCH  12  25
ATOM     25  O   UNL     1      -1.539  12.965  22.671  0.00  0.00    +0.000 OA
BRANCH  25  26
ATOM     26  C   UNL     1      -2.601  13.085  23.617  0.00  0.00    +0.000 C 
ATOM     27  C   UNL     1      -2.706  14.492  24.205  0.00  0.00    +0.000 C 
ATOM     28  C   UNL     1      -3.868  12.798  22.800  0.00  0.00    +0.000 C 
ENDBRANCH  25  26
ENDBRANCH  12  25
TORSDOF 5
ENDMDL
MODEL 6
REMARK VINA RESULT:      -6.9      6.589      9.500
REMARK  Name = 
REMARK  8 active torsions:
REMARK  status: ('A' for Active; 'I' for Inactive)
REMARK    1  A    between atoms: C_1  and  C_2
REMARK    2  A    between atoms: C_10  and  C_11
REMARK    3  A    between atoms: C_15  and  N_16
REMARK    4  A    between atoms: C_21  and  O_22
REMARK    5  A    between atoms: C_21  and  O_23
REMARK    6  A    between atoms: O_23  and  C_24
REMARK    7  A    between atoms: C_24  and  C_25
REMARK    8  A    between atoms: C_24  and  C_26
REMARK                            x       y       z     vdW  Elec       q    Type
REMARK                         _______ _______ _______ _____ _____    ______ ____
ROOT
ATOM      1  C   UNL     1       0.340   9.387  21.546  0.00  0.00    +0.000 C 
ATOM      2  C   UNL     1      -0.423  10.274  20.580  0.00  0.00    +0.000 C 
ATOM      3  N   UNL     1      -0.473   9.801  19.371  0.00  0.00    +0.000 NA
ATOM      4  C   UNL     1      -1.234  10.499  18.500  0.00  0.00    +0.000 A 
ATOM      5  C   UNL     1      -1.507  10.079  17.255  0.00  0.00    +0.000 A 
ATOM      6  C   UNL     1      -2.417  11.098  16.691  0.00  0.00    +0.000 A 
ATOM      7  O   UNL     1      -2.785  11.159  15.533  0.00  0.00    +0.000 OA
ATOM      8  N   UNL     1      -2.725  11.974  17.723  0.00  0.00    +0.000 N 
ATOM      9  N   UNL     1      -1.882  11.669  18.778  0.00  0.00    +0.000 N 
ATOM     10  C   UNL     1      -1.609  12.498  19.945  0.00  0.00    +0.000 C 
ATOM     11  C   UNL     1      -1.039  11.587  21.061  0.00  0.00    +0.000 C 
ATOM     12  C   UNL     1      -1.147  11.975  22.354  0.00  0.00    +0.000 C 
ATOM     13  H   UNL     1      -3.173  12.868  17.576  0.00  0.00    +0.000 HD
ENDROOT
BRANCH  10  14
ATOM     14  C   UNL     1      -0.736  13.742  19.608  0.00  0.00    +0.000 A 
ATOM     15  C   UNL     1      -1.250  15.057  19.646  0.00  0.00    +0.000 A 
ATOM     16  C   UNL     1      -0.531  16.167  19.188  0.00  0.00    +0.000 A 
ATOM     17  C   UNL     1       0.757  16.009  18.700  0.00  0.00    +0.000 A 
ATOM     18  C   UNL     1       1.311  14.729  18.673  0.00  0.00    +0.000 A 
ATOM     19  C   UNL     1       0.574  13.614  19.108  0.00  0.00    +0.000 A 
BRANCH  18  20
ATOM     20  N   UNL     1       2.678  14.542  18.170  0.00  0.00    +0.000 N 
ATOM     21  O   UNL     1       3.238  15.515  17.646  0.00  0.00    +0.000 OA
ATOM     22  O   UNL     1       3.186  13.419  18.289  0.00  0.00    +0.000 OA
ENDBRANCH  18  20
ENDBRANCH  10  14
BRANCH  12  23
ATOM     23  O   UNL     1      -0.649  11.272  23.421  0.00  0.00    +0.000 OA
ATOM     24  H   UNL     1       0.155  11.732  23.724  0.00  0.00    +0.000 HD
ENDBRANCH  12  23
BRANCH  12  25
ATOM     25  O   UNL     1      -1.714  13.208  22.600  0.00  0.00    +0.000 OA
BRANCH  25  26
ATOM     26  C   UNL     1      -1.205  14.062  23.625  0.00  0.00    +0.000 C 
ATOM     27  C   UNL     1      -0.432  15.255  23.064  0.00  0.00    +0.000 C 
ATOM     28  C   UNL     1      -2.460  14.582  24.338  0.00  0.00    +0.000 C 
ENDBRANCH  25  26
ENDBRANCH  12  25
TORSDOF 5
ENDMDL
MODEL 7
REMARK VINA RESULT:      -6.9      5.474      9.525
REMARK  Name = 
REMARK  8 active torsions:
REMARK  status: ('A' for Active; 'I' for Inactive)
REMARK    1  A    between atoms: C_1  and  C_2
REMARK    2  A    between atoms: C_10  and  C_11
REMARK    3  A    between atoms: C_15  and  N_16
REMARK    4  A    between atoms: C_21  and  O_22
REMARK    5  A    between atoms: C_21  and  O_23
REMARK    6  A    between atoms: O_23  and  C_24
REMARK    7  A    between atoms: C_24  and  C_25
REMARK    8  A    between atoms: C_24  and  C_26
REMARK                            x       y       z     vdW  Elec       q    Type
REMARK                         _______ _______ _______ _____ _____    ______ ____
ROOT
ATOM      1  C   UNL     1      -5.313  12.674  20.649  0.00  0.00    +0.000 C 
ATOM      2  C   UNL     1      -4.239  12.320  19.637  0.00  0.00    +0.000 C 
ATOM      3  N   UNL     1      -4.692  11.670  18.607  0.00  0.00    +0.000 NA
ATOM      4  C   UNL     1      -3.795  11.428  17.626  0.00  0.00    +0.000 A 
ATOM      5  C   UNL     1      -4.122  10.896  16.440  0.00  0.00    +0.000 A 
ATOM      6  C   UNL     1      -2.867  10.878  15.660  0.00  0.00    +0.000 A 
ATOM      7  O   UNL     1      -2.708  10.341  14.580  0.00  0.00    +0.000 OA
ATOM      8  N   UNL     1      -1.917  11.550  16.417  0.00  0.00    +0.000 N 
ATOM      9  N   UNL     1      -2.468  11.753  17.671  0.00  0.00    +0.000 N 
ATOM     10  C   UNL     1      -1.758  12.126  18.887  0.00  0.00    +0.000 C 
ATOM     11  C   UNL     1      -2.785  12.720  19.884  0.00  0.00    +0.000 C 
ATOM     12  C   UNL     1      -2.357  13.559  20.857  0.00  0.00    +0.000 C 
ATOM     13  H   UNL     1      -0.927  11.524  16.215  0.00  0.00    +0.000 HD
ENDROOT
BRANCH  10  14
ATOM     14  C   UNL     1      -0.892  10.965  19.458  0.00  0.00    +0.000 A 
ATOM     15  C   UNL     1      -0.952  10.574  20.813  0.00  0.00    +0.000 A 
ATOM     16  C   UNL     1      -0.065   9.649  21.377  0.00  0.00    +0.000 A 
ATOM     17  C   UNL     1       0.906   9.047  20.591  0.00  0.00    +0.000 A 
ATOM     18  C   UNL     1       0.978   9.385  19.240  0.00  0.00    +0.000 A 
ATOM     19  C   UNL     1       0.104  10.336  18.686  0.00  0.00    +0.000 A 
BRANCH  18  20
ATOM     20  N   UNL     1       1.993   8.751  18.389  0.00  0.00    +0.000 N 
ATOM     21  O   UNL     1       2.285   9.312  17.324  0.00  0.00    +0.000 OA
ATOM     22  O   UNL     1       2.488   7.685  18.781  0.00  0.00    +0.000 OA
ENDBRANCH  18  20
ENDBRANCH  10  14
BRANCH  12  23
ATOM     23  O   UNL     1      -3.165  14.114  21.815  0.00  0.00    +0.000 OA
ATOM     24  H   UNL     1      -3.694  13.395  22.204  0.00  0.00    +0.000 HD
ENDBRANCH  12  23
BRANCH  12  25
ATOM     25  O   UNL     1      -0.999  13.788  20.943  0.00  0.00    +0.000 OA
BRANCH  25  26
ATOM     26  C   UNL     1      -0.485  15.109  21.110  0.00  0.00    +0.000 C 
ATOM     27  C   UNL     1       0.164  15.317  22.478  0.00  0.00    +0.000 C 
ATOM     28  C   UNL     1       0.598  15.230  20.030  0.00  0.00    +0.000 C 
ENDBRANCH  25  26
ENDBRANCH  12  25
TORSDOF 5
ENDMDL
MODEL 8
REMARK VINA RESULT:      -6.9      6.828      9.574
REMARK  Name = 
REMARK  8 active torsions:
REMARK  status: ('A' for Active; 'I' for Inactive)
REMARK    1  A    between atoms: C_1  and  C_2
REMARK    2  A    between atoms: C_10  and  C_11
REMARK    3  A    between atoms: C_15  and  N_16
REMARK    4  A    between atoms: C_21  and  O_22
REMARK    5  A    between atoms: C_21  and  O_23
REMARK    6  A    between atoms: O_23  and  C_24
REMARK    7  A    between atoms: C_24  and  C_25
REMARK    8  A    between atoms: C_24  and  C_26
REMARK                            x       y       z     vdW  Elec       q    Type
REMARK                         _______ _______ _______ _____ _____    ______ ____
ROOT
ATOM      1  C   UNL     1      -0.023   9.271  21.590  0.00  0.00    +0.000 C 
ATOM      2  C   UNL     1      -0.548  10.206  20.516  0.00  0.00    +0.000 C 
ATOM      3  N   UNL     1      -0.772   9.616  19.381  0.00  0.00    +0.000 NA
ATOM      4  C   UNL     1      -1.344  10.382  18.425  0.00  0.00    +0.000 A 
ATOM      5  C   UNL     1      -1.769   9.901  17.248  0.00  0.00    +0.000 A 
ATOM      6  C   UNL     1      -2.384  11.052  16.555  0.00  0.00    +0.000 A 
ATOM      7  O   UNL     1      -2.765  11.066  15.400  0.00  0.00    +0.000 OA
ATOM      8  N   UNL     1      -2.400  12.102  17.463  0.00  0.00    +0.000 N 
ATOM      9  N   UNL     1      -1.634  11.712  18.548  0.00  0.00    +0.000 N 
ATOM     10  C   UNL     1      -1.100  12.572  19.595  0.00  0.00    +0.000 C 
ATOM     11  C   UNL     1      -0.761  11.688  20.821  0.00  0.00    +0.000 C 
ATOM     12  C   UNL     1      -0.709  12.251  22.052  0.00  0.00    +0.000 C 
ATOM     13  H   UNL     1      -2.590  13.060  17.200  0.00  0.00    +0.000 HD
ENDROOT
BRANCH  10  14
ATOM     14  C   UNL     1       0.067  13.473  19.096  0.00  0.00    +0.000 A 
ATOM     15  C   UNL     1       1.353  12.958  18.820  0.00  0.00    +0.000 A 
ATOM     16  C   UNL     1       2.453  13.775  18.532  0.00  0.00    +0.000 A 
ATOM     17  C   UNL     1       2.302  15.151  18.476  0.00  0.00    +0.000 A 
ATOM     18  C   UNL     1       1.041  15.697  18.715  0.00  0.00    +0.000 A 
ATOM     19  C   UNL     1      -0.054  14.874  19.031  0.00  0.00    +0.000 A 
BRANCH  18  20
ATOM     20  N   UNL     1       0.858  17.153  18.650  0.00  0.00    +0.000 N 
ATOM     21  O   UNL     1      -0.296  17.594  18.743  0.00  0.00    +0.000 OA
ATOM     22  O   UNL     1       1.868  17.853  18.494  0.00  0.00    +0.000 OA
ENDBRANCH  18  20
ENDBRANCH  10  14
BRANCH  12  23
ATOM     23  O   UNL     1      -0.383  11.578  23.201  0.00  0.00    +0.000 OA
ATOM     24  H   UNL     1      -0.942  11.933  23.916  0.00  0.00    +0.000 HD
ENDBRANCH  12  23
BRANCH  12  25
ATOM     25  O   UNL     1      -0.905  13.614  22.133  0.00  0.00    +0.000 OA
BRANCH  25  26
ATOM     26  C   UNL     1      -1.949  14.161  22.938  0.00  0.00    +0.000 C 
ATOM     27  C   UNL     1      -1.426  14.784  24.232  0.00  0.00    +0.000 C 
ATOM     28  C   UNL     1      -2.552  15.272  22.068  0.00  0.00    +0.000 C 
ENDBRANCH  25  26
ENDBRANCH  12  25
TORSDOF 5
ENDMDL
MODEL 9
REMARK VINA RESULT:      -6.9      4.679      8.834
REMARK  Name = 
REMARK  8 active torsions:
REMARK  status: ('A' for Active; 'I' for Inactive)
REMARK    1  A    between atoms: C_1  and  C_2
REMARK    2  A    between atoms: C_10  and  C_11
REMARK    3  A    between atoms: C_15  and  N_16
REMARK    4  A    between atoms: C_21  and  O_22
REMARK    5  A    between atoms: C_21  and  O_23
REMARK    6  A    between atoms: O_23  and  C_24
REMARK    7  A    between atoms: C_24  and  C_25
REMARK    8  A    between atoms: C_24  and  C_26
REMARK                            x       y       z     vdW  Elec       q    Type
REMARK                         _______ _______ _______ _____ _____    ______ ____
ROOT
ATOM      1  C   UNL     1      -2.755  13.652  22.577  0.00  0.00    +0.000 C 
ATOM      2  C   UNL     1      -2.302  13.000  21.284  0.00  0.00    +0.000 C 
ATOM      3  N   UNL     1      -3.285  12.594  20.537  0.00  0.00    +0.000 NA
ATOM      4  C   UNL     1      -2.937  12.106  19.325  0.00  0.00    +0.000 A 
ATOM      5  C   UNL     1      -3.827  11.774  18.379  0.00  0.00    +0.000 A 
ATOM      6  C   UNL     1      -3.020  11.364  17.211  0.00  0.00    +0.000 A 
ATOM      7  O   UNL     1      -3.450  10.857  16.192  0.00  0.00    +0.000 OA
ATOM      8  N   UNL     1      -1.695  11.634  17.526  0.00  0.00    +0.000 N 
ATOM      9  N   UNL     1      -1.657  11.955  18.873  0.00  0.00    +0.000 N 
ATOM     10  C   UNL     1      -0.477  12.004  19.725  0.00  0.00    +0.000 C 
ATOM     11  C   UNL     1      -0.813  12.867  20.967  0.00  0.00    +0.000 C 
ATOM     12  C   UNL     1       0.191  13.461  21.654  0.00  0.00    +0.000 C 
ATOM     13  H   UNL     1      -0.915  11.281  16.990  0.00  0.00    +0.000 HD
ENDROOT
BRANCH  10  14
ATOM     14  C   UNL     1       0.093  10.591  20.046  0.00  0.00    +0.000 A 
ATOM     15  C   UNL     1      -0.050   9.991  21.316  0.00  0.00    +0.000 A 
ATOM     16  C   UNL     1       0.596   8.800  21.670  0.00  0.00    +0.000 A 
ATOM     17  C   UNL     1       1.392   8.139  20.748  0.00  0.00    +0.000 A 
ATOM     18  C   UNL     1       1.535   8.685  19.473  0.00  0.00    +0.000 A 
ATOM     19  C   UNL     1       0.907   9.895  19.131  0.00  0.00    +0.000 A 
BRANCH  18  20
ATOM     20  N   UNL     1       2.365   7.994  18.478  0.00  0.00    +0.000 N 
ATOM     21  O   UNL     1       2.862   6.905  18.797  0.00  0.00    +0.000 OA
ATOM     22  O   UNL     1       2.527   8.546  17.381  0.00  0.00    +0.000 OA
ENDBRANCH  18  20
ENDBRANCH  10  14
BRANCH  12  23
ATOM     23  O   UNL     1       0.018  14.214  22.787  0.00  0.00    +0.000 OA
ATOM     24  H   UNL     1       0.825  14.744  22.912  0.00  0.00    +0.000 HD
ENDBRANCH  12  23
BRANCH  12  25
ATOM     25  O   UNL     1       1.481  13.208  21.236  0.00  0.00    +0.000 OA
BRANCH  25  26
ATOM     26  C   UNL     1       2.314  14.256  20.742  0.00  0.00    +0.000 C 
ATOM     27  C   UNL     1       3.551  14.482  21.612  0.00  0.00    +0.000 C 
ATOM     28  C   UNL     1       2.767  13.758  19.364  0.00  0.00    +0.000 C 
ENDBRANCH  25  26
ENDBRANCH  12  25
TORSDOF 5
ENDMDL
