MODEL 1
REMARK VINA RESULT:      -8.2      0.000      0.000
REMARK  Name = 
REMARK  6 active torsions:
REMARK  status: ('A' for Active; 'I' for Inactive)
REMARK    1  A    between atoms: N_2  and  C_3
REMARK    2  A    between atoms: C_8  and  C_9
REMARK    3  A    between atoms: C_15  and  C_17
REMARK    4  A    between atoms: C_17  and  C_18
REMARK    5  A    between atoms: C_21  and  N_22
REMARK    6  A    between atoms: C_34  and  C_35
REMARK                            x       y       z     vdW  Elec       q    Type
REMARK                         _______ _______ _______ _____ _____    ______ ____
ROOT
ATOM      1  C   UNL     1      -1.901  13.468  22.121  0.00  0.00    +0.000 C 
ATOM      2  C   UNL     1      -1.428  12.318  23.066  0.00  0.00    +0.000 C 
ATOM      3  N   UNL     1      -0.383  11.410  22.585  0.00  0.00    +0.000 NA
ATOM      4  C   UNL     1      -0.507  10.041  23.123  0.00  0.00    +0.000 C 
ATOM      5  C   UNL     1       0.753   9.220  22.772  0.00  0.00    +0.000 C 
ATOM      6  N   UNL     1       1.064   9.283  21.334  0.00  0.00    +0.000 N 
ATOM      7  C   UNL     1       1.219   8.114  20.613  0.00  0.00    +0.000 C 
ATOM      8  O   UNL     1       1.069   7.002  21.123  0.00  0.00    +0.000 OA
ATOM      9  C   UNL     1       1.056  10.644  20.772  0.00  0.00    +0.000 C 
ATOM     10  C   UNL     1      -0.274  11.339  21.112  0.00  0.00    +0.000 C 
ATOM     11  C   UNL     1      -0.359  12.726  20.486  0.00  0.00    +0.000 C 
ATOM     12  O   UNL     1      -1.672  13.234  20.719  0.00  0.00    +0.000 OA
ENDROOT
BRANCH   1  18
ATOM     13  C   UNL     1      -5.342  15.036  22.838  0.00  0.00    +0.000 A 
ATOM     14  C   UNL     1      -6.190  13.986  22.491  0.00  0.00    +0.000 A 
ATOM     15  F   UNL     1      -7.519  14.131  22.549  0.00  0.00    +0.000 F 
ATOM     16  C   UNL     1      -5.661  12.774  22.084  0.00  0.00    +0.000 A 
ATOM     17  C   UNL     1      -4.278  12.635  21.986  0.00  0.00    +0.000 A 
ATOM     18  C   UNL     1      -3.398  13.701  22.301  0.00  0.00    +0.000 A 
ATOM     19  C   UNL     1      -3.936  14.910  22.789  0.00  0.00    +0.000 A 
ATOM     20  C   UNL     1      -3.090  16.069  23.241  0.00  0.00    +0.000 C 
BRANCH  13  22
ATOM     21  C   UNL     1      -6.420  17.253  23.534  0.00  0.00    +0.000 C 
ATOM     22  N   UNL     1      -5.922  16.235  23.217  0.00  0.00    +0.000 NA
ENDBRANCH  13  22
ENDBRANCH   1  18
BRANCH   7  23
ATOM     23  C   UNL     1       1.537   8.224  19.130  0.00  0.00    +0.000 C 
BRANCH  23  24
ATOM     24  C   UNL     1       2.722   7.396  18.695  0.00  0.00    +0.000 A 
ATOM     25  C   UNL     1       3.258   6.389  19.493  0.00  0.00    +0.000 A 
ATOM     26  N   UNL     1       4.361   5.670  19.166  0.00  0.00    +0.000 NA
ATOM     27  C   UNL     1       4.996   5.983  17.998  0.00  0.00    +0.000 A 
ATOM     28  C   UNL     1       4.526   6.969  17.142  0.00  0.00    +0.000 A 
ATOM     29  F   UNL     1       5.126   7.280  15.985  0.00  0.00    +0.000 F 
ATOM     30  C   UNL     1       3.382   7.679  17.494  0.00  0.00    +0.000 A 
BRANCH  27  31
ATOM     31  N   UNL     1       6.184   5.284  17.697  0.00  0.00    +0.000 N 
ATOM     32  C   UNL     1       6.527   4.716  16.495  0.00  0.00    +0.000 A 
ATOM     33  N   UNL     1       7.692   4.123  16.612  0.00  0.00    +0.000 NA
ATOM     34  N   UNL     1       8.085   4.332  17.902  0.00  0.00    +0.000 NA
ATOM     35  N   UNL     1       7.183   5.037  18.575  0.00  0.00    +0.000 NA
ENDBRANCH  27  31
ENDBRANCH  23  24
ENDBRANCH   7  23
TORSDOF 5
ENDMDL
MODEL 2
REMARK VINA RESULT:      -8.1      3.478     10.603
REMARK  Name = 
REMARK  6 active torsions:
REMARK  status: ('A' for Active; 'I' for Inactive)
REMARK    1  A    between atoms: N_2  and  C_3
REMARK    2  A    between atoms: C_8  and  C_9
REMARK    3  A    between atoms: C_15  and  C_17
REMARK    4  A    between atoms: C_17  and  C_18
REMARK    5  A    between atoms: C_21  and  N_22
REMARK    6  A    between atoms: C_34  and  C_35
REMARK                            x       y       z     vdW  Elec       q    Type
REMARK                         _______ _______ _______ _____ _____    ______ ____
ROOT
ATOM      1  C   UNL     1      -0.794  11.939  22.528  0.00  0.00    +0.000 C 
ATOM      2  C   UNL     1      -0.689  13.492  22.397  0.00  0.00    +0.000 C 
ATOM      3  N   UNL     1      -1.745  14.311  22.998  0.00  0.00    +0.000 NA
ATOM      4  C   UNL     1      -1.992  15.571  22.268  0.00  0.00    +0.000 C 
ATOM      5  C   UNL     1      -2.931  16.481  23.089  0.00  0.00    +0.000 C 
ATOM      6  N   UNL     1      -4.151  15.772  23.509  0.00  0.00    +0.000 N 
ATOM      7  C   UNL     1      -5.391  16.305  23.213  0.00  0.00    +0.000 C 
ATOM      8  O   UNL     1      -5.522  17.349  22.570  0.00  0.00    +0.000 OA
ATOM      9  C   UNL     1      -3.906  14.455  24.118  0.00  0.00    +0.000 C 
ATOM     10  C   UNL     1      -3.030  13.604  23.182  0.00  0.00    +0.000 C 
ATOM     11  C   UNL     1      -2.811  12.202  23.737  0.00  0.00    +0.000 C 
ATOM     12  O   UNL     1      -2.125  11.437  22.746  0.00  0.00    +0.000 OA
ENDROOT
BRANCH   1  18
ATOM     13  C   UNL     1       0.868   9.533  20.026  0.00  0.00    +0.000 A 
ATOM     14  C   UNL     1       0.559  10.151  18.817  0.00  0.00    +0.000 A 
ATOM     15  F   UNL     1       0.921   9.599  17.652  0.00  0.00    +0.000 F 
ATOM     16  C   UNL     1      -0.129  11.352  18.808  0.00  0.00    +0.000 A 
ATOM     17  C   UNL     1      -0.539  11.907  20.018  0.00  0.00    +0.000 A 
ATOM     18  C   UNL     1      -0.265  11.278  21.258  0.00  0.00    +0.000 A 
ATOM     19  C   UNL     1       0.502  10.093  21.269  0.00  0.00    +0.000 A 
ATOM     20  C   UNL     1       0.930   9.397  22.532  0.00  0.00    +0.000 C 
BRANCH  13  22
ATOM     21  C   UNL     1       2.101   7.288  19.941  0.00  0.00    +0.000 C 
ATOM     22  N   UNL     1       1.538   8.321  19.978  0.00  0.00    +0.000 NA
ENDBRANCH  13  22
ENDBRANCH   1  18
BRANCH   7  23
ATOM     23  C   UNL     1      -6.626  15.540  23.662  0.00  0.00    +0.000 C 
BRANCH  23  24
ATOM     24  C   UNL     1      -6.882  14.277  22.878  0.00  0.00    +0.000 A 
ATOM     25  C   UNL     1      -6.928  13.022  23.482  0.00  0.00    +0.000 A 
ATOM     26  N   UNL     1      -7.090  11.859  22.803  0.00  0.00    +0.000 NA
ATOM     27  C   UNL     1      -7.178  11.931  21.442  0.00  0.00    +0.000 A 
ATOM     28  C   UNL     1      -7.147  13.139  20.760  0.00  0.00    +0.000 A 
ATOM     29  F   UNL     1      -7.249  13.230  19.427  0.00  0.00    +0.000 F 
ATOM     30  C   UNL     1      -6.998  14.318  21.484  0.00  0.00    +0.000 A 
BRANCH  27  31
ATOM     31  N   UNL     1      -7.272  10.714  20.732  0.00  0.00    +0.000 N 
ATOM     32  C   UNL     1      -7.912   9.569  21.136  0.00  0.00    +0.000 A 
ATOM     33  N   UNL     1      -7.751   8.638  20.226  0.00  0.00    +0.000 NA
ATOM     34  N   UNL     1      -7.009   9.213  19.236  0.00  0.00    +0.000 NA
ATOM     35  N   UNL     1      -6.710  10.475  19.525  0.00  0.00    +0.000 NA
ENDBRANCH  27  31
ENDBRANCH  23  24
ENDBRANCH   7  23
TORSDOF 5
ENDMDL
MODEL 3
REMARK VINA RESULT:      -8.0      4.988     10.375
REMARK  Name = 
REMARK  6 active torsions:
REMARK  status: ('A' for Active; 'I' for Inactive)
REMARK    1  A    between atoms: N_2  and  C_3
REMARK    2  A    between atoms: C_8  and  C_9
REMARK    3  A    between atoms: C_15  and  C_17
REMARK    4  A    between atoms: C_17  and  C_18
REMARK    5  A    between atoms: C_21  and  N_22
REMARK    6  A    between atoms: C_34  and  C_35
REMARK                            x       y       z     vdW  Elec       q    Type
REMARK                         _______ _______ _______ _____ _____    ______ ____
ROOT
ATOM      1  C   UNL     1       1.973   7.498  18.307  0.00  0.00    +0.000 C 
ATOM      2  C   UNL     1       1.559   7.897  19.760  0.00  0.00    +0.000 C 
ATOM      3  N   UNL     1       1.014   9.240  19.981  0.00  0.00    +0.000 NA
ATOM      4  C   UNL     1       1.331   9.785  21.317  0.00  0.00    +0.000 C 
ATOM      5  C   UNL     1       0.526  11.079  21.563  0.00  0.00    +0.000 C 
ATOM      6  N   UNL     1       0.686  12.041  20.460  0.00  0.00    +0.000 N 
ATOM      7  C   UNL     1       1.099  13.333  20.729  0.00  0.00    +0.000 C 
ATOM      8  O   UNL     1       1.378  13.710  21.869  0.00  0.00    +0.000 OA
ATOM      9  C   UNL     1       0.499  11.462  19.120  0.00  0.00    +0.000 C 
ATOM     10  C   UNL     1       1.405  10.229  18.954  0.00  0.00    +0.000 C 
ATOM     11  C   UNL     1       1.301   9.638  17.553  0.00  0.00    +0.000 C 
ATOM     12  O   UNL     1       2.277   8.604  17.438  0.00  0.00    +0.000 OA
ENDROOT
BRANCH   1  18
ATOM     13  C   UNL     1       4.418   4.594  18.938  0.00  0.00    +0.000 A 
ATOM     14  C   UNL     1       5.548   5.045  18.259  0.00  0.00    +0.000 A 
ATOM     15  F   UNL     1       6.651   4.290  18.185  0.00  0.00    +0.000 F 
ATOM     16  C   UNL     1       5.541   6.289  17.652  0.00  0.00    +0.000 A 
ATOM     17  C   UNL     1       4.380   7.059  17.695  0.00  0.00    +0.000 A 
ATOM     18  C   UNL     1       3.209   6.604  18.351  0.00  0.00    +0.000 A 
ATOM     19  C   UNL     1       3.242   5.370  19.034  0.00  0.00    +0.000 A 
ATOM     20  C   UNL     1       2.088   4.839  19.840  0.00  0.00    +0.000 C 
BRANCH  13  22
ATOM     21  C   UNL     1       4.510   2.264  19.999  0.00  0.00    +0.000 C 
ATOM     22  N   UNL     1       4.470   3.333  19.508  0.00  0.00    +0.000 NA
ENDBRANCH  13  22
ENDBRANCH   1  18
BRANCH   7  23
ATOM     23  C   UNL     1       1.254  14.294  19.561  0.00  0.00    +0.000 C 
BRANCH  23  24
ATOM     24  C   UNL     1       2.659  14.814  19.378  0.00  0.00    +0.000 A 
ATOM     25  C   UNL     1       3.085  16.018  19.932  0.00  0.00    +0.000 A 
ATOM     26  N   UNL     1       4.318  16.550  19.735  0.00  0.00    +0.000 NA
ATOM     27  C   UNL     1       5.173  15.871  18.916  0.00  0.00    +0.000 A 
ATOM     28  C   UNL     1       4.832  14.661  18.327  0.00  0.00    +0.000 A 
ATOM     29  F   UNL     1       5.664  13.974  17.533  0.00  0.00    +0.000 F 
ATOM     30  C   UNL     1       3.567  14.131  18.561  0.00  0.00    +0.000 A 
BRANCH  27  31
ATOM     31  N   UNL     1       6.428  16.462  18.654  0.00  0.00    +0.000 N 
ATOM     32  C   UNL     1       7.573  15.825  18.244  0.00  0.00    +0.000 A 
ATOM     33  N   UNL     1       8.544  16.702  18.141  0.00  0.00    +0.000 NA
ATOM     34  N   UNL     1       7.994  17.904  18.482  0.00  0.00    +0.000 NA
ATOM     35  N   UNL     1       6.710  17.778  18.795  0.00  0.00    +0.000 NA
ENDBRANCH  27  31
ENDBRANCH  23  24
ENDBRANCH   7  23
TORSDOF 5
ENDMDL
MODEL 4
REMARK VINA RESULT:      -7.9      4.527     10.469
REMARK  Name = 
REMARK  6 active torsions:
REMARK  status: ('A' for Active; 'I' for Inactive)
REMARK    1  A    between atoms: N_2  and  C_3
REMARK    2  A    between atoms: C_8  and  C_9
REMARK    3  A    between atoms: C_15  and  C_17
REMARK    4  A    between atoms: C_17  and  C_18
REMARK    5  A    between atoms: C_21  and  N_22
REMARK    6  A    between atoms: C_34  and  C_35
REMARK                            x       y       z     vdW  Elec       q    Type
REMARK                         _______ _______ _______ _____ _____    ______ ____
ROOT
ATOM      1  C   UNL     1      -1.677  12.165  23.302  0.00  0.00    +0.000 C 
ATOM      2  C   UNL     1      -1.430  13.550  22.624  0.00  0.00    +0.000 C 
ATOM      3  N   UNL     1      -2.530  14.519  22.604  0.00  0.00    +0.000 NA
ATOM      4  C   UNL     1      -2.512  15.397  21.417  0.00  0.00    +0.000 C 
ATOM      5  C   UNL     1      -3.540  16.536  21.588  0.00  0.00    +0.000 C 
ATOM      6  N   UNL     1      -4.873  16.021  21.944  0.00  0.00    +0.000 N 
ATOM      7  C   UNL     1      -5.972  16.378  21.186  0.00  0.00    +0.000 C 
ATOM      8  O   UNL     1      -5.878  17.092  20.185  0.00  0.00    +0.000 OA
ATOM      9  C   UNL     1      -4.869  15.044  23.044  0.00  0.00    +0.000 C 
ATOM     10  C   UNL     1      -3.872  13.914  22.733  0.00  0.00    +0.000 C 
ATOM     11  C   UNL     1      -3.889  12.837  23.811  0.00  0.00    +0.000 C 
ATOM     12  O   UNL     1      -3.057  11.763  23.373  0.00  0.00    +0.000 OA
ENDROOT
BRANCH   1  18
ATOM     13  C   UNL     1      -0.058  10.029  20.541  0.00  0.00    +0.000 A 
ATOM     14  C   UNL     1       0.565   9.041  21.299  0.00  0.00    +0.000 A 
ATOM     15  F   UNL     1       1.304   8.091  20.714  0.00  0.00    +0.000 F 
ATOM     16  C   UNL     1       0.422   9.031  22.676  0.00  0.00    +0.000 A 
ATOM     17  C   UNL     1      -0.315  10.042  23.289  0.00  0.00    +0.000 A 
ATOM     18  C   UNL     1      -0.928  11.077  22.539  0.00  0.00    +0.000 A 
ATOM     19  C   UNL     1      -0.845  11.042  21.131  0.00  0.00    +0.000 A 
ATOM     20  C   UNL     1      -1.537  12.035  20.237  0.00  0.00    +0.000 C 
BRANCH  13  22
ATOM     21  C   UNL     1       0.296   9.994  18.003  0.00  0.00    +0.000 C 
ATOM     22  N   UNL     1       0.136  10.007  19.169  0.00  0.00    +0.000 NA
ENDBRANCH  13  22
ENDBRANCH   1  18
BRANCH   7  23
ATOM     23  C   UNL     1      -7.330  15.822  21.587  0.00  0.00    +0.000 C 
BRANCH  23  24
ATOM     24  C   UNL     1      -7.469  14.334  21.378  0.00  0.00    +0.000 A 
ATOM     25  C   UNL     1      -7.586  13.442  22.441  0.00  0.00    +0.000 A 
ATOM     26  N   UNL     1      -7.645  12.094  22.296  0.00  0.00    +0.000 NA
ATOM     27  C   UNL     1      -7.550  11.591  21.030  0.00  0.00    +0.000 A 
ATOM     28  C   UNL     1      -7.436  12.409  19.914  0.00  0.00    +0.000 A 
ATOM     29  F   UNL     1      -7.358  11.933  18.664  0.00  0.00    +0.000 F 
ATOM     30  C   UNL     1      -7.396  13.788  20.092  0.00  0.00    +0.000 A 
BRANCH  27  31
ATOM     31  N   UNL     1      -7.538  10.186  20.889  0.00  0.00    +0.000 N 
ATOM     32  C   UNL     1      -7.177   9.471  19.774  0.00  0.00    +0.000 A 
ATOM     33  N   UNL     1      -7.330   8.190  20.012  0.00  0.00    +0.000 NA
ATOM     34  N   UNL     1      -7.784   8.105  21.297  0.00  0.00    +0.000 NA
ATOM     35  N   UNL     1      -7.915   9.307  21.845  0.00  0.00    +0.000 NA
ENDBRANCH  27  31
ENDBRANCH  23  24
ENDBRANCH   7  23
TORSDOF 5
ENDMDL
MODEL 5
REMARK VINA RESULT:      -7.8      1.318      1.525
REMARK  Name = 
REMARK  6 active torsions:
REMARK  status: ('A' for Active; 'I' for Inactive)
REMARK    1  A    between atoms: N_2  and  C_3
REMARK    2  A    between atoms: C_8  and  C_9
REMARK    3  A    between atoms: C_15  and  C_17
REMARK    4  A    between atoms: C_17  and  C_18
REMARK    5  A    between atoms: C_21  and  N_22
REMARK    6  A    between atoms: C_34  and  C_35
REMARK                            x       y       z     vdW  Elec       q    Type
REMARK                         _______ _______ _______ _____ _____    ______ ____
ROOT
ATOM      1  C   UNL     1      -1.804  13.588  21.402  0.00  0.00    +0.000 C 
ATOM      2  C   UNL     1      -1.129  12.611  22.417  0.00  0.00    +0.000 C 
ATOM      3  N   UNL     1      -0.139  11.657  21.909  0.00  0.00    +0.000 NA
ATOM      4  C   UNL     1      -0.110  10.389  22.664  0.00  0.00    +0.000 C 
ATOM      5  C   UNL     1       1.109   9.545  22.232  0.00  0.00    +0.000 C 
ATOM      6  N   UNL     1       1.173   9.385  20.770  0.00  0.00    +0.000 N 
ATOM      7  C   UNL     1       1.257   8.119  20.221  0.00  0.00    +0.000 C 
ATOM      8  O   UNL     1       1.244   7.099  20.914  0.00  0.00    +0.000 OA
ATOM      9  C   UNL     1       1.010  10.638  20.016  0.00  0.00    +0.000 C 
ATOM     10  C   UNL     1      -0.274  11.355  20.468  0.00  0.00    +0.000 C 
ATOM     11  C   UNL     1      -0.524  12.623  19.661  0.00  0.00    +0.000 C 
ATOM     12  O   UNL     1      -1.801  13.139  20.035  0.00  0.00    +0.000 OA
ENDROOT
BRANCH   1  18
ATOM     13  C   UNL     1      -5.290  15.123  21.948  0.00  0.00    +0.000 A 
ATOM     14  C   UNL     1      -5.970  14.045  22.512  0.00  0.00    +0.000 A 
ATOM     15  F   UNL     1      -7.269  14.140  22.821  0.00  0.00    +0.000 F 
ATOM     16  C   UNL     1      -5.303  12.859  22.761  0.00  0.00    +0.000 A 
ATOM     17  C   UNL     1      -3.961  12.747  22.404  0.00  0.00    +0.000 A 
ATOM     18  C   UNL     1      -3.259  13.820  21.799  0.00  0.00    +0.000 A 
ATOM     19  C   UNL     1      -3.920  15.052  21.615  0.00  0.00    +0.000 A 
ATOM     20  C   UNL     1      -3.243  16.281  21.070  0.00  0.00    +0.000 C 
BRANCH  13  22
ATOM     21  C   UNL     1      -6.617  17.264  21.480  0.00  0.00    +0.000 C 
ATOM     22  N   UNL     1      -6.010  16.280  21.698  0.00  0.00    +0.000 NA
ENDBRANCH  13  22
ENDBRANCH   1  18
BRANCH   7  23
ATOM     23  C   UNL     1       1.318   7.997  18.707  0.00  0.00    +0.000 C 
BRANCH  23  24
ATOM     24  C   UNL     1       2.567   7.321  18.197  0.00  0.00    +0.000 A 
ATOM     25  C   UNL     1       3.677   8.039  17.759  0.00  0.00    +0.000 A 
ATOM     26  N   UNL     1       4.790   7.470  17.234  0.00  0.00    +0.000 NA
ATOM     27  C   UNL     1       4.800   6.111  17.099  0.00  0.00    +0.000 A 
ATOM     28  C   UNL     1       3.739   5.318  17.514  0.00  0.00    +0.000 A 
ATOM     29  F   UNL     1       3.737   3.982  17.404  0.00  0.00    +0.000 F 
ATOM     30  C   UNL     1       2.617   5.928  18.066  0.00  0.00    +0.000 A 
BRANCH  27  31
ATOM     31  N   UNL     1       5.928   5.527  16.484  0.00  0.00    +0.000 N 
ATOM     32  C   UNL     1       6.878   4.736  17.081  0.00  0.00    +0.000 A 
ATOM     33  N   UNL     1       7.792   4.413  16.197  0.00  0.00    +0.000 NA
ATOM     34  N   UNL     1       7.401   5.002  15.030  0.00  0.00    +0.000 NA
ATOM     35  N   UNL     1       6.271   5.682  15.185  0.00  0.00    +0.000 NA
ENDBRANCH  27  31
ENDBRANCH  23  24
ENDBRANCH   7  23
TORSDOF 5
ENDMDL
MODEL 6
REMARK VINA RESULT:      -7.8      5.729      8.575
REMARK  Name = 
REMARK  6 active torsions:
REMARK  status: ('A' for Active; 'I' for Inactive)
REMARK    1  A    between atoms: N_2  and  C_3
REMARK    2  A    between atoms: C_8  and  C_9
REMARK    3  A    between atoms: C_15  and  C_17
REMARK    4  A    between atoms: C_17  and  C_18
REMARK    5  A    between atoms: C_21  and  N_22
REMARK    6  A    between atoms: C_34  and  C_35
REMARK                            x       y       z     vdW  Elec       q    Type
REMARK                         _______ _______ _______ _____ _____    ______ ____
ROOT
ATOM      1  C   UNL     1       0.979  11.403  19.123  0.00  0.00    +0.000 C 
ATOM      2  C   UNL     1       0.929  12.411  20.315  0.00  0.00    +0.000 C 
ATOM      3  N   UNL     1       1.545  13.729  20.136  0.00  0.00    +0.000 NA
ATOM      4  C   UNL     1       2.099  14.288  21.386  0.00  0.00    +0.000 C 
ATOM      5  C   UNL     1       2.503  15.763  21.170  0.00  0.00    +0.000 C 
ATOM      6  N   UNL     1       3.372  15.925  19.992  0.00  0.00    +0.000 N 
ATOM      7  C   UNL     1       4.592  16.563  20.122  0.00  0.00    +0.000 C 
ATOM      8  O   UNL     1       5.005  16.978  21.206  0.00  0.00    +0.000 OA
ATOM      9  C   UNL     1       2.880  15.252  18.780  0.00  0.00    +0.000 C 
ATOM     10  C   UNL     1       2.586  13.773  19.088  0.00  0.00    +0.000 C 
ATOM     11  C   UNL     1       2.144  13.016  17.841  0.00  0.00    +0.000 C 
ATOM     12  O   UNL     1       2.041  11.634  18.179  0.00  0.00    +0.000 OA
ENDROOT
BRANCH   1  18
ATOM     13  C   UNL     1       1.875   7.681  19.514  0.00  0.00    +0.000 A 
ATOM     14  C   UNL     1       1.462   7.444  20.823  0.00  0.00    +0.000 A 
ATOM     15  F   UNL     1       1.641   6.246  21.393  0.00  0.00    +0.000 F 
ATOM     16  C   UNL     1       0.855   8.453  21.551  0.00  0.00    +0.000 A 
ATOM     17  C   UNL     1       0.704   9.711  20.973  0.00  0.00    +0.000 A 
ATOM     18  C   UNL     1       1.148   9.983  19.655  0.00  0.00    +0.000 A 
ATOM     19  C   UNL     1       1.697   8.934  18.888  0.00  0.00    +0.000 A 
ATOM     20  C   UNL     1       2.112   9.090  17.450  0.00  0.00    +0.000 C 
BRANCH  13  22
ATOM     21  C   UNL     1       3.032   5.765  18.267  0.00  0.00    +0.000 C 
ATOM     22  N   UNL     1       2.498   6.645  18.837  0.00  0.00    +0.000 NA
ENDBRANCH  13  22
ENDBRANCH   1  18
BRANCH   7  23
ATOM     23  C   UNL     1       5.460  16.708  18.882  0.00  0.00    +0.000 C 
BRANCH  23  24
ATOM     24  C   UNL     1       6.581  15.701  18.798  0.00  0.00    +0.000 A 
ATOM     25  C   UNL     1       7.760  15.837  19.526  0.00  0.00    +0.000 A 
ATOM     26  N   UNL     1       8.815  14.990  19.428  0.00  0.00    +0.000 NA
ATOM     27  C   UNL     1       8.717  13.963  18.533  0.00  0.00    +0.000 A 
ATOM     28  C   UNL     1       7.576  13.750  17.772  0.00  0.00    +0.000 A 
ATOM     29  F   UNL     1       7.457  12.738  16.901  0.00  0.00    +0.000 F 
ATOM     30  C   UNL     1       6.503  14.625  17.906  0.00  0.00    +0.000 A 
BRANCH  27  31
ATOM     31  N   UNL     1       9.843  13.126  18.380  0.00  0.00    +0.000 N 
ATOM     32  C   UNL     1      10.844  13.250  17.448  0.00  0.00    +0.000 A 
ATOM     33  N   UNL     1      11.698  12.264  17.594  0.00  0.00    +0.000 NA
ATOM     34  N   UNL     1      11.228  11.521  18.638  0.00  0.00    +0.000 NA
ATOM     35  N   UNL     1      10.104  12.030  19.129  0.00  0.00    +0.000 NA
ENDBRANCH  27  31
ENDBRANCH  23  24
ENDBRANCH   7  23
TORSDOF 5
ENDMDL
MODEL 7
REMARK VINA RESULT:      -7.7      4.968     10.171
REMARK  Name = 
REMARK  6 active torsions:
REMARK  status: ('A' for Active; 'I' for Inactive)
REMARK    1  A    between atoms: N_2  and  C_3
REMARK    2  A    between atoms: C_8  and  C_9
REMARK    3  A    between atoms: C_15  and  C_17
REMARK    4  A    between atoms: C_17  and  C_18
REMARK    5  A    between atoms: C_21  and  N_22
REMARK    6  A    between atoms: C_34  and  C_35
REMARK                            x       y       z     vdW  Elec       q    Type
REMARK                         _______ _______ _______ _____ _____    ______ ____
ROOT
ATOM      1  C   UNL     1       1.898   7.545  18.367  0.00  0.00    +0.000 C 
ATOM      2  C   UNL     1       1.504   7.939  19.827  0.00  0.00    +0.000 C 
ATOM      3  N   UNL     1       0.963   9.280  20.062  0.00  0.00    +0.000 NA
ATOM      4  C   UNL     1       1.299   9.819  21.395  0.00  0.00    +0.000 C 
ATOM      5  C   UNL     1       0.498  11.113  21.658  0.00  0.00    +0.000 C 
ATOM      6  N   UNL     1       0.642  12.079  20.557  0.00  0.00    +0.000 N 
ATOM      7  C   UNL     1       1.059  13.370  20.826  0.00  0.00    +0.000 C 
ATOM      8  O   UNL     1       1.354  13.742  21.963  0.00  0.00    +0.000 OA
ATOM      9  C   UNL     1       0.436  11.506  19.217  0.00  0.00    +0.000 C 
ATOM     10  C   UNL     1       1.340  10.274  19.034  0.00  0.00    +0.000 C 
ATOM     11  C   UNL     1       1.216   9.689  17.632  0.00  0.00    +0.000 C 
ATOM     12  O   UNL     1       2.190   8.655  17.498  0.00  0.00    +0.000 OA
ENDROOT
BRANCH   1  18
ATOM     13  C   UNL     1       4.353   4.641  18.955  0.00  0.00    +0.000 A 
ATOM     14  C   UNL     1       5.471   5.092  18.258  0.00  0.00    +0.000 A 
ATOM     15  F   UNL     1       6.573   4.337  18.165  0.00  0.00    +0.000 F 
ATOM     16  C   UNL     1       5.454   6.336  17.652  0.00  0.00    +0.000 A 
ATOM     17  C   UNL     1       4.295   7.106  17.715  0.00  0.00    +0.000 A 
ATOM     18  C   UNL     1       3.134   6.652  18.390  0.00  0.00    +0.000 A 
ATOM     19  C   UNL     1       3.179   5.417  19.071  0.00  0.00    +0.000 A 
ATOM     20  C   UNL     1       2.039   4.886  19.896  0.00  0.00    +0.000 C 
BRANCH  13  22
ATOM     21  C   UNL     1       4.469   2.305  20.001  0.00  0.00    +0.000 C 
ATOM     22  N   UNL     1       4.414   3.379  19.524  0.00  0.00    +0.000 NA
ENDBRANCH  13  22
ENDBRANCH   1  18
BRANCH   7  23
ATOM     23  C   UNL     1       1.198  14.336  19.660  0.00  0.00    +0.000 C 
BRANCH  23  24
ATOM     24  C   UNL     1       2.624  14.709  19.341  0.00  0.00    +0.000 A 
ATOM     25  C   UNL     1       3.333  14.118  18.298  0.00  0.00    +0.000 A 
ATOM     26  N   UNL     1       4.636  14.378  18.023  0.00  0.00    +0.000 NA
ATOM     27  C   UNL     1       5.292  15.250  18.844  0.00  0.00    +0.000 A 
ATOM     28  C   UNL     1       4.661  15.888  19.903  0.00  0.00    +0.000 A 
ATOM     29  F   UNL     1       5.284  16.758  20.709  0.00  0.00    +0.000 F 
ATOM     30  C   UNL     1       3.319  15.614  20.151  0.00  0.00    +0.000 A 
BRANCH  27  31
ATOM     31  N   UNL     1       6.666  15.463  18.600  0.00  0.00    +0.000 N 
ATOM     32  C   UNL     1       7.647  14.508  18.509  0.00  0.00    +0.000 A 
ATOM     33  N   UNL     1       8.805  15.092  18.311  0.00  0.00    +0.000 NA
ATOM     34  N   UNL     1       8.540  16.431  18.269  0.00  0.00    +0.000 NA
ATOM     35  N   UNL     1       7.246  16.675  18.441  0.00  0.00    +0.000 NA
ENDBRANCH  27  31
ENDBRANCH  23  24
ENDBRANCH   7  23
TORSDOF 5
ENDMDL
MODEL 8
REMARK VINA RESULT:      -7.5      3.447     10.499
REMARK  Name = 
REMARK  6 active torsions:
REMARK  status: ('A' for Active; 'I' for Inactive)
REMARK    1  A    between atoms: N_2  and  C_3
REMARK    2  A    between atoms: C_8  and  C_9
REMARK    3  A    between atoms: C_15  and  C_17
REMARK    4  A    between atoms: C_17  and  C_18
REMARK    5  A    between atoms: C_21  and  N_22
REMARK    6  A    between atoms: C_34  and  C_35
REMARK                            x       y       z     vdW  Elec       q    Type
REMARK                         _______ _______ _______ _____ _____    ______ ____
ROOT
ATOM      1  C   UNL     1       0.385  12.088  21.455  0.00  0.00    +0.000 C 
ATOM      2  C   UNL     1       0.378  13.440  20.672  0.00  0.00    +0.000 C 
ATOM      3  N   UNL     1      -0.628  14.444  21.030  0.00  0.00    +0.000 NA
ATOM      4  C   UNL     1      -1.051  15.279  19.887  0.00  0.00    +0.000 C 
ATOM      5  C   UNL     1      -1.915  16.457  20.386  0.00  0.00    +0.000 C 
ATOM      6  N   UNL     1      -3.018  16.001  21.248  0.00  0.00    +0.000 N 
ATOM      7  C   UNL     1      -4.317  16.368  20.952  0.00  0.00    +0.000 C 
ATOM      8  O   UNL     1      -4.601  17.042  19.960  0.00  0.00    +0.000 OA
ATOM      9  C   UNL     1      -2.610  15.063  22.306  0.00  0.00    +0.000 C 
ATOM     10  C   UNL     1      -1.829  13.890  21.690  0.00  0.00    +0.000 C 
ATOM     11  C   UNL     1      -1.450  12.853  22.740  0.00  0.00    +0.000 C 
ATOM     12  O   UNL     1      -0.869  11.736  22.067  0.00  0.00    +0.000 OA
ENDROOT
BRANCH   1  18
ATOM     13  C   UNL     1       1.347   8.660  19.996  0.00  0.00    +0.000 A 
ATOM     14  C   UNL     1       1.361   8.945  18.633  0.00  0.00    +0.000 A 
ATOM     15  F   UNL     1       1.612   7.986  17.734  0.00  0.00    +0.000 F 
ATOM     16  C   UNL     1       1.117  10.234  18.193  0.00  0.00    +0.000 A 
ATOM     17  C   UNL     1       0.818  11.225  19.125  0.00  0.00    +0.000 A 
ATOM     18  C   UNL     1       0.765  10.949  20.514  0.00  0.00    +0.000 A 
ATOM     19  C   UNL     1       1.088   9.653  20.967  0.00  0.00    +0.000 A 
ATOM     20  C   UNL     1       1.155   9.277  22.422  0.00  0.00    +0.000 C 
BRANCH  13  22
ATOM     21  C   UNL     1       1.772   6.239  20.718  0.00  0.00    +0.000 C 
ATOM     22  N   UNL     1       1.575   7.349  20.383  0.00  0.00    +0.000 NA
ENDBRANCH  13  22
ENDBRANCH   1  18
BRANCH   7  23
ATOM     23  C   UNL     1      -5.427  15.873  21.866  0.00  0.00    +0.000 C 
BRANCH  23  24
ATOM     24  C   UNL     1      -5.928  14.490  21.528  0.00  0.00    +0.000 A 
ATOM     25  C   UNL     1      -5.729  13.400  22.371  0.00  0.00    +0.000 A 
ATOM     26  N   UNL     1      -6.105  12.132  22.072  0.00  0.00    +0.000 NA
ATOM     27  C   UNL     1      -6.683  11.916  20.854  0.00  0.00    +0.000 A 
ATOM     28  C   UNL     1      -6.924  12.946  19.955  0.00  0.00    +0.000 A 
ATOM     29  F   UNL     1      -7.504  12.755  18.762  0.00  0.00    +0.000 F 
ATOM     30  C   UNL     1      -6.543  14.240  20.296  0.00  0.00    +0.000 A 
BRANCH  27  31
ATOM     31  N   UNL     1      -7.007  10.584  20.515  0.00  0.00    +0.000 N 
ATOM     32  C   UNL     1      -6.775   9.957  19.317  0.00  0.00    +0.000 A 
ATOM     33  N   UNL     1      -7.248   8.734  19.368  0.00  0.00    +0.000 NA
ATOM     34  N   UNL     1      -7.773   8.594  20.620  0.00  0.00    +0.000 NA
ATOM     35  N   UNL     1      -7.635   9.707  21.332  0.00  0.00    +0.000 NA
ENDBRANCH  27  31
ENDBRANCH  23  24
ENDBRANCH   7  23
TORSDOF 5
ENDMDL
MODEL 9
REMARK VINA RESULT:      -7.4      5.832      8.633
REMARK  Name = 
REMARK  6 active torsions:
REMARK  status: ('A' for Active; 'I' for Inactive)
REMARK    1  A    between atoms: N_2  and  C_3
REMARK    2  A    between atoms: C_8  and  C_9
REMARK    3  A    between atoms: C_15  and  C_17
REMARK    4  A    between atoms: C_17  and  C_18
REMARK    5  A    between atoms: C_21  and  N_22
REMARK    6  A    between atoms: C_34  and  C_35
REMARK                            x       y       z     vdW  Elec       q    Type
REMARK                         _______ _______ _______ _____ _____    ______ ____
ROOT
ATOM      1  C   UNL     1       0.942  11.568  19.337  0.00  0.00    +0.000 C 
ATOM      2  C   UNL     1       0.984  12.548  20.553  0.00  0.00    +0.000 C 
ATOM      3  N   UNL     1       1.581  13.872  20.356  0.00  0.00    +0.000 NA
ATOM      4  C   UNL     1       2.231  14.405  21.570  0.00  0.00    +0.000 C 
ATOM      5  C   UNL     1       2.614  15.885  21.357  0.00  0.00    +0.000 C 
ATOM      6  N   UNL     1       3.388  16.077  20.119  0.00  0.00    +0.000 N 
ATOM      7  C   UNL     1       4.612  16.717  20.167  0.00  0.00    +0.000 C 
ATOM      8  O   UNL     1       5.109  17.109  21.225  0.00  0.00    +0.000 OA
ATOM      9  C   UNL     1       2.803  15.430  18.934  0.00  0.00    +0.000 C 
ATOM     10  C   UNL     1       2.537  13.944  19.230  0.00  0.00    +0.000 C 
ATOM     11  C   UNL     1       2.000  13.214  18.005  0.00  0.00    +0.000 C 
ATOM     12  O   UNL     1       1.927  11.823  18.318  0.00  0.00    +0.000 OA
ENDROOT
BRANCH   1  18
ATOM     13  C   UNL     1       1.866   7.839  19.569  0.00  0.00    +0.000 A 
ATOM     14  C   UNL     1       1.566   7.573  20.903  0.00  0.00    +0.000 A 
ATOM     15  F   UNL     1       1.793   6.363  21.429  0.00  0.00    +0.000 F 
ATOM     16  C   UNL     1       1.025   8.565  21.703  0.00  0.00    +0.000 A 
ATOM     17  C   UNL     1       0.825   9.835  21.166  0.00  0.00    +0.000 A 
ATOM     18  C   UNL     1       1.155  10.137  19.821  0.00  0.00    +0.000 A 
ATOM     19  C   UNL     1       1.635   9.105  18.987  0.00  0.00    +0.000 A 
ATOM     20  C   UNL     1       1.925   9.293  17.523  0.00  0.00    +0.000 C 
BRANCH  13  22
ATOM     21  C   UNL     1       2.900   5.947  18.185  0.00  0.00    +0.000 C 
ATOM     22  N   UNL     1       2.427   6.819  18.818  0.00  0.00    +0.000 NA
ENDBRANCH  13  22
ENDBRANCH   1  18
BRANCH   7  23
ATOM     23  C   UNL     1       5.380  16.893  18.866  0.00  0.00    +0.000 C 
BRANCH  23  24
ATOM     24  C   UNL     1       6.503  15.903  18.680  0.00  0.00    +0.000 A 
ATOM     25  C   UNL     1       6.347  14.731  17.943  0.00  0.00    +0.000 A 
ATOM     26  N   UNL     1       7.311  13.786  17.809  0.00  0.00    +0.000 NA
ATOM     27  C   UNL     1       8.490  13.990  18.467  0.00  0.00    +0.000 A 
ATOM     28  C   UNL     1       8.732  15.131  19.218  0.00  0.00    +0.000 A 
ATOM     29  F   UNL     1       9.888  15.356  19.858  0.00  0.00    +0.000 F 
ATOM     30  C   UNL     1       7.731  16.092  19.324  0.00  0.00    +0.000 A 
BRANCH  27  31
ATOM     31  N   UNL     1       9.464  12.971  18.386  0.00  0.00    +0.000 N 
ATOM     32  C   UNL     1       9.666  11.947  19.278  0.00  0.00    +0.000 A 
ATOM     33  N   UNL     1      10.686  11.222  18.883  0.00  0.00    +0.000 NA
ATOM     34  N   UNL     1      11.120  11.796  17.723  0.00  0.00    +0.000 NA
ATOM     35  N   UNL     1      10.389  12.858  17.405  0.00  0.00    +0.000 NA
ENDBRANCH  27  31
ENDBRANCH  23  24
ENDBRANCH   7  23
TORSDOF 5
ENDMDL
