MODEL 1
REMARK VINA RESULT:      -7.7      0.000      0.000
REMARK  Name = 
REMARK  3 active torsions:
REMARK  status: ('A' for Active; 'I' for Inactive)
REMARK    1  A    between atoms: C_2  and  C_4
REMARK    2  A    between atoms: C_9  and  C_10
REMARK    3  A    between atoms: C_10  and  C_11
REMARK                            x       y       z     vdW  Elec       q    Type
REMARK                         _______ _______ _______ _____ _____    ______ ____
ROOT
ATOM      1  C   UNL     1       0.432   9.540  21.688  0.00  0.00    +0.000 A 
ATOM      2  C   UNL     1       0.345  10.149  20.453  0.00  0.00    +0.000 A 
ATOM      3  C   UNL     1       1.087   9.341  19.538  0.00  0.00    +0.000 A 
ATOM      4  C   UNL     1       1.447   9.388  18.183  0.00  0.00    +0.000 A 
ATOM      5  C   UNL     1       2.226   8.341  17.648  0.00  0.00    +0.000 A 
ATOM      6  C   UNL     1       2.627   7.244  18.432  0.00  0.00    +0.000 A 
ATOM      7  C   UNL     1       2.267   7.189  19.785  0.00  0.00    +0.000 A 
ATOM      8  C   UNL     1       1.539   8.260  20.289  0.00  0.00    +0.000 A 
ATOM      9  O   UNL     1       1.161   8.388  21.579  0.00  0.00    +0.000 OA
ENDROOT
BRANCH   1  11
ATOM     10  O   UNL     1       0.391   9.584  24.053  0.00  0.00    +0.000 OA
ATOM     11  C   UNL     1      -0.155   9.965  22.961  0.00  0.00    +0.000 C 
ATOM     12  O   UNL     1      -1.258  10.601  23.019  0.00  0.00    +0.000 OA
ENDBRANCH   1  11
BRANCH   6  13
ATOM     13  C   UNL     1       3.503   6.147  17.866  0.00  0.00    +0.000 C 
BRANCH  13  14
ATOM     14  C   UNL     1       3.016   4.769  18.230  0.00  0.00    +0.000 A 
ATOM     15  C   UNL     1       1.745   4.318  17.860  0.00  0.00    +0.000 A 
ATOM     16  C   UNL     1       1.296   3.077  18.304  0.00  0.00    +0.000 A 
ATOM     17  C   UNL     1       2.141   2.319  19.098  0.00  0.00    +0.000 A 
ATOM     18  N   UNL     1       3.385   2.705  19.452  0.00  0.00    +0.000 NA
ATOM     19  C   UNL     1       3.788   3.921  19.017  0.00  0.00    +0.000 A 
ENDBRANCH  13  14
ENDBRANCH   6  13
TORSDOF 3
ENDMDL
MODEL 2
REMARK VINA RESULT:      -7.5      0.669      1.108
REMARK  Name = 
REMARK  3 active torsions:
REMARK  status: ('A' for Active; 'I' for Inactive)
REMARK    1  A    between atoms: C_2  and  C_4
REMARK    2  A    between atoms: C_9  and  C_10
REMARK    3  A    between atoms: C_10  and  C_11
REMARK                            x       y       z     vdW  Elec       q    Type
REMARK                         _______ _______ _______ _____ _____    ______ ____
ROOT
ATOM      1  C   UNL     1       0.393   9.575  21.731  0.00  0.00    +0.000 A 
ATOM      2  C   UNL     1       0.312  10.191  20.500  0.00  0.00    +0.000 A 
ATOM      3  C   UNL     1       1.042   9.379  19.579  0.00  0.00    +0.000 A 
ATOM      4  C   UNL     1       1.402   9.429  18.224  0.00  0.00    +0.000 A 
ATOM      5  C   UNL     1       2.167   8.375  17.683  0.00  0.00    +0.000 A 
ATOM      6  C   UNL     1       2.556   7.269  18.461  0.00  0.00    +0.000 A 
ATOM      7  C   UNL     1       2.197   7.212  19.815  0.00  0.00    +0.000 A 
ATOM      8  C   UNL     1       1.483   8.289  20.325  0.00  0.00    +0.000 A 
ATOM      9  O   UNL     1       1.107   8.415  21.616  0.00  0.00    +0.000 OA
ENDROOT
BRANCH   1  11
ATOM     10  O   UNL     1       0.357   9.611  24.097  0.00  0.00    +0.000 OA
ATOM     11  C   UNL     1      -0.188  10.000  23.008  0.00  0.00    +0.000 C 
ATOM     12  O   UNL     1      -1.285  10.645  23.070  0.00  0.00    +0.000 OA
ENDBRANCH   1  11
BRANCH   6  13
ATOM     13  C   UNL     1       3.419   6.165  17.889  0.00  0.00    +0.000 C 
BRANCH  13  14
ATOM     14  C   UNL     1       2.925   4.792  18.261  0.00  0.00    +0.000 A 
ATOM     15  C   UNL     1       3.679   3.933  19.067  0.00  0.00    +0.000 A 
ATOM     16  C   UNL     1       3.231   2.636  19.303  0.00  0.00    +0.000 A 
ATOM     17  C   UNL     1       2.032   2.242  18.732  0.00  0.00    +0.000 A 
ATOM     18  N   UNL     1       1.260   3.049  17.974  0.00  0.00    +0.000 NA
ATOM     19  C   UNL     1       1.728   4.298  17.751  0.00  0.00    +0.000 A 
ENDBRANCH  13  14
ENDBRANCH   6  13
TORSDOF 3
ENDMDL
MODEL 3
REMARK VINA RESULT:      -7.4      5.103      7.596
REMARK  Name = 
REMARK  3 active torsions:
REMARK  status: ('A' for Active; 'I' for Inactive)
REMARK    1  A    between atoms: C_2  and  C_4
REMARK    2  A    between atoms: C_9  and  C_10
REMARK    3  A    between atoms: C_10  and  C_11
REMARK                            x       y       z     vdW  Elec       q    Type
REMARK                         _______ _______ _______ _____ _____    ______ ____
ROOT
ATOM      1  C   UNL     1       6.755   4.906  14.761  0.00  0.00    +0.000 A 
ATOM      2  C   UNL     1       7.458   4.674  15.925  0.00  0.00    +0.000 A 
ATOM      3  C   UNL     1       6.568   4.942  17.010  0.00  0.00    +0.000 A 
ATOM      4  C   UNL     1       6.629   4.958  18.411  0.00  0.00    +0.000 A 
ATOM      5  C   UNL     1       5.469   5.295  19.140  0.00  0.00    +0.000 A 
ATOM      6  C   UNL     1       4.253   5.589  18.498  0.00  0.00    +0.000 A 
ATOM      7  C   UNL     1       4.184   5.570  17.098  0.00  0.00    +0.000 A 
ATOM      8  C   UNL     1       5.356   5.280  16.412  0.00  0.00    +0.000 A 
ATOM      9  O   UNL     1       5.474   5.273  15.067  0.00  0.00    +0.000 OA
ENDROOT
BRANCH   1  11
ATOM     10  O   UNL     1       8.057   5.617  12.918  0.00  0.00    +0.000 OA
ATOM     11  C   UNL     1       7.211   4.774  13.375  0.00  0.00    +0.000 C 
ATOM     12  O   UNL     1       6.703   3.922  12.574  0.00  0.00    +0.000 OA
ENDBRANCH   1  11
BRANCH   6  13
ATOM     13  C   UNL     1       3.024   5.996  19.282  0.00  0.00    +0.000 C 
BRANCH  13  14
ATOM     14  C   UNL     1       2.290   4.817  19.865  0.00  0.00    +0.000 A 
ATOM     15  C   UNL     1       2.445   4.444  21.204  0.00  0.00    +0.000 A 
ATOM     16  C   UNL     1       1.828   3.288  21.674  0.00  0.00    +0.000 A 
ATOM     17  C   UNL     1       1.061   2.547  20.790  0.00  0.00    +0.000 A 
ATOM     18  N   UNL     1       0.862   2.889  19.500  0.00  0.00    +0.000 NA
ATOM     19  C   UNL     1       1.486   4.009  19.068  0.00  0.00    +0.000 A 
ENDBRANCH  13  14
ENDBRANCH   6  13
TORSDOF 3
ENDMDL
MODEL 4
REMARK VINA RESULT:      -7.3      5.104      7.519
REMARK  Name = 
REMARK  3 active torsions:
REMARK  status: ('A' for Active; 'I' for Inactive)
REMARK    1  A    between atoms: C_2  and  C_4
REMARK    2  A    between atoms: C_9  and  C_10
REMARK    3  A    between atoms: C_10  and  C_11
REMARK                            x       y       z     vdW  Elec       q    Type
REMARK                         _______ _______ _______ _____ _____    ______ ____
ROOT
ATOM      1  C   UNL     1       6.753   5.064  14.794  0.00  0.00    +0.000 A 
ATOM      2  C   UNL     1       7.455   4.794  15.950  0.00  0.00    +0.000 A 
ATOM      3  C   UNL     1       6.557   5.004  17.041  0.00  0.00    +0.000 A 
ATOM      4  C   UNL     1       6.614   4.963  18.443  0.00  0.00    +0.000 A 
ATOM      5  C   UNL     1       5.448   5.253  19.180  0.00  0.00    +0.000 A 
ATOM      6  C   UNL     1       4.229   5.557  18.547  0.00  0.00    +0.000 A 
ATOM      7  C   UNL     1       4.165   5.596  17.147  0.00  0.00    +0.000 A 
ATOM      8  C   UNL     1       5.344   5.350  16.454  0.00  0.00    +0.000 A 
ATOM      9  O   UNL     1       5.465   5.402  15.110  0.00  0.00    +0.000 OA
ENDROOT
BRANCH   1  11
ATOM     10  O   UNL     1       6.806   4.041  12.662  0.00  0.00    +0.000 OA
ATOM     11  C   UNL     1       7.214   4.997  13.405  0.00  0.00    +0.000 C 
ATOM     12  O   UNL     1       8.101   5.790  12.948  0.00  0.00    +0.000 OA
ENDBRANCH   1  11
BRANCH   6  13
ATOM     13  C   UNL     1       2.993   5.915  19.343  0.00  0.00    +0.000 C 
BRANCH  13  14
ATOM     14  C   UNL     1       2.367   4.720  20.011  0.00  0.00    +0.000 A 
ATOM     15  C   UNL     1       1.436   3.912  19.351  0.00  0.00    +0.000 A 
ATOM     16  C   UNL     1       0.807   2.878  20.039  0.00  0.00    +0.000 A 
ATOM     17  C   UNL     1       1.140   2.677  21.368  0.00  0.00    +0.000 A 
ATOM     18  N   UNL     1       2.055   3.414  22.033  0.00  0.00    +0.000 NA
ATOM     19  C   UNL     1       2.638   4.420  21.342  0.00  0.00    +0.000 A 
ENDBRANCH  13  14
ENDBRANCH   6  13
TORSDOF 3
ENDMDL
MODEL 5
REMARK VINA RESULT:      -7.2      4.538      6.100
REMARK  Name = 
REMARK  3 active torsions:
REMARK  status: ('A' for Active; 'I' for Inactive)
REMARK    1  A    between atoms: C_2  and  C_4
REMARK    2  A    between atoms: C_9  and  C_10
REMARK    3  A    between atoms: C_10  and  C_11
REMARK                            x       y       z     vdW  Elec       q    Type
REMARK                         _______ _______ _______ _____ _____    ______ ____
ROOT
ATOM      1  C   UNL     1       2.876   3.967  20.070  0.00  0.00    +0.000 A 
ATOM      2  C   UNL     1       2.491   5.151  19.476  0.00  0.00    +0.000 A 
ATOM      3  C   UNL     1       3.498   5.485  18.520  0.00  0.00    +0.000 A 
ATOM      4  C   UNL     1       3.763   6.537  17.631  0.00  0.00    +0.000 A 
ATOM      5  C   UNL     1       4.923   6.476  16.830  0.00  0.00    +0.000 A 
ATOM      6  C   UNL     1       5.801   5.379  16.885  0.00  0.00    +0.000 A 
ATOM      7  C   UNL     1       5.539   4.323  17.768  0.00  0.00    +0.000 A 
ATOM      8  C   UNL     1       4.414   4.438  18.574  0.00  0.00    +0.000 A 
ATOM      9  O   UNL     1       4.050   3.539  19.513  0.00  0.00    +0.000 OA
ENDROOT
BRANCH   1  11
ATOM     10  O   UNL     1       2.889   2.549  21.963  0.00  0.00    +0.000 OA
ATOM     11  C   UNL     1       2.191   3.200  21.112  0.00  0.00    +0.000 C 
ATOM     12  O   UNL     1       0.924   3.062  21.128  0.00  0.00    +0.000 OA
ENDBRANCH   1  11
BRANCH   6  13
ATOM     13  C   UNL     1       7.069   5.340  16.059  0.00  0.00    +0.000 C 
BRANCH  13  14
ATOM     14  C   UNL     1       6.831   4.855  14.653  0.00  0.00    +0.000 A 
ATOM     15  C   UNL     1       5.788   3.975  14.346  0.00  0.00    +0.000 A 
ATOM     16  C   UNL     1       5.667   3.473  13.054  0.00  0.00    +0.000 A 
ATOM     17  C   UNL     1       6.589   3.877  12.103  0.00  0.00    +0.000 A 
ATOM     18  N   UNL     1       7.590   4.747  12.351  0.00  0.00    +0.000 NA
ATOM     19  C   UNL     1       7.692   5.207  13.619  0.00  0.00    +0.000 A 
ENDBRANCH  13  14
ENDBRANCH   6  13
TORSDOF 3
ENDMDL
MODEL 6
REMARK VINA RESULT:      -7.2      5.378      7.829
REMARK  Name = 
REMARK  3 active torsions:
REMARK  status: ('A' for Active; 'I' for Inactive)
REMARK    1  A    between atoms: C_2  and  C_4
REMARK    2  A    between atoms: C_9  and  C_10
REMARK    3  A    between atoms: C_10  and  C_11
REMARK                            x       y       z     vdW  Elec       q    Type
REMARK                         _______ _______ _______ _____ _____    ______ ____
ROOT
ATOM      1  C   UNL     1       6.108   4.142  14.013  0.00  0.00    +0.000 A 
ATOM      2  C   UNL     1       7.189   4.415  14.825  0.00  0.00    +0.000 A 
ATOM      3  C   UNL     1       6.667   4.830  16.088  0.00  0.00    +0.000 A 
ATOM      4  C   UNL     1       7.177   5.287  17.313  0.00  0.00    +0.000 A 
ATOM      5  C   UNL     1       6.277   5.607  18.350  0.00  0.00    +0.000 A 
ATOM      6  C   UNL     1       4.887   5.457  18.194  0.00  0.00    +0.000 A 
ATOM      7  C   UNL     1       4.371   4.997  16.974  0.00  0.00    +0.000 A 
ATOM      8  C   UNL     1       5.284   4.736  15.961  0.00  0.00    +0.000 A 
ATOM      9  O   UNL     1       4.949   4.339  14.714  0.00  0.00    +0.000 OA
ENDROOT
BRANCH   1  11
ATOM     10  O   UNL     1       7.164   3.799  11.925  0.00  0.00    +0.000 OA
ATOM     11  C   UNL     1       6.100   3.680  12.623  0.00  0.00    +0.000 C 
ATOM     12  O   UNL     1       5.035   3.275  12.051  0.00  0.00    +0.000 OA
ENDBRANCH   1  11
BRANCH   6  13
ATOM     13  C   UNL     1       3.922   5.848  19.292  0.00  0.00    +0.000 C 
BRANCH  13  14
ATOM     14  C   UNL     1       3.072   4.693  19.755  0.00  0.00    +0.000 A 
ATOM     15  C   UNL     1       1.696   4.832  19.967  0.00  0.00    +0.000 A 
ATOM     16  C   UNL     1       0.968   3.768  20.492  0.00  0.00    +0.000 A 
ATOM     17  C   UNL     1       1.638   2.591  20.777  0.00  0.00    +0.000 A 
ATOM     18  N   UNL     1       2.957   2.406  20.558  0.00  0.00    +0.000 NA
ATOM     19  C   UNL     1       3.641   3.462  20.061  0.00  0.00    +0.000 A 
ENDBRANCH  13  14
ENDBRANCH   6  13
TORSDOF 3
ENDMDL
MODEL 7
REMARK VINA RESULT:      -7.2      1.446      1.687
REMARK  Name = 
REMARK  3 active torsions:
REMARK  status: ('A' for Active; 'I' for Inactive)
REMARK    1  A    between atoms: C_2  and  C_4
REMARK    2  A    between atoms: C_9  and  C_10
REMARK    3  A    between atoms: C_10  and  C_11
REMARK                            x       y       z     vdW  Elec       q    Type
REMARK                         _______ _______ _______ _____ _____    ______ ____
ROOT
ATOM      1  C   UNL     1      -0.136  10.873  21.030  0.00  0.00    +0.000 A 
ATOM      2  C   UNL     1       0.054  11.021  19.672  0.00  0.00    +0.000 A 
ATOM      3  C   UNL     1       0.831   9.904  19.235  0.00  0.00    +0.000 A 
ATOM      4  C   UNL     1       1.409   9.458  18.037  0.00  0.00    +0.000 A 
ATOM      5  C   UNL     1       2.132   8.247  18.039  0.00  0.00    +0.000 A 
ATOM      6  C   UNL     1       2.264   7.467  19.202  0.00  0.00    +0.000 A 
ATOM      7  C   UNL     1       1.685   7.905  20.401  0.00  0.00    +0.000 A 
ATOM      8  C   UNL     1       1.021   9.125  20.373  0.00  0.00    +0.000 A 
ATOM      9  O   UNL     1       0.456   9.713  21.450  0.00  0.00    +0.000 OA
ENDROOT
BRANCH   1  11
ATOM     10  O   UNL     1      -0.676  11.614  23.210  0.00  0.00    +0.000 OA
ATOM     11  C   UNL     1      -0.866  11.745  21.953  0.00  0.00    +0.000 C 
ATOM     12  O   UNL     1      -1.772  12.547  21.552  0.00  0.00    +0.000 OA
ENDBRANCH   1  11
BRANCH   6  13
ATOM     13  C   UNL     1       3.081   6.193  19.211  0.00  0.00    +0.000 C 
BRANCH  13  14
ATOM     14  C   UNL     1       2.225   4.955  19.151  0.00  0.00    +0.000 A 
ATOM     15  C   UNL     1       1.746   4.336  20.309  0.00  0.00    +0.000 A 
ATOM     16  C   UNL     1       1.044   3.137  20.212  0.00  0.00    +0.000 A 
ATOM     17  C   UNL     1       0.832   2.601  18.953  0.00  0.00    +0.000 A 
ATOM     18  N   UNL     1       1.250   3.183  17.809  0.00  0.00    +0.000 NA
ATOM     19  C   UNL     1       1.942   4.339  17.936  0.00  0.00    +0.000 A 
ENDBRANCH  13  14
ENDBRANCH   6  13
TORSDOF 3
ENDMDL
MODEL 8
REMARK VINA RESULT:      -7.1      1.970      2.673
REMARK  Name = 
REMARK  3 active torsions:
REMARK  status: ('A' for Active; 'I' for Inactive)
REMARK    1  A    between atoms: C_2  and  C_4
REMARK    2  A    between atoms: C_9  and  C_10
REMARK    3  A    between atoms: C_10  and  C_11
REMARK                            x       y       z     vdW  Elec       q    Type
REMARK                         _______ _______ _______ _____ _____    ______ ____
ROOT
ATOM      1  C   UNL     1       0.750   9.371  21.203  0.00  0.00    +0.000 A 
ATOM      2  C   UNL     1       1.105   9.776  19.933  0.00  0.00    +0.000 A 
ATOM      3  C   UNL     1       1.743   8.663  19.304  0.00  0.00    +0.000 A 
ATOM      4  C   UNL     1       2.371   8.395  18.079  0.00  0.00    +0.000 A 
ATOM      5  C   UNL     1       2.894   7.106  17.849  0.00  0.00    +0.000 A 
ATOM      6  C   UNL     1       2.779   6.081  18.805  0.00  0.00    +0.000 A 
ATOM      7  C   UNL     1       2.149   6.341  20.030  0.00  0.00    +0.000 A 
ATOM      8  C   UNL     1       1.687   7.634  20.240  0.00  0.00    +0.000 A 
ATOM      9  O   UNL     1       1.107   8.063  21.382  0.00  0.00    +0.000 OA
ENDROOT
BRANCH   1  11
ATOM     10  O   UNL     1      -0.634  11.151  21.919  0.00  0.00    +0.000 OA
ATOM     11  C   UNL     1       0.068  10.135  22.250  0.00  0.00    +0.000 C 
ATOM     12  O   UNL     1       0.247   9.893  23.489  0.00  0.00    +0.000 OA
ENDBRANCH   1  11
BRANCH   6  13
ATOM     13  C   UNL     1       3.385   4.713  18.574  0.00  0.00    +0.000 C 
BRANCH  13  14
ATOM     14  C   UNL     1       4.842   4.779  18.202  0.00  0.00    +0.000 A 
ATOM     15  C   UNL     1       5.285   4.482  16.909  0.00  0.00    +0.000 A 
ATOM     16  C   UNL     1       6.650   4.456  16.635  0.00  0.00    +0.000 A 
ATOM     17  C   UNL     1       7.531   4.743  17.664  0.00  0.00    +0.000 A 
ATOM     18  N   UNL     1       7.144   5.064  18.916  0.00  0.00    +0.000 NA
ATOM     19  C   UNL     1       5.813   5.067  19.155  0.00  0.00    +0.000 A 
ENDBRANCH  13  14
ENDBRANCH   6  13
TORSDOF 3
ENDMDL
MODEL 9
REMARK VINA RESULT:      -7.0      4.560      6.252
REMARK  Name = 
REMARK  3 active torsions:
REMARK  status: ('A' for Active; 'I' for Inactive)
REMARK    1  A    between atoms: C_2  and  C_4
REMARK    2  A    between atoms: C_9  and  C_10
REMARK    3  A    between atoms: C_10  and  C_11
REMARK                            x       y       z     vdW  Elec       q    Type
REMARK                         _______ _______ _______ _____ _____    ______ ____
ROOT
ATOM      1  C   UNL     1       2.084   3.845  19.160  0.00  0.00    +0.000 A 
ATOM      2  C   UNL     1       2.016   5.196  18.896  0.00  0.00    +0.000 A 
ATOM      3  C   UNL     1       3.186   5.535  18.151  0.00  0.00    +0.000 A 
ATOM      4  C   UNL     1       3.766   6.695  17.616  0.00  0.00    +0.000 A 
ATOM      5  C   UNL     1       4.987   6.588  16.920  0.00  0.00    +0.000 A 
ATOM      6  C   UNL     1       5.623   5.348  16.730  0.00  0.00    +0.000 A 
ATOM      7  C   UNL     1       5.048   4.185  17.259  0.00  0.00    +0.000 A 
ATOM      8  C   UNL     1       3.868   4.334  17.977  0.00  0.00    +0.000 A 
ATOM      9  O   UNL     1       3.216   3.326  18.595  0.00  0.00    +0.000 OA
ENDROOT
BRANCH   1  11
ATOM     10  O   UNL     1       0.167   2.461  19.251  0.00  0.00    +0.000 OA
ATOM     11  C   UNL     1       1.131   3.005  19.890  0.00  0.00    +0.000 C 
ATOM     12  O   UNL     1       1.161   2.895  21.160  0.00  0.00    +0.000 OA
ENDBRANCH   1  11
BRANCH   6  13
ATOM     13  C   UNL     1       6.959   5.244  16.024  0.00  0.00    +0.000 C 
BRANCH  13  14
ATOM     14  C   UNL     1       6.822   4.830  14.583  0.00  0.00    +0.000 A 
ATOM     15  C   UNL     1       5.851   3.912  14.171  0.00  0.00    +0.000 A 
ATOM     16  C   UNL     1       5.826   3.480  12.848  0.00  0.00    +0.000 A 
ATOM     17  C   UNL     1       6.769   3.991  11.972  0.00  0.00    +0.000 A 
ATOM     18  N   UNL     1       7.703   4.901  12.323  0.00  0.00    +0.000 NA
ATOM     19  C   UNL     1       7.711   5.291  13.618  0.00  0.00    +0.000 A 
ENDBRANCH  13  14
ENDBRANCH   6  13
TORSDOF 3
ENDMDL
