MODEL 1
REMARK VINA RESULT:      -7.1      0.000      0.000
REMARK  Name = 
REMARK  9 active torsions:
REMARK  status: ('A' for Active; 'I' for Inactive)
REMARK    1  A    between atoms: C_1  and  C_2
REMARK    2  A    between atoms: C_4  and  C_5
REMARK    3  A    between atoms: N_10  and  C_11
REMARK    4  A    between atoms: C_11  and  C_12
REMARK    5  A    between atoms: C_12  and  C_13
REMARK    6  A    between atoms: C_13  and  C_14
REMARK    7  A    between atoms: C_14  and  O_16
REMARK    8  A    between atoms: C_19  and  C_20
REMARK    9  A    between atoms: N_21  and  C_22
REMARK                            x       y       z     vdW  Elec       q    Type
REMARK                         _______ _______ _______ _____ _____    ______ ____
ROOT
ATOM      1  C   UNL     1       1.042   7.886  20.859  0.00  0.00    +0.000 C 
ATOM      2  C   UNL     1       1.913   7.364  19.987  0.00  0.00    +0.000 C 
ATOM      3  S   UNL     1       2.535   8.097  18.565  0.00  0.00    +0.000 S 
ATOM      4  C   UNL     1       3.490   6.685  18.141  0.00  0.00    +0.000 C 
ATOM      5  S   UNL     1       4.461   6.673  16.786  0.00  0.00    +0.000 S 
ATOM      6  N   UNL     1       3.281   5.677  19.063  0.00  0.00    +0.000 N 
ATOM      7  C   UNL     1       2.464   5.995  20.139  0.00  0.00    +0.000 C 
ATOM      8  O   UNL     1       2.217   5.274  21.094  0.00  0.00    +0.000 OA
ENDROOT
BRANCH   1  12
ATOM      9  C   UNL     1      -0.710  12.193  18.985  0.00  0.00    +0.000 C 
ATOM     10  C   UNL     1      -0.381  11.093  19.936  0.00  0.00    +0.000 A 
ATOM     11  C   UNL     1       0.192   9.884  19.590  0.00  0.00    +0.000 A 
ATOM     12  C   UNL     1       0.461   9.185  20.771  0.00  0.00    +0.000 A 
ATOM     13  C   UNL     1       0.036   9.952  21.843  0.00  0.00    +0.000 A 
ATOM     14  C   UNL     1       0.024   9.554  23.285  0.00  0.00    +0.000 C 
ATOM     15  N   UNL     1      -0.508  11.146  21.332  0.00  0.00    +0.000 N 
BRANCH  15  16
ATOM     16  C   UNL     1      -1.104  12.208  22.099  0.00  0.00    +0.000 A 
ATOM     17  C   UNL     1      -0.381  13.367  22.412  0.00  0.00    +0.000 A 
ATOM     18  C   UNL     1      -0.939  14.369  23.214  0.00  0.00    +0.000 A 
ATOM     19  C   UNL     1      -2.243  14.246  23.680  0.00  0.00    +0.000 A 
ATOM     20  C   UNL     1      -2.985  13.117  23.351  0.00  0.00    +0.000 A 
ATOM     21  C   UNL     1      -2.417  12.098  22.575  0.00  0.00    +0.000 A 
ENDBRANCH  15  16
ENDBRANCH   1  12
BRANCH   6  22
ATOM     22  C   UNL     1       3.968   4.381  19.057  0.00  0.00    +0.000 C 
BRANCH  22  23
ATOM     23  C   UNL     1       3.211   3.261  18.322  0.00  0.00    +0.000 C 
BRANCH  23  24
ATOM     24  C   UNL     1       2.507   2.263  19.241  0.00  0.00    +0.000 C 
BRANCH  24  25
ATOM     25  C   UNL     1       1.013   2.479  19.291  0.00  0.00    +0.000 C 
ATOM     26  O   UNL     1       0.242   2.173  18.393  0.00  0.00    +0.000 OA
BRANCH  25  27
ATOM     27  O   UNL     1       0.596   3.017  20.456  0.00  0.00    +0.000 OA
ATOM     28  H   UNL     1       0.056   3.826  20.364  0.00  0.00    +0.000 HD
ENDBRANCH  25  27
ENDBRANCH  24  25
ENDBRANCH  23  24
ENDBRANCH  22  23
ENDBRANCH   6  22
TORSDOF 7
ENDMDL
MODEL 2
REMARK VINA RESULT:      -7.0      2.889      4.300
REMARK  Name = 
REMARK  9 active torsions:
REMARK  status: ('A' for Active; 'I' for Inactive)
REMARK    1  A    between atoms: C_1  and  C_2
REMARK    2  A    between atoms: C_4  and  C_5
REMARK    3  A    between atoms: N_10  and  C_11
REMARK    4  A    between atoms: C_11  and  C_12
REMARK    5  A    between atoms: C_12  and  C_13
REMARK    6  A    between atoms: C_13  and  C_14
REMARK    7  A    between atoms: C_14  and  O_16
REMARK    8  A    between atoms: C_19  and  C_20
REMARK    9  A    between atoms: N_21  and  C_22
REMARK                            x       y       z     vdW  Elec       q    Type
REMARK                         _______ _______ _______ _____ _____    ______ ____
ROOT
ATOM      1  C   UNL     1       2.788   7.977  18.180  0.00  0.00    +0.000 C 
ATOM      2  C   UNL     1       3.299   6.744  18.293  0.00  0.00    +0.000 C 
ATOM      3  S   UNL     1       3.006   5.603  19.541  0.00  0.00    +0.000 S 
ATOM      4  C   UNL     1       4.091   4.414  18.837  0.00  0.00    +0.000 C 
ATOM      5  S   UNL     1       4.311   2.919  19.541  0.00  0.00    +0.000 S 
ATOM      6  N   UNL     1       4.682   4.928  17.698  0.00  0.00    +0.000 N 
ATOM      7  C   UNL     1       4.255   6.188  17.304  0.00  0.00    +0.000 C 
ATOM      8  O   UNL     1       4.595   6.781  16.292  0.00  0.00    +0.000 OA
ENDROOT
BRANCH   1  12
ATOM      9  C   UNL     1      -0.280   8.654  22.086  0.00  0.00    +0.000 C 
ATOM     10  C   UNL     1       0.548   8.917  20.874  0.00  0.00    +0.000 A 
ATOM     11  C   UNL     1       1.388   8.001  20.269  0.00  0.00    +0.000 A 
ATOM     12  C   UNL     1       1.878   8.583  19.095  0.00  0.00    +0.000 A 
ATOM     13  C   UNL     1       1.358   9.862  18.987  0.00  0.00    +0.000 A 
ATOM     14  C   UNL     1       1.697  10.886  17.950  0.00  0.00    +0.000 C 
ATOM     15  N   UNL     1       0.533  10.089  20.105  0.00  0.00    +0.000 N 
BRANCH  15  16
ATOM     16  C   UNL     1      -0.172  11.306  20.410  0.00  0.00    +0.000 A 
ATOM     17  C   UNL     1      -1.443  11.559  19.876  0.00  0.00    +0.000 A 
ATOM     18  C   UNL     1      -2.099  12.770  20.119  0.00  0.00    +0.000 A 
ATOM     19  C   UNL     1      -1.511  13.731  20.935  0.00  0.00    +0.000 A 
ATOM     20  C   UNL     1      -0.265  13.482  21.499  0.00  0.00    +0.000 A 
ATOM     21  C   UNL     1       0.407  12.284  21.231  0.00  0.00    +0.000 A 
ENDBRANCH  15  16
ENDBRANCH   1  12
BRANCH   6  22
ATOM     22  C   UNL     1       5.592   4.184  16.819  0.00  0.00    +0.000 C 
BRANCH  22  23
ATOM     23  C   UNL     1       7.022   4.749  16.758  0.00  0.00    +0.000 C 
BRANCH  23  24
ATOM     24  C   UNL     1       7.829   4.571  18.043  0.00  0.00    +0.000 C 
BRANCH  24  25
ATOM     25  C   UNL     1       7.829   5.814  18.902  0.00  0.00    +0.000 C 
ATOM     26  O   UNL     1       7.913   6.953  18.465  0.00  0.00    +0.000 OA
BRANCH  25  27
ATOM     27  O   UNL     1       7.688   5.548  20.217  0.00  0.00    +0.000 OA
ATOM     28  H   UNL     1       7.868   4.622  20.469  0.00  0.00    +0.000 HD
ENDBRANCH  25  27
ENDBRANCH  24  25
ENDBRANCH  23  24
ENDBRANCH  22  23
ENDBRANCH   6  22
TORSDOF 7
ENDMDL
MODEL 3
REMARK VINA RESULT:      -6.8      0.730      1.229
REMARK  Name = 
REMARK  9 active torsions:
REMARK  status: ('A' for Active; 'I' for Inactive)
REMARK    1  A    between atoms: C_1  and  C_2
REMARK    2  A    between atoms: C_4  and  C_5
REMARK    3  A    between atoms: N_10  and  C_11
REMARK    4  A    between atoms: C_11  and  C_12
REMARK    5  A    between atoms: C_12  and  C_13
REMARK    6  A    between atoms: C_13  and  C_14
REMARK    7  A    between atoms: C_14  and  O_16
REMARK    8  A    between atoms: C_19  and  C_20
REMARK    9  A    between atoms: N_21  and  C_22
REMARK                            x       y       z     vdW  Elec       q    Type
REMARK                         _______ _______ _______ _____ _____    ______ ____
ROOT
ATOM      1  C   UNL     1       1.390   7.688  20.500  0.00  0.00    +0.000 C 
ATOM      2  C   UNL     1       2.278   7.204  19.622  0.00  0.00    +0.000 C 
ATOM      3  S   UNL     1       2.871   7.971  18.206  0.00  0.00    +0.000 S 
ATOM      4  C   UNL     1       3.875   6.597  17.768  0.00  0.00    +0.000 C 
ATOM      5  S   UNL     1       4.843   6.631  16.412  0.00  0.00    +0.000 S 
ATOM      6  N   UNL     1       3.702   5.574  18.681  0.00  0.00    +0.000 N 
ATOM      7  C   UNL     1       2.876   5.854  19.761  0.00  0.00    +0.000 C 
ATOM      8  O   UNL     1       2.656   5.117  20.710  0.00  0.00    +0.000 OA
ENDROOT
BRANCH   1  12
ATOM      9  C   UNL     1      -0.672  11.869  18.658  0.00  0.00    +0.000 C 
ATOM     10  C   UNL     1      -0.216  10.817  19.610  0.00  0.00    +0.000 A 
ATOM     11  C   UNL     1       0.356   9.611  19.251  0.00  0.00    +0.000 A 
ATOM     12  C   UNL     1       0.764   8.967  20.425  0.00  0.00    +0.000 A 
ATOM     13  C   UNL     1       0.426   9.764  21.505  0.00  0.00    +0.000 A 
ATOM     14  C   UNL     1       0.572   9.423  22.955  0.00  0.00    +0.000 C 
ATOM     15  N   UNL     1      -0.203  10.921  21.009  0.00  0.00    +0.000 N 
BRANCH  15  16
ATOM     16  C   UNL     1      -0.750  11.996  21.793  0.00  0.00    +0.000 A 
ATOM     17  C   UNL     1      -2.009  11.881  22.399  0.00  0.00    +0.000 A 
ATOM     18  C   UNL     1      -2.569  12.951  23.105  0.00  0.00    +0.000 A 
ATOM     19  C   UNL     1      -1.860  14.139  23.251  0.00  0.00    +0.000 A 
ATOM     20  C   UNL     1      -0.596  14.258  22.684  0.00  0.00    +0.000 A 
ATOM     21  C   UNL     1      -0.048  13.199  21.950  0.00  0.00    +0.000 A 
ENDBRANCH  15  16
ENDBRANCH   1  12
BRANCH   6  22
ATOM     22  C   UNL     1       4.435   4.303  18.663  0.00  0.00    +0.000 C 
BRANCH  22  23
ATOM     23  C   UNL     1       3.848   3.243  17.714  0.00  0.00    +0.000 C 
BRANCH  23  24
ATOM     24  C   UNL     1       2.862   2.279  18.372  0.00  0.00    +0.000 C 
BRANCH  24  25
ATOM     25  C   UNL     1       1.426   2.717  18.201  0.00  0.00    +0.000 C 
ATOM     26  O   UNL     1       1.082   3.742  17.631  0.00  0.00    +0.000 OA
BRANCH  25  27
ATOM     27  O   UNL     1       0.541   1.837  18.713  0.00  0.00    +0.000 OA
ATOM     28  H   UNL     1       0.833   0.905  18.696  0.00  0.00    +0.000 HD
ENDBRANCH  25  27
ENDBRANCH  24  25
ENDBRANCH  23  24
ENDBRANCH  22  23
ENDBRANCH   6  22
TORSDOF 7
ENDMDL
MODEL 4
REMARK VINA RESULT:      -6.7      1.979      3.099
REMARK  Name = 
REMARK  9 active torsions:
REMARK  status: ('A' for Active; 'I' for Inactive)
REMARK    1  A    between atoms: C_1  and  C_2
REMARK    2  A    between atoms: C_4  and  C_5
REMARK    3  A    between atoms: N_10  and  C_11
REMARK    4  A    between atoms: C_11  and  C_12
REMARK    5  A    between atoms: C_12  and  C_13
REMARK    6  A    between atoms: C_13  and  C_14
REMARK    7  A    between atoms: C_14  and  O_16
REMARK    8  A    between atoms: C_19  and  C_20
REMARK    9  A    between atoms: N_21  and  C_22
REMARK                            x       y       z     vdW  Elec       q    Type
REMARK                         _______ _______ _______ _____ _____    ______ ____
ROOT
ATOM      1  C   UNL     1       1.114   7.914  20.625  0.00  0.00    +0.000 C 
ATOM      2  C   UNL     1       1.988   7.479  19.708  0.00  0.00    +0.000 C 
ATOM      3  S   UNL     1       2.547   8.317  18.318  0.00  0.00    +0.000 S 
ATOM      4  C   UNL     1       3.552   6.973  17.797  0.00  0.00    +0.000 C 
ATOM      5  S   UNL     1       4.494   7.078  16.425  0.00  0.00    +0.000 S 
ATOM      6  N   UNL     1       3.406   5.908  18.665  0.00  0.00    +0.000 N 
ATOM      7  C   UNL     1       2.600   6.130  19.773  0.00  0.00    +0.000 C 
ATOM      8  O   UNL     1       2.404   5.347  20.690  0.00  0.00    +0.000 OA
ENDROOT
BRANCH   1  12
ATOM      9  C   UNL     1      -0.967  12.183  19.020  0.00  0.00    +0.000 C 
ATOM     10  C   UNL     1      -0.512  11.078  19.911  0.00  0.00    +0.000 A 
ATOM     11  C   UNL     1       0.076   9.902  19.485  0.00  0.00    +0.000 A 
ATOM     12  C   UNL     1       0.476   9.189  20.621  0.00  0.00    +0.000 A 
ATOM     13  C   UNL     1       0.118   9.914  21.744  0.00  0.00    +0.000 A 
ATOM     14  C   UNL     1       0.249   9.485  23.172  0.00  0.00    +0.000 C 
ATOM     15  N   UNL     1      -0.517  11.095  21.313  0.00  0.00    +0.000 N 
BRANCH  15  16
ATOM     16  C   UNL     1      -1.084  12.114  22.156  0.00  0.00    +0.000 A 
ATOM     17  C   UNL     1      -2.345  11.947  22.743  0.00  0.00    +0.000 A 
ATOM     18  C   UNL     1      -2.924  12.966  23.507  0.00  0.00    +0.000 A 
ATOM     19  C   UNL     1      -2.232  14.152  23.731  0.00  0.00    +0.000 A 
ATOM     20  C   UNL     1      -0.966  14.320  23.182  0.00  0.00    +0.000 A 
ATOM     21  C   UNL     1      -0.398  13.314  22.391  0.00  0.00    +0.000 A 
ENDBRANCH  15  16
ENDBRANCH   1  12
BRANCH   6  22
ATOM     22  C   UNL     1       4.148   4.645  18.573  0.00  0.00    +0.000 C 
BRANCH  22  23
ATOM     23  C   UNL     1       5.477   4.629  19.348  0.00  0.00    +0.000 C 
BRANCH  23  24
ATOM     24  C   UNL     1       6.711   4.924  18.496  0.00  0.00    +0.000 C 
BRANCH  24  25
ATOM     25  C   UNL     1       7.687   5.842  19.193  0.00  0.00    +0.000 C 
ATOM     26  O   UNL     1       8.144   6.864  18.701  0.00  0.00    +0.000 OA
BRANCH  25  27
ATOM     27  O   UNL     1       7.985   5.443  20.447  0.00  0.00    +0.000 OA
ATOM     28  H   UNL     1       7.216   5.180  20.988  0.00  0.00    +0.000 HD
ENDBRANCH  25  27
ENDBRANCH  24  25
ENDBRANCH  23  24
ENDBRANCH  22  23
ENDBRANCH   6  22
TORSDOF 7
ENDMDL
MODEL 5
REMARK VINA RESULT:      -6.7      3.715      4.748
REMARK  Name = 
REMARK  9 active torsions:
REMARK  status: ('A' for Active; 'I' for Inactive)
REMARK    1  A    between atoms: C_1  and  C_2
REMARK    2  A    between atoms: C_4  and  C_5
REMARK    3  A    between atoms: N_10  and  C_11
REMARK    4  A    between atoms: C_11  and  C_12
REMARK    5  A    between atoms: C_12  and  C_13
REMARK    6  A    between atoms: C_13  and  C_14
REMARK    7  A    between atoms: C_14  and  O_16
REMARK    8  A    between atoms: C_19  and  C_20
REMARK    9  A    between atoms: N_21  and  C_22
REMARK                            x       y       z     vdW  Elec       q    Type
REMARK                         _______ _______ _______ _____ _____    ______ ____
ROOT
ATOM      1  C   UNL     1       3.183   7.764  18.289  0.00  0.00    +0.000 C 
ATOM      2  C   UNL     1       3.344   6.462  18.018  0.00  0.00    +0.000 C 
ATOM      3  S   UNL     1       2.359   5.157  18.539  0.00  0.00    +0.000 S 
ATOM      4  C   UNL     1       3.365   3.957  17.744  0.00  0.00    +0.000 C 
ATOM      5  S   UNL     1       2.980   2.336  17.793  0.00  0.00    +0.000 S 
ATOM      6  N   UNL     1       4.447   4.570  17.140  0.00  0.00    +0.000 N 
ATOM      7  C   UNL     1       4.475   5.956  17.203  0.00  0.00    +0.000 C 
ATOM      8  O   UNL     1       5.299   6.684  16.671  0.00  0.00    +0.000 OA
ENDROOT
BRANCH   1  12
ATOM      9  C   UNL     1      -0.263   8.366  21.880  0.00  0.00    +0.000 C 
ATOM     10  C   UNL     1       0.626   8.630  20.712  0.00  0.00    +0.000 A 
ATOM     11  C   UNL     1       1.619   7.783  20.259  0.00  0.00    +0.000 A 
ATOM     12  C   UNL     1       2.131   8.322  19.074  0.00  0.00    +0.000 A 
ATOM     13  C   UNL     1       1.470   9.508  18.807  0.00  0.00    +0.000 A 
ATOM     14  C   UNL     1       1.766  10.476  17.705  0.00  0.00    +0.000 C 
ATOM     15  N   UNL     1       0.532   9.721  19.835  0.00  0.00    +0.000 N 
BRANCH  15  16
ATOM     16  C   UNL     1      -0.340  10.858  19.972  0.00  0.00    +0.000 A 
ATOM     17  C   UNL     1      -0.060  11.878  20.891  0.00  0.00    +0.000 A 
ATOM     18  C   UNL     1      -0.942  12.948  21.070  0.00  0.00    +0.000 A 
ATOM     19  C   UNL     1      -2.099  13.037  20.303  0.00  0.00    +0.000 A 
ATOM     20  C   UNL     1      -2.375  12.049  19.363  0.00  0.00    +0.000 A 
ATOM     21  C   UNL     1      -1.509  10.961  19.206  0.00  0.00    +0.000 A 
ENDBRANCH  15  16
ENDBRANCH   1  12
BRANCH   6  22
ATOM     22  C   UNL     1       5.456   3.878  16.329  0.00  0.00    +0.000 C 
BRANCH  22  23
ATOM     23  C   UNL     1       5.305   4.086  14.812  0.00  0.00    +0.000 C 
BRANCH  23  24
ATOM     24  C   UNL     1       6.580   4.544  14.105  0.00  0.00    +0.000 C 
BRANCH  24  25
ATOM     25  C   UNL     1       6.721   3.944  12.725  0.00  0.00    +0.000 C 
ATOM     26  O   UNL     1       7.372   4.446  11.820  0.00  0.00    +0.000 OA
BRANCH  25  27
ATOM     27  O   UNL     1       6.081   2.764  12.594  0.00  0.00    +0.000 OA
ATOM     28  H   UNL     1       6.226   2.135  13.327  0.00  0.00    +0.000 HD
ENDBRANCH  25  27
ENDBRANCH  24  25
ENDBRANCH  23  24
ENDBRANCH  22  23
ENDBRANCH   6  22
TORSDOF 7
ENDMDL
MODEL 6
REMARK VINA RESULT:      -6.7      1.101      1.604
REMARK  Name = 
REMARK  9 active torsions:
REMARK  status: ('A' for Active; 'I' for Inactive)
REMARK    1  A    between atoms: C_1  and  C_2
REMARK    2  A    between atoms: C_4  and  C_5
REMARK    3  A    between atoms: N_10  and  C_11
REMARK    4  A    between atoms: C_11  and  C_12
REMARK    5  A    between atoms: C_12  and  C_13
REMARK    6  A    between atoms: C_13  and  C_14
REMARK    7  A    between atoms: C_14  and  O_16
REMARK    8  A    between atoms: C_19  and  C_20
REMARK    9  A    between atoms: N_21  and  C_22
REMARK                            x       y       z     vdW  Elec       q    Type
REMARK                         _______ _______ _______ _____ _____    ______ ____
ROOT
ATOM      1  C   UNL     1       0.918   7.852  20.927  0.00  0.00    +0.000 C 
ATOM      2  C   UNL     1       1.809   7.403  20.034  0.00  0.00    +0.000 C 
ATOM      3  S   UNL     1       2.393   8.217  18.641  0.00  0.00    +0.000 S 
ATOM      4  C   UNL     1       3.409   6.867  18.161  0.00  0.00    +0.000 C 
ATOM      5  S   UNL     1       4.375   6.950  16.806  0.00  0.00    +0.000 S 
ATOM      6  N   UNL     1       3.248   5.816  19.045  0.00  0.00    +0.000 N 
ATOM      7  C   UNL     1       2.421   6.056  20.134  0.00  0.00    +0.000 C 
ATOM      8  O   UNL     1       2.210   5.289  21.061  0.00  0.00    +0.000 OA
ENDROOT
BRANCH   1  12
ATOM      9  C   UNL     1      -1.198  12.060  19.210  0.00  0.00    +0.000 C 
ATOM     10  C   UNL     1      -0.725  10.987  20.131  0.00  0.00    +0.000 A 
ATOM     11  C   UNL     1      -0.143   9.797  19.737  0.00  0.00    +0.000 A 
ATOM     12  C   UNL     1       0.279   9.126  20.890  0.00  0.00    +0.000 A 
ATOM     13  C   UNL     1      -0.059   9.891  21.993  0.00  0.00    +0.000 A 
ATOM     14  C   UNL     1       0.100   9.514  23.432  0.00  0.00    +0.000 C 
ATOM     15  N   UNL     1      -0.703  11.055  21.532  0.00  0.00    +0.000 N 
BRANCH  15  16
ATOM     16  C   UNL     1      -1.255  12.104  22.348  0.00  0.00    +0.000 A 
ATOM     17  C   UNL     1      -2.529  11.980  22.920  0.00  0.00    +0.000 A 
ATOM     18  C   UNL     1      -3.092  13.027  23.657  0.00  0.00    +0.000 A 
ATOM     19  C   UNL     1      -2.373  14.198  23.869  0.00  0.00    +0.000 A 
ATOM     20  C   UNL     1      -1.095  14.324  23.337  0.00  0.00    +0.000 A 
ATOM     21  C   UNL     1      -0.543  13.289  22.571  0.00  0.00    +0.000 A 
ENDBRANCH  15  16
ENDBRANCH   1  12
BRANCH   6  22
ATOM     22  C   UNL     1       3.993   4.553  18.988  0.00  0.00    +0.000 C 
BRANCH  22  23
ATOM     23  C   UNL     1       3.249   3.405  18.286  0.00  0.00    +0.000 C 
BRANCH  23  24
ATOM     24  C   UNL     1       2.998   2.180  19.165  0.00  0.00    +0.000 C 
BRANCH  24  25
ATOM     25  C   UNL     1       3.848   2.182  20.414  0.00  0.00    +0.000 C 
ATOM     26  O   UNL     1       5.040   1.910  20.436  0.00  0.00    +0.000 OA
BRANCH  25  27
ATOM     27  O   UNL     1       3.166   2.554  21.517  0.00  0.00    +0.000 OA
ATOM     28  H   UNL     1       3.668   2.484  22.352  0.00  0.00    +0.000 HD
ENDBRANCH  25  27
ENDBRANCH  24  25
ENDBRANCH  23  24
ENDBRANCH  22  23
ENDBRANCH   6  22
TORSDOF 7
ENDMDL
MODEL 7
REMARK VINA RESULT:      -6.7      1.145      1.344
REMARK  Name = 
REMARK  9 active torsions:
REMARK  status: ('A' for Active; 'I' for Inactive)
REMARK    1  A    between atoms: C_1  and  C_2
REMARK    2  A    between atoms: C_4  and  C_5
REMARK    3  A    between atoms: N_10  and  C_11
REMARK    4  A    between atoms: C_11  and  C_12
REMARK    5  A    between atoms: C_12  and  C_13
REMARK    6  A    between atoms: C_13  and  C_14
REMARK    7  A    between atoms: C_14  and  O_16
REMARK    8  A    between atoms: C_19  and  C_20
REMARK    9  A    between atoms: N_21  and  C_22
REMARK                            x       y       z     vdW  Elec       q    Type
REMARK                         _______ _______ _______ _____ _____    ______ ____
ROOT
ATOM      1  C   UNL     1       1.321   7.824  20.535  0.00  0.00    +0.000 C 
ATOM      2  C   UNL     1       2.201   7.345  19.646  0.00  0.00    +0.000 C 
ATOM      3  S   UNL     1       2.776   8.118  18.225  0.00  0.00    +0.000 S 
ATOM      4  C   UNL     1       3.779   6.749  17.773  0.00  0.00    +0.000 C 
ATOM      5  S   UNL     1       4.732   6.789  16.406  0.00  0.00    +0.000 S 
ATOM      6  N   UNL     1       3.620   5.723  18.685  0.00  0.00    +0.000 N 
ATOM      7  C   UNL     1       2.805   5.997  19.775  0.00  0.00    +0.000 C 
ATOM      8  O   UNL     1       2.598   5.257  20.724  0.00  0.00    +0.000 OA
ENDROOT
BRANCH   1  12
ATOM      9  C   UNL     1      -0.709  12.036  18.726  0.00  0.00    +0.000 C 
ATOM     10  C   UNL     1      -0.275  10.964  19.668  0.00  0.00    +0.000 A 
ATOM     11  C   UNL     1       0.315   9.770  19.299  0.00  0.00    +0.000 A 
ATOM     12  C   UNL     1       0.690   9.101  20.469  0.00  0.00    +0.000 A 
ATOM     13  C   UNL     1       0.315   9.871  21.557  0.00  0.00    +0.000 A 
ATOM     14  C   UNL     1       0.418   9.498  23.002  0.00  0.00    +0.000 C 
ATOM     15  N   UNL     1      -0.306  11.037  21.069  0.00  0.00    +0.000 N 
BRANCH  15  16
ATOM     16  C   UNL     1      -0.883  12.090  21.860  0.00  0.00    +0.000 A 
ATOM     17  C   UNL     1      -0.193  13.290  22.082  0.00  0.00    +0.000 A 
ATOM     18  C   UNL     1      -0.726  14.286  22.906  0.00  0.00    +0.000 A 
ATOM     19  C   UNL     1      -1.978  14.116  23.488  0.00  0.00    +0.000 A 
ATOM     20  C   UNL     1      -2.691  12.945  23.251  0.00  0.00    +0.000 A 
ATOM     21  C   UNL     1      -2.144  11.934  22.452  0.00  0.00    +0.000 A 
ENDBRANCH  15  16
ENDBRANCH   1  12
BRANCH   6  22
ATOM     22  C   UNL     1       4.356   4.454  18.655  0.00  0.00    +0.000 C 
BRANCH  22  23
ATOM     23  C   UNL     1       3.648   3.324  17.888  0.00  0.00    +0.000 C 
BRANCH  23  24
ATOM     24  C   UNL     1       3.278   2.112  18.742  0.00  0.00    +0.000 C 
BRANCH  24  25
ATOM     25  C   UNL     1       3.934   2.143  20.103  0.00  0.00    +0.000 C 
ATOM     26  O   UNL     1       5.106   1.865  20.309  0.00  0.00    +0.000 OA
BRANCH  25  27
ATOM     27  O   UNL     1       3.099   2.550  21.082  0.00  0.00    +0.000 OA
ATOM     28  H   UNL     1       2.569   3.341  20.866  0.00  0.00    +0.000 HD
ENDBRANCH  25  27
ENDBRANCH  24  25
ENDBRANCH  23  24
ENDBRANCH  22  23
ENDBRANCH   6  22
TORSDOF 7
ENDMDL
MODEL 8
REMARK VINA RESULT:      -6.7      3.630      4.717
REMARK  Name = 
REMARK  9 active torsions:
REMARK  status: ('A' for Active; 'I' for Inactive)
REMARK    1  A    between atoms: C_1  and  C_2
REMARK    2  A    between atoms: C_4  and  C_5
REMARK    3  A    between atoms: N_10  and  C_11
REMARK    4  A    between atoms: C_11  and  C_12
REMARK    5  A    between atoms: C_12  and  C_13
REMARK    6  A    between atoms: C_13  and  C_14
REMARK    7  A    between atoms: C_14  and  O_16
REMARK    8  A    between atoms: C_19  and  C_20
REMARK    9  A    between atoms: N_21  and  C_22
REMARK                            x       y       z     vdW  Elec       q    Type
REMARK                         _______ _______ _______ _____ _____    ______ ____
ROOT
ATOM      1  C   UNL     1       3.160   7.838  18.226  0.00  0.00    +0.000 C 
ATOM      2  C   UNL     1       3.301   6.545  17.906  0.00  0.00    +0.000 C 
ATOM      3  S   UNL     1       2.317   5.232  18.408  0.00  0.00    +0.000 S 
ATOM      4  C   UNL     1       3.289   4.051  17.545  0.00  0.00    +0.000 C 
ATOM      5  S   UNL     1       2.888   2.433  17.548  0.00  0.00    +0.000 S 
ATOM      6  N   UNL     1       4.360   4.674  16.934  0.00  0.00    +0.000 N 
ATOM      7  C   UNL     1       4.404   6.057  17.044  0.00  0.00    +0.000 C 
ATOM      8  O   UNL     1       5.221   6.796  16.515  0.00  0.00    +0.000 OA
ENDROOT
BRANCH   1  12
ATOM      9  C   UNL     1      -0.158   8.362  21.946  0.00  0.00    +0.000 C 
ATOM     10  C   UNL     1       0.688   8.651  20.754  0.00  0.00    +0.000 A 
ATOM     11  C   UNL     1       1.667   7.815  20.250  0.00  0.00    +0.000 A 
ATOM     12  C   UNL     1       2.136   8.378  19.058  0.00  0.00    +0.000 A 
ATOM     13  C   UNL     1       1.464   9.568  18.839  0.00  0.00    +0.000 A 
ATOM     14  C   UNL     1       1.721  10.559  17.747  0.00  0.00    +0.000 C 
ATOM     15  N   UNL     1       0.562   9.759  19.903  0.00  0.00    +0.000 N 
BRANCH  15  16
ATOM     16  C   UNL     1      -0.306  10.891  20.093  0.00  0.00    +0.000 A 
ATOM     17  C   UNL     1      -1.468  11.048  19.324  0.00  0.00    +0.000 A 
ATOM     18  C   UNL     1      -2.275  12.181  19.463  0.00  0.00    +0.000 A 
ATOM     19  C   UNL     1      -1.956  13.156  20.402  0.00  0.00    +0.000 A 
ATOM     20  C   UNL     1      -0.824  13.000  21.195  0.00  0.00    +0.000 A 
ATOM     21  C   UNL     1       0.002  11.881  21.035  0.00  0.00    +0.000 A 
ENDBRANCH  15  16
ENDBRANCH   1  12
BRANCH   6  22
ATOM     22  C   UNL     1       5.339   4.002  16.072  0.00  0.00    +0.000 C 
BRANCH  22  23
ATOM     23  C   UNL     1       5.331   4.476  14.608  0.00  0.00    +0.000 C 
BRANCH  23  24
ATOM     24  C   UNL     1       6.433   3.871  13.739  0.00  0.00    +0.000 C 
BRANCH  24  25
ATOM     25  C   UNL     1       5.892   3.240  12.478  0.00  0.00    +0.000 C 
ATOM     26  O   UNL     1       4.763   3.422  12.047  0.00  0.00    +0.000 OA
BRANCH  25  27
ATOM     27  O   UNL     1       6.799   2.471  11.841  0.00  0.00    +0.000 OA
ATOM     28  H   UNL     1       6.445   1.638  11.474  0.00  0.00    +0.000 HD
ENDBRANCH  25  27
ENDBRANCH  24  25
ENDBRANCH  23  24
ENDBRANCH  22  23
ENDBRANCH   6  22
TORSDOF 7
ENDMDL
MODEL 9
REMARK VINA RESULT:      -6.6      0.989      1.119
REMARK  Name = 
REMARK  9 active torsions:
REMARK  status: ('A' for Active; 'I' for Inactive)
REMARK    1  A    between atoms: C_1  and  C_2
REMARK    2  A    between atoms: C_4  and  C_5
REMARK    3  A    between atoms: N_10  and  C_11
REMARK    4  A    between atoms: C_11  and  C_12
REMARK    5  A    between atoms: C_12  and  C_13
REMARK    6  A    between atoms: C_13  and  C_14
REMARK    7  A    between atoms: C_14  and  O_16
REMARK    8  A    between atoms: C_19  and  C_20
REMARK    9  A    between atoms: N_21  and  C_22
REMARK                            x       y       z     vdW  Elec       q    Type
REMARK                         _______ _______ _______ _____ _____    ______ ____
ROOT
ATOM      1  C   UNL     1       1.531   7.742  20.395  0.00  0.00    +0.000 C 
ATOM      2  C   UNL     1       2.400   7.193  19.537  0.00  0.00    +0.000 C 
ATOM      3  S   UNL     1       3.036   7.891  18.104  0.00  0.00    +0.000 S 
ATOM      4  C   UNL     1       3.977   6.461  17.711  0.00  0.00    +0.000 C 
ATOM      5  S   UNL     1       4.953   6.411  16.361  0.00  0.00    +0.000 S 
ATOM      6  N   UNL     1       3.753   5.474  18.652  0.00  0.00    +0.000 N 
ATOM      7  C   UNL     1       2.935   5.822  19.719  0.00  0.00    +0.000 C 
ATOM      8  O   UNL     1       2.677   5.123  20.686  0.00  0.00    +0.000 OA
ENDROOT
BRANCH   1  12
ATOM      9  C   UNL     1       0.392  12.289  18.617  0.00  0.00    +0.000 C 
ATOM     10  C   UNL     1       0.401  11.061  19.463  0.00  0.00    +0.000 A 
ATOM     11  C   UNL     1       1.114   9.909  19.189  0.00  0.00    +0.000 A 
ATOM     12  C   UNL     1       0.965   9.045  20.279  0.00  0.00    +0.000 A 
ATOM     13  C   UNL     1       0.144   9.654  21.214  0.00  0.00    +0.000 A 
ATOM     14  C   UNL     1      -0.375   9.053  22.481  0.00  0.00    +0.000 C 
ATOM     15  N   UNL     1      -0.229  10.913  20.707  0.00  0.00    +0.000 N 
BRANCH  15  16
ATOM     16  C   UNL     1      -1.110  11.859  21.340  0.00  0.00    +0.000 A 
ATOM     17  C   UNL     1      -0.735  12.522  22.516  0.00  0.00    +0.000 A 
ATOM     18  C   UNL     1      -1.619  13.390  23.166  0.00  0.00    +0.000 A 
ATOM     19  C   UNL     1      -2.876  13.641  22.626  0.00  0.00    +0.000 A 
ATOM     20  C   UNL     1      -3.251  13.016  21.442  0.00  0.00    +0.000 A 
ATOM     21  C   UNL     1      -2.380  12.122  20.808  0.00  0.00    +0.000 A 
ENDBRANCH  15  16
ENDBRANCH   1  12
BRANCH   6  22
ATOM     22  C   UNL     1       4.426   4.170  18.675  0.00  0.00    +0.000 C 
BRANCH  22  23
ATOM     23  C   UNL     1       3.799   3.113  17.749  0.00  0.00    +0.000 C 
BRANCH  23  24
ATOM     24  C   UNL     1       2.710   2.264  18.403  0.00  0.00    +0.000 C 
BRANCH  24  25
ATOM     25  C   UNL     1       1.321   2.780  18.107  0.00  0.00    +0.000 C 
ATOM     26  O   UNL     1       1.085   3.831  17.531  0.00  0.00    +0.000 OA
BRANCH  25  27
ATOM     27  O   UNL     1       0.348   1.939  18.513  0.00  0.00    +0.000 OA
ATOM     28  H   UNL     1      -0.058   1.407  17.802  0.00  0.00    +0.000 HD
ENDBRANCH  25  27
ENDBRANCH  24  25
ENDBRANCH  23  24
ENDBRANCH  22  23
ENDBRANCH   6  22
TORSDOF 7
ENDMDL
