MODEL 1
REMARK VINA RESULT:      -8.7      0.000      0.000
REMARK  Name = 
REMARK  3 active torsions:
REMARK  status: ('A' for Active; 'I' for Inactive)
REMARK    1  A    between atoms: S_2  and  N_4
REMARK    2  A    between atoms: S_2  and  C_11
REMARK    3  A    between atoms: N_4  and  C_5
REMARK                            x       y       z     vdW  Elec       q    Type
REMARK                         _______ _______ _______ _____ _____    ______ ____
ROOT
ATOM      1  O   UNL     1       7.981   4.160  17.290  0.00  0.00    +0.000 OA
ATOM      2  S   UNL     1       7.122   5.421  17.109  0.00  0.00    +0.000 S 
ATOM      3  O   UNL     1       7.832   6.405  18.048  0.00  0.00    +0.000 OA
ENDROOT
BRANCH   2   4
ATOM      4  C   UNL     1       5.390   5.039  17.500  0.00  0.00    +0.000 A 
ATOM      5  C   UNL     1       4.379   6.016  17.499  0.00  0.00    +0.000 A 
ATOM      6  C   UNL     1       3.048   5.650  17.784  0.00  0.00    +0.000 A 
ATOM      7  C   UNL     1       2.722   4.312  18.073  0.00  0.00    +0.000 A 
ATOM      8  C   UNL     1       3.739   3.342  18.063  0.00  0.00    +0.000 A 
ATOM      9  C   UNL     1       5.057   3.716  17.783  0.00  0.00    +0.000 A 
ATOM     10  C   UNL     1       3.458   1.883  18.313  0.00  0.00    +0.000 C 
ATOM     11  N   UNL     1       2.030   1.546  18.311  0.00  0.00    +0.000 NA
ATOM     12  C   UNL     1       1.200   2.522  19.018  0.00  0.00    +0.000 C 
ATOM     13  C   UNL     1       1.296   3.914  18.370  0.00  0.00    +0.000 C 
ATOM     14  H   UNL     1       1.931   0.619  18.792  0.00  0.00    +0.000 HD
ENDBRANCH   2   4
BRANCH   2  15
ATOM     15  N   UNL     1       7.498   5.889  15.458  0.00  0.00    +0.000 N 
ATOM     16  H   UNL     1       8.460   6.243  15.390  0.00  0.00    +0.000 HD
BRANCH  15  17
ATOM     17  C   UNL     1       7.033   5.108  14.379  0.00  0.00    +0.000 A 
ATOM     18  C   UNL     1       7.745   5.021  13.172  0.00  0.00    +0.000 A 
ATOM     19  C   UNL     1       7.279   4.201  12.138  0.00  0.00    +0.000 A 
ATOM     20  C   UNL     1       6.082   3.485  12.306  0.00  0.00    +0.000 A 
ATOM     21  C   UNL     1       5.372   3.579  13.499  0.00  0.00    +0.000 A 
ATOM     22  C   UNL     1       5.847   4.376  14.536  0.00  0.00    +0.000 A 
ENDBRANCH  15  17
ENDBRANCH   2  15
TORSDOF 3
ENDMDL
MODEL 2
REMARK VINA RESULT:      -8.6      1.387      1.602
REMARK  Name = 
REMARK  3 active torsions:
REMARK  status: ('A' for Active; 'I' for Inactive)
REMARK    1  A    between atoms: S_2  and  N_4
REMARK    2  A    between atoms: S_2  and  C_11
REMARK    3  A    between atoms: N_4  and  C_5
REMARK                            x       y       z     vdW  Elec       q    Type
REMARK                         _______ _______ _______ _____ _____    ______ ____
ROOT
ATOM      1  O   UNL     1       6.395   7.269  17.054  0.00  0.00    +0.000 OA
ATOM      2  S   UNL     1       5.541   6.242  16.295  0.00  0.00    +0.000 S 
ATOM      3  O   UNL     1       5.074   7.071  15.090  0.00  0.00    +0.000 OA
ENDROOT
BRANCH   2   4
ATOM      4  C   UNL     1       4.238   5.605  17.388  0.00  0.00    +0.000 A 
ATOM      5  C   UNL     1       3.494   6.434  18.246  0.00  0.00    +0.000 A 
ATOM      6  C   UNL     1       2.477   5.882  19.050  0.00  0.00    +0.000 A 
ATOM      7  C   UNL     1       2.202   4.503  19.004  0.00  0.00    +0.000 A 
ATOM      8  C   UNL     1       2.946   3.684  18.137  0.00  0.00    +0.000 A 
ATOM      9  C   UNL     1       3.955   4.242  17.347  0.00  0.00    +0.000 A 
ATOM     10  C   UNL     1       2.673   2.209  17.997  0.00  0.00    +0.000 C 
ATOM     11  N   UNL     1       1.427   1.773  18.638  0.00  0.00    +0.000 NA
ATOM     12  C   UNL     1       1.207   2.376  19.952  0.00  0.00    +0.000 C 
ATOM     13  C   UNL     1       1.107   3.908  19.857  0.00  0.00    +0.000 C 
ATOM     14  H   UNL     1       1.490   0.733  18.759  0.00  0.00    +0.000 HD
ENDBRANCH   2   4
BRANCH   2  15
ATOM     15  N   UNL     1       6.752   5.105  15.725  0.00  0.00    +0.000 N 
ATOM     16  H   UNL     1       6.906   4.359  16.414  0.00  0.00    +0.000 HD
BRANCH  15  17
ATOM     17  C   UNL     1       6.781   4.726  14.366  0.00  0.00    +0.000 A 
ATOM     18  C   UNL     1       7.711   5.274  13.468  0.00  0.00    +0.000 A 
ATOM     19  C   UNL     1       7.742   4.842  12.137  0.00  0.00    +0.000 A 
ATOM     20  C   UNL     1       6.821   3.876  11.699  0.00  0.00    +0.000 A 
ATOM     21  C   UNL     1       5.893   3.340  12.588  0.00  0.00    +0.000 A 
ATOM     22  C   UNL     1       5.877   3.752  13.916  0.00  0.00    +0.000 A 
ENDBRANCH  15  17
ENDBRANCH   2  15
TORSDOF 3
ENDMDL
MODEL 3
REMARK VINA RESULT:      -8.5      1.366      1.870
REMARK  Name = 
REMARK  3 active torsions:
REMARK  status: ('A' for Active; 'I' for Inactive)
REMARK    1  A    between atoms: S_2  and  N_4
REMARK    2  A    between atoms: S_2  and  C_11
REMARK    3  A    between atoms: N_4  and  C_5
REMARK                            x       y       z     vdW  Elec       q    Type
REMARK                         _______ _______ _______ _____ _____    ______ ____
ROOT
ATOM      1  O   UNL     1       6.442   7.279  17.063  0.00  0.00    +0.000 OA
ATOM      2  S   UNL     1       5.594   6.252  16.297  0.00  0.00    +0.000 S 
ATOM      3  O   UNL     1       5.142   7.080  15.086  0.00  0.00    +0.000 OA
ENDROOT
BRANCH   2   4
ATOM      4  C   UNL     1       4.279   5.619  17.377  0.00  0.00    +0.000 A 
ATOM      5  C   UNL     1       3.497   6.457  18.191  0.00  0.00    +0.000 A 
ATOM      6  C   UNL     1       2.472   5.907  18.987  0.00  0.00    +0.000 A 
ATOM      7  C   UNL     1       2.227   4.521  18.976  0.00  0.00    +0.000 A 
ATOM      8  C   UNL     1       3.009   3.694  18.152  0.00  0.00    +0.000 A 
ATOM      9  C   UNL     1       4.025   4.250  17.370  0.00  0.00    +0.000 A 
ATOM     10  C   UNL     1       2.772   2.209  18.051  0.00  0.00    +0.000 C 
ATOM     11  N   UNL     1       1.520   1.765  18.675  0.00  0.00    +0.000 NA
ATOM     12  C   UNL     1       1.254   2.402  19.964  0.00  0.00    +0.000 C 
ATOM     13  C   UNL     1       1.124   3.928  19.821  0.00  0.00    +0.000 C 
ATOM     14  H   UNL     1       1.602   0.731  18.828  0.00  0.00    +0.000 HD
ENDBRANCH   2   4
BRANCH   2  15
ATOM     15  N   UNL     1       6.810   5.112  15.742  0.00  0.00    +0.000 N 
ATOM     16  H   UNL     1       6.990   4.394  16.455  0.00  0.00    +0.000 HD
BRANCH  15  17
ATOM     17  C   UNL     1       6.814   4.683  14.398  0.00  0.00    +0.000 A 
ATOM     18  C   UNL     1       5.934   3.690  13.938  0.00  0.00    +0.000 A 
ATOM     19  C   UNL     1       5.933   3.321  12.588  0.00  0.00    +0.000 A 
ATOM     20  C   UNL     1       6.835   3.932  11.701  0.00  0.00    +0.000 A 
ATOM     21  C   UNL     1       7.713   4.909  12.159  0.00  0.00    +0.000 A 
ATOM     22  C   UNL     1       7.699   5.293  13.496  0.00  0.00    +0.000 A 
ENDBRANCH  15  17
ENDBRANCH   2  15
TORSDOF 3
ENDMDL
MODEL 4
REMARK VINA RESULT:      -8.2      0.686      1.297
REMARK  Name = 
REMARK  3 active torsions:
REMARK  status: ('A' for Active; 'I' for Inactive)
REMARK    1  A    between atoms: S_2  and  N_4
REMARK    2  A    between atoms: S_2  and  C_11
REMARK    3  A    between atoms: N_4  and  C_5
REMARK                            x       y       z     vdW  Elec       q    Type
REMARK                         _______ _______ _______ _____ _____    ______ ____
ROOT
ATOM      1  O   UNL     1       7.705   5.715  18.359  0.00  0.00    +0.000 OA
ATOM      2  S   UNL     1       6.823   5.752  17.101  0.00  0.00    +0.000 S 
ATOM      3  O   UNL     1       7.006   7.207  16.648  0.00  0.00    +0.000 OA
ENDROOT
BRANCH   2   4
ATOM      4  C   UNL     1       5.131   5.248  17.528  0.00  0.00    +0.000 A 
ATOM      5  C   UNL     1       4.054   6.151  17.555  0.00  0.00    +0.000 A 
ATOM      6  C   UNL     1       2.759   5.691  17.866  0.00  0.00    +0.000 A 
ATOM      7  C   UNL     1       2.535   4.331  18.155  0.00  0.00    +0.000 A 
ATOM      8  C   UNL     1       3.618   3.436  18.117  0.00  0.00    +0.000 A 
ATOM      9  C   UNL     1       4.899   3.904  17.810  0.00  0.00    +0.000 A 
ATOM     10  C   UNL     1       3.446   1.959  18.365  0.00  0.00    +0.000 C 
ATOM     11  N   UNL     1       2.045   1.523  18.393  0.00  0.00    +0.000 NA
ATOM     12  C   UNL     1       1.165   2.434  19.123  0.00  0.00    +0.000 C 
ATOM     13  C   UNL     1       1.148   3.833  18.481  0.00  0.00    +0.000 C 
ATOM     14  H   UNL     1       2.023   0.589  18.870  0.00  0.00    +0.000 HD
ENDBRANCH   2   4
BRANCH   2  15
ATOM     15  N   UNL     1       7.721   4.729  15.991  0.00  0.00    +0.000 N 
ATOM     16  H   UNL     1       8.105   3.910  16.478  0.00  0.00    +0.000 HD
BRANCH  15  17
ATOM     17  C   UNL     1       7.242   4.518  14.681  0.00  0.00    +0.000 A 
ATOM     18  C   UNL     1       6.121   3.712  14.427  0.00  0.00    +0.000 A 
ATOM     19  C   UNL     1       5.645   3.561  13.119  0.00  0.00    +0.000 A 
ATOM     20  C   UNL     1       6.310   4.201  12.060  0.00  0.00    +0.000 A 
ATOM     21  C   UNL     1       7.426   4.993  12.312  0.00  0.00    +0.000 A 
ATOM     22  C   UNL     1       7.886   5.162  13.613  0.00  0.00    +0.000 A 
ENDBRANCH  15  17
ENDBRANCH   2  15
TORSDOF 3
ENDMDL
MODEL 5
REMARK VINA RESULT:      -8.2      0.809      1.352
REMARK  Name = 
REMARK  3 active torsions:
REMARK  status: ('A' for Active; 'I' for Inactive)
REMARK    1  A    between atoms: S_2  and  N_4
REMARK    2  A    between atoms: S_2  and  C_11
REMARK    3  A    between atoms: N_4  and  C_5
REMARK                            x       y       z     vdW  Elec       q    Type
REMARK                         _______ _______ _______ _____ _____    ______ ____
ROOT
ATOM      1  O   UNL     1       7.921   4.194  17.280  0.00  0.00    +0.000 OA
ATOM      2  S   UNL     1       7.107   5.495  17.206  0.00  0.00    +0.000 S 
ATOM      3  O   UNL     1       7.959   6.432  18.073  0.00  0.00    +0.000 OA
ENDROOT
BRANCH   2   4
ATOM      4  C   UNL     1       5.411   5.186  17.779  0.00  0.00    +0.000 A 
ATOM      5  C   UNL     1       4.321   5.982  17.385  0.00  0.00    +0.000 A 
ATOM      6  C   UNL     1       3.024   5.673  17.843  0.00  0.00    +0.000 A 
ATOM      7  C   UNL     1       2.812   4.574  18.696  0.00  0.00    +0.000 A 
ATOM      8  C   UNL     1       3.908   3.780  19.076  0.00  0.00    +0.000 A 
ATOM      9  C   UNL     1       5.190   4.098  18.620  0.00  0.00    +0.000 A 
ATOM     10  C   UNL     1       3.750   2.559  19.945  0.00  0.00    +0.000 C 
ATOM     11  N   UNL     1       2.355   2.144  20.135  0.00  0.00    +0.000 NA
ATOM     12  C   UNL     1       1.442   3.261  20.373  0.00  0.00    +0.000 C 
ATOM     13  C   UNL     1       1.423   4.234  19.181  0.00  0.00    +0.000 C 
ATOM     14  H   UNL     1       2.333   1.515  20.974  0.00  0.00    +0.000 HD
ENDBRANCH   2   4
BRANCH   2  15
ATOM     15  N   UNL     1       7.325   5.972  15.530  0.00  0.00    +0.000 N 
ATOM     16  H   UNL     1       8.227   6.445  15.399  0.00  0.00    +0.000 HD
BRANCH  15  17
ATOM     17  C   UNL     1       6.904   5.114  14.492  0.00  0.00    +0.000 A 
ATOM     18  C   UNL     1       5.715   4.372  14.585  0.00  0.00    +0.000 A 
ATOM     19  C   UNL     1       5.304   3.566  13.518  0.00  0.00    +0.000 A 
ATOM     20  C   UNL     1       6.099   3.484  12.363  0.00  0.00    +0.000 A 
ATOM     21  C   UNL     1       7.282   4.212  12.275  0.00  0.00    +0.000 A 
ATOM     22  C   UNL     1       7.679   5.032  13.326  0.00  0.00    +0.000 A 
ENDBRANCH  15  17
ENDBRANCH   2  15
TORSDOF 3
ENDMDL
MODEL 6
REMARK VINA RESULT:      -8.1      1.427      1.952
REMARK  Name = 
REMARK  3 active torsions:
REMARK  status: ('A' for Active; 'I' for Inactive)
REMARK    1  A    between atoms: S_2  and  N_4
REMARK    2  A    between atoms: S_2  and  C_11
REMARK    3  A    between atoms: N_4  and  C_5
REMARK                            x       y       z     vdW  Elec       q    Type
REMARK                         _______ _______ _______ _____ _____    ______ ____
ROOT
ATOM      1  O   UNL     1       6.722   7.380  17.097  0.00  0.00    +0.000 OA
ATOM      2  S   UNL     1       5.995   6.260  16.337  0.00  0.00    +0.000 S 
ATOM      3  O   UNL     1       5.105   7.072  15.385  0.00  0.00    +0.000 OA
ENDROOT
BRANCH   2   4
ATOM      4  C   UNL     1       5.137   5.179  17.518  0.00  0.00    +0.000 A 
ATOM      5  C   UNL     1       5.782   4.605  18.627  0.00  0.00    +0.000 A 
ATOM      6  C   UNL     1       5.054   3.797  19.523  0.00  0.00    +0.000 A 
ATOM      7  C   UNL     1       3.682   3.558  19.314  0.00  0.00    +0.000 A 
ATOM      8  C   UNL     1       3.045   4.145  18.207  0.00  0.00    +0.000 A 
ATOM      9  C   UNL     1       3.779   4.941  17.323  0.00  0.00    +0.000 A 
ATOM     10  C   UNL     1       1.571   3.975  17.948  0.00  0.00    +0.000 C 
ATOM     11  N   UNL     1       0.838   3.373  19.068  0.00  0.00    +0.000 NA
ATOM     12  C   UNL     1       1.544   2.255  19.692  0.00  0.00    +0.000 C 
ATOM     13  C   UNL     1       2.896   2.700  20.277  0.00  0.00    +0.000 C 
ATOM     14  H   UNL     1      -0.071   3.017  18.685  0.00  0.00    +0.000 HD
ENDBRANCH   2   4
BRANCH   2  15
ATOM     15  N   UNL     1       7.294   5.556  15.386  0.00  0.00    +0.000 N 
ATOM     16  H   UNL     1       7.991   5.110  15.994  0.00  0.00    +0.000 HD
BRANCH  15  17
ATOM     17  C   UNL     1       7.004   4.903  14.169  0.00  0.00    +0.000 A 
ATOM     18  C   UNL     1       7.752   5.146  13.007  0.00  0.00    +0.000 A 
ATOM     19  C   UNL     1       7.467   4.446  11.828  0.00  0.00    +0.000 A 
ATOM     20  C   UNL     1       6.413   3.518  11.810  0.00  0.00    +0.000 A 
ATOM     21  C   UNL     1       5.666   3.285  12.960  0.00  0.00    +0.000 A 
ATOM     22  C   UNL     1       5.963   3.963  14.138  0.00  0.00    +0.000 A 
ENDBRANCH  15  17
ENDBRANCH   2  15
TORSDOF 3
ENDMDL
MODEL 7
REMARK VINA RESULT:      -8.1      0.828      1.354
REMARK  Name = 
REMARK  3 active torsions:
REMARK  status: ('A' for Active; 'I' for Inactive)
REMARK    1  A    between atoms: S_2  and  N_4
REMARK    2  A    between atoms: S_2  and  C_11
REMARK    3  A    between atoms: N_4  and  C_5
REMARK                            x       y       z     vdW  Elec       q    Type
REMARK                         _______ _______ _______ _____ _____    ______ ____
ROOT
ATOM      1  O   UNL     1       7.836   4.140  17.053  0.00  0.00    +0.000 OA
ATOM      2  S   UNL     1       6.971   5.389  17.279  0.00  0.00    +0.000 S 
ATOM      3  O   UNL     1       7.933   6.282  18.074  0.00  0.00    +0.000 OA
ENDROOT
BRANCH   2   4
ATOM      4  C   UNL     1       5.429   4.919  18.116  0.00  0.00    +0.000 A 
ATOM      5  C   UNL     1       4.771   5.766  19.025  0.00  0.00    +0.000 A 
ATOM      6  C   UNL     1       3.562   5.354  19.621  0.00  0.00    +0.000 A 
ATOM      7  C   UNL     1       3.008   4.097  19.315  0.00  0.00    +0.000 A 
ATOM      8  C   UNL     1       3.670   3.262  18.398  0.00  0.00    +0.000 A 
ATOM      9  C   UNL     1       4.870   3.679  17.817  0.00  0.00    +0.000 A 
ATOM     10  C   UNL     1       3.112   1.924  17.985  0.00  0.00    +0.000 C 
ATOM     11  N   UNL     1       1.728   1.701  18.418  0.00  0.00    +0.000 NA
ATOM     12  C   UNL     1       1.467   2.144  19.787  0.00  0.00    +0.000 C 
ATOM     13  C   UNL     1       1.708   3.655  19.944  0.00  0.00    +0.000 C 
ATOM     14  H   UNL     1       1.552   0.668  18.366  0.00  0.00    +0.000 HD
ENDBRANCH   2   4
BRANCH   2  15
ATOM     15  N   UNL     1       6.845   6.049  15.656  0.00  0.00    +0.000 N 
ATOM     16  H   UNL     1       7.499   6.831  15.528  0.00  0.00    +0.000 HD
BRANCH  15  17
ATOM     17  C   UNL     1       6.669   5.185  14.554  0.00  0.00    +0.000 A 
ATOM     18  C   UNL     1       5.544   4.353  14.443  0.00  0.00    +0.000 A 
ATOM     19  C   UNL     1       5.377   3.542  13.315  0.00  0.00    +0.000 A 
ATOM     20  C   UNL     1       6.355   3.547  12.306  0.00  0.00    +0.000 A 
ATOM     21  C   UNL     1       7.475   4.365  12.421  0.00  0.00    +0.000 A 
ATOM     22  C   UNL     1       7.629   5.189  13.531  0.00  0.00    +0.000 A 
ENDBRANCH  15  17
ENDBRANCH   2  15
TORSDOF 3
ENDMDL
MODEL 8
REMARK VINA RESULT:      -8.1      1.662      2.220
REMARK  Name = 
REMARK  3 active torsions:
REMARK  status: ('A' for Active; 'I' for Inactive)
REMARK    1  A    between atoms: S_2  and  N_4
REMARK    2  A    between atoms: S_2  and  C_11
REMARK    3  A    between atoms: N_4  and  C_5
REMARK                            x       y       z     vdW  Elec       q    Type
REMARK                         _______ _______ _______ _____ _____    ______ ____
ROOT
ATOM      1  O   UNL     1       6.383   7.123  17.279  0.00  0.00    +0.000 OA
ATOM      2  S   UNL     1       5.725   6.134  16.305  0.00  0.00    +0.000 S 
ATOM      3  O   UNL     1       5.055   7.092  15.311  0.00  0.00    +0.000 OA
ENDROOT
BRANCH   2   4
ATOM      4  C   UNL     1       4.620   5.020  17.221  0.00  0.00    +0.000 A 
ATOM      5  C   UNL     1       4.542   3.642  16.955  0.00  0.00    +0.000 A 
ATOM      6  C   UNL     1       3.685   2.826  17.721  0.00  0.00    +0.000 A 
ATOM      7  C   UNL     1       2.902   3.383  18.750  0.00  0.00    +0.000 A 
ATOM      8  C   UNL     1       2.994   4.760  19.013  0.00  0.00    +0.000 A 
ATOM      9  C   UNL     1       3.845   5.561  18.244  0.00  0.00    +0.000 A 
ATOM     10  C   UNL     1       2.225   5.417  20.130  0.00  0.00    +0.000 C 
ATOM     11  N   UNL     1       1.592   4.466  21.051  0.00  0.00    +0.000 NA
ATOM     12  C   UNL     1       0.961   3.333  20.376  0.00  0.00    +0.000 C 
ATOM     13  C   UNL     1       1.989   2.511  19.579  0.00  0.00    +0.000 C 
ATOM     14  H   UNL     1       0.852   4.992  21.575  0.00  0.00    +0.000 HD
ENDBRANCH   2   4
BRANCH   2  15
ATOM     15  N   UNL     1       7.117   5.421  15.506  0.00  0.00    +0.000 N 
ATOM     16  H   UNL     1       7.682   4.878  16.170  0.00  0.00    +0.000 HD
BRANCH  15  17
ATOM     17  C   UNL     1       6.989   4.891  14.204  0.00  0.00    +0.000 A 
ATOM     18  C   UNL     1       7.808   5.325  13.149  0.00  0.00    +0.000 A 
ATOM     19  C   UNL     1       7.686   4.746  11.880  0.00  0.00    +0.000 A 
ATOM     20  C   UNL     1       6.723   3.746  11.664  0.00  0.00    +0.000 A 
ATOM     21  C   UNL     1       5.906   3.323  12.708  0.00  0.00    +0.000 A 
ATOM     22  C   UNL     1       6.043   3.882  13.974  0.00  0.00    +0.000 A 
ENDBRANCH  15  17
ENDBRANCH   2  15
TORSDOF 3
ENDMDL
MODEL 9
REMARK VINA RESULT:      -8.0      1.684      2.388
REMARK  Name = 
REMARK  3 active torsions:
REMARK  status: ('A' for Active; 'I' for Inactive)
REMARK    1  A    between atoms: S_2  and  N_4
REMARK    2  A    between atoms: S_2  and  C_11
REMARK    3  A    between atoms: N_4  and  C_5
REMARK                            x       y       z     vdW  Elec       q    Type
REMARK                         _______ _______ _______ _____ _____    ______ ____
ROOT
ATOM      1  O   UNL     1       6.414   6.837  17.483  0.00  0.00    +0.000 OA
ATOM      2  S   UNL     1       5.730   5.922  16.456  0.00  0.00    +0.000 S 
ATOM      3  O   UNL     1       5.170   6.950  15.463  0.00  0.00    +0.000 OA
ENDROOT
BRANCH   2   4
ATOM      4  C   UNL     1       4.514   4.865  17.295  0.00  0.00    +0.000 A 
ATOM      5  C   UNL     1       4.094   3.630  16.773  0.00  0.00    +0.000 A 
ATOM      6  C   UNL     1       3.168   2.843  17.488  0.00  0.00    +0.000 A 
ATOM      7  C   UNL     1       2.656   3.288  18.721  0.00  0.00    +0.000 A 
ATOM      8  C   UNL     1       3.090   4.521  19.238  0.00  0.00    +0.000 A 
ATOM      9  C   UNL     1       4.006   5.295  18.519  0.00  0.00    +0.000 A 
ATOM     10  C   UNL     1       2.624   5.038  20.575  0.00  0.00    +0.000 C 
ATOM     11  N   UNL     1       1.902   4.043  21.376  0.00  0.00    +0.000 NA
ATOM     12  C   UNL     1       0.956   3.244  20.597  0.00  0.00    +0.000 C 
ATOM     13  C   UNL     1       1.670   2.445  19.494  0.00  0.00    +0.000 C 
ATOM     14  H   UNL     1       1.366   4.568  22.108  0.00  0.00    +0.000 HD
ENDBRANCH   2   4
BRANCH   2  15
ATOM     15  N   UNL     1       7.102   5.133  15.693  0.00  0.00    +0.000 N 
ATOM     16  H   UNL     1       7.551   4.474  16.340  0.00  0.00    +0.000 HD
BRANCH  15  17
ATOM     17  C   UNL     1       7.028   4.741  14.340  0.00  0.00    +0.000 A 
ATOM     18  C   UNL     1       6.140   3.742  13.910  0.00  0.00    +0.000 A 
ATOM     19  C   UNL     1       6.059   3.408  12.553  0.00  0.00    +0.000 A 
ATOM     20  C   UNL     1       6.890   4.062  11.628  0.00  0.00    +0.000 A 
ATOM     21  C   UNL     1       7.776   5.045  12.056  0.00  0.00    +0.000 A 
ATOM     22  C   UNL     1       7.840   5.393  13.401  0.00  0.00    +0.000 A 
ENDBRANCH  15  17
ENDBRANCH   2  15
TORSDOF 3
ENDMDL
