MODEL 1
REMARK VINA RESULT:      -8.2      0.000      0.000
REMARK  Name = 
REMARK  5 active torsions:
REMARK  status: ('A' for Active; 'I' for Inactive)
REMARK    1  A    between atoms: C_2  and  C_3
REMARK    2  A    between atoms: C_3  and  N_4
REMARK    3  A    between atoms: N_10  and  C_11
REMARK    4  A    between atoms: C_11  and  C_12
REMARK    5  A    between atoms: C_17  and  N_18
REMARK                            x       y       z     vdW  Elec       q    Type
REMARK                         _______ _______ _______ _____ _____    ______ ____
ROOT
ATOM      1  C   UNL     1       4.970   6.396  17.492  0.00  0.00    +0.000 A 
ATOM      2  C   UNL     1       6.234   7.001  17.401  0.00  0.00    +0.000 A 
ATOM      3  C   UNL     1       7.382   6.343  17.821  0.00  0.00    +0.000 A 
ATOM      4  C   UNL     1       7.245   5.069  18.325  0.00  0.00    +0.000 A 
ATOM      5  N   UNL     1       6.070   4.427  18.408  0.00  0.00    +0.000 NA
ATOM      6  C   UNL     1       4.948   5.068  17.968  0.00  0.00    +0.000 A 
ENDROOT
BRANCH   6   7
ATOM      7  N   UNL     1       3.746   4.308  18.056  0.00  0.00    +0.000 N 
ATOM      8  C   UNL     1       3.202   3.536  17.056  0.00  0.00    +0.000 A 
ATOM      9  N   UNL     1       2.208   2.794  17.468  0.00  0.00    +0.000 NA
ATOM     10  C   UNL     1       2.087   3.079  18.806  0.00  0.00    +0.000 A 
ATOM     11  C   UNL     1       1.283   2.466  19.781  0.00  0.00    +0.000 A 
ATOM     12  C   UNL     1       1.404   2.884  21.113  0.00  0.00    +0.000 A 
ATOM     13  C   UNL     1       2.208   3.971  21.449  0.00  0.00    +0.000 A 
ATOM     14  C   UNL     1       2.959   4.646  20.478  0.00  0.00    +0.000 A 
ATOM     15  C   UNL     1       2.960   4.096  19.183  0.00  0.00    +0.000 A 
ENDBRANCH   6   7
BRANCH   1  16
ATOM     16  C   UNL     1       3.761   7.251  17.199  0.00  0.00    +0.000 C 
BRANCH  16  19
ATOM     17  O   UNL     1       2.208   9.491  17.450  0.00  0.00    +0.000 OA
ATOM     18  C   UNL     1       2.161   8.655  18.380  0.00  0.00    +0.000 C 
ATOM     19  N   UNL     1       2.931   7.528  18.356  0.00  0.00    +0.000 N 
ATOM     20  H   UNL     1       3.411   7.503  19.247  0.00  0.00    +0.000 HD
BRANCH  18  21
ATOM     21  C   UNL     1       1.332   8.875  19.644  0.00  0.00    +0.000 C 
BRANCH  21  22
ATOM     22  N   UNL     1       0.673  10.208  19.632  0.00  0.00    +0.000 NA
ATOM     23  C   UNL     1      -0.729  10.009  19.226  0.00  0.00    +0.000 C 
ATOM     24  C   UNL     1      -1.434  11.346  19.063  0.00  0.00    +0.000 C 
ATOM     25  C   UNL     1      -1.395  12.142  20.360  0.00  0.00    +0.000 C 
ATOM     26  C   UNL     1       0.036  12.257  20.872  0.00  0.00    +0.000 C 
ATOM     27  C   UNL     1       0.717  10.881  20.955  0.00  0.00    +0.000 C 
ENDBRANCH  21  22
ENDBRANCH  18  21
ENDBRANCH  16  19
ENDBRANCH   1  16
TORSDOF 5
ENDMDL
MODEL 2
REMARK VINA RESULT:      -8.2      1.871      4.386
REMARK  Name = 
REMARK  5 active torsions:
REMARK  status: ('A' for Active; 'I' for Inactive)
REMARK    1  A    between atoms: C_2  and  C_3
REMARK    2  A    between atoms: C_3  and  N_4
REMARK    3  A    between atoms: N_10  and  C_11
REMARK    4  A    between atoms: C_11  and  C_12
REMARK    5  A    between atoms: C_17  and  N_18
REMARK                            x       y       z     vdW  Elec       q    Type
REMARK                         _______ _______ _______ _____ _____    ______ ____
ROOT
ATOM      1  C   UNL     1       2.403   5.087  19.729  0.00  0.00    +0.000 A 
ATOM      2  C   UNL     1       1.220   4.524  20.234  0.00  0.00    +0.000 A 
ATOM      3  C   UNL     1       1.016   3.151  20.232  0.00  0.00    +0.000 A 
ATOM      4  C   UNL     1       2.018   2.353  19.726  0.00  0.00    +0.000 A 
ATOM      5  N   UNL     1       3.182   2.830  19.261  0.00  0.00    +0.000 NA
ATOM      6  C   UNL     1       3.389   4.179  19.289  0.00  0.00    +0.000 A 
ENDROOT
BRANCH   6   7
ATOM      7  N   UNL     1       4.661   4.604  18.810  0.00  0.00    +0.000 N 
ATOM      8  C   UNL     1       5.731   4.987  19.586  0.00  0.00    +0.000 A 
ATOM      9  N   UNL     1       6.832   5.138  18.898  0.00  0.00    +0.000 NA
ATOM     10  C   UNL     1       6.483   4.836  17.605  0.00  0.00    +0.000 A 
ATOM     11  C   UNL     1       7.297   4.688  16.471  0.00  0.00    +0.000 A 
ATOM     12  C   UNL     1       6.708   4.286  15.265  0.00  0.00    +0.000 A 
ATOM     13  C   UNL     1       5.323   4.156  15.156  0.00  0.00    +0.000 A 
ATOM     14  C   UNL     1       4.486   4.374  16.257  0.00  0.00    +0.000 A 
ATOM     15  C   UNL     1       5.114   4.602  17.496  0.00  0.00    +0.000 A 
ENDBRANCH   6   7
BRANCH   1  16
ATOM     16  C   UNL     1       2.459   6.589  19.588  0.00  0.00    +0.000 C 
BRANCH  16  19
ATOM     17  O   UNL     1       1.048   8.935  19.600  0.00  0.00    +0.000 OA
ATOM     18  C   UNL     1       1.379   8.460  20.710  0.00  0.00    +0.000 C 
ATOM     19  N   UNL     1       2.117   7.316  20.797  0.00  0.00    +0.000 N 
ATOM     20  H   UNL     1       2.897   7.535  21.403  0.00  0.00    +0.000 HD
BRANCH  18  21
ATOM     21  C   UNL     1       1.079   9.168  22.030  0.00  0.00    +0.000 C 
BRANCH  21  22
ATOM     22  N   UNL     1       0.072  10.247  21.848  0.00  0.00    +0.000 NA
ATOM     23  C   UNL     1      -0.642  10.412  23.126  0.00  0.00    +0.000 C 
ATOM     24  C   UNL     1      -1.779  11.409  22.979  0.00  0.00    +0.000 C 
ATOM     25  C   UNL     1      -1.258  12.762  22.517  0.00  0.00    +0.000 C 
ATOM     26  C   UNL     1      -0.408  12.607  21.262  0.00  0.00    +0.000 C 
ATOM     27  C   UNL     1       0.683  11.541  21.450  0.00  0.00    +0.000 C 
ENDBRANCH  21  22
ENDBRANCH  18  21
ENDBRANCH  16  19
ENDBRANCH   1  16
TORSDOF 5
ENDMDL
MODEL 3
REMARK VINA RESULT:      -8.2      1.231      1.667
REMARK  Name = 
REMARK  5 active torsions:
REMARK  status: ('A' for Active; 'I' for Inactive)
REMARK    1  A    between atoms: C_2  and  C_3
REMARK    2  A    between atoms: C_3  and  N_4
REMARK    3  A    between atoms: N_10  and  C_11
REMARK    4  A    between atoms: C_11  and  C_12
REMARK    5  A    between atoms: C_17  and  N_18
REMARK                            x       y       z     vdW  Elec       q    Type
REMARK                         _______ _______ _______ _____ _____    ______ ____
ROOT
ATOM      1  C   UNL     1       5.585   6.116  17.553  0.00  0.00    +0.000 A 
ATOM      2  C   UNL     1       6.773   6.860  17.626  0.00  0.00    +0.000 A 
ATOM      3  C   UNL     1       7.782   6.525  18.519  0.00  0.00    +0.000 A 
ATOM      4  C   UNL     1       7.584   5.430  19.330  0.00  0.00    +0.000 A 
ATOM      5  N   UNL     1       6.486   4.662  19.284  0.00  0.00    +0.000 NA
ATOM      6  C   UNL     1       5.509   4.979  18.385  0.00  0.00    +0.000 A 
ENDROOT
BRANCH   6   7
ATOM      7  N   UNL     1       4.391   4.097  18.374  0.00  0.00    +0.000 N 
ATOM      8  C   UNL     1       4.217   3.022  17.533  0.00  0.00    +0.000 A 
ATOM      9  N   UNL     1       3.202   2.270  17.868  0.00  0.00    +0.000 NA
ATOM     10  C   UNL     1       2.677   2.867  18.988  0.00  0.00    +0.000 A 
ATOM     11  C   UNL     1       1.670   2.412  19.854  0.00  0.00    +0.000 A 
ATOM     12  C   UNL     1       1.368   3.170  20.993  0.00  0.00    +0.000 A 
ATOM     13  C   UNL     1       1.960   4.415  21.199  0.00  0.00    +0.000 A 
ATOM     14  C   UNL     1       2.911   4.922  20.305  0.00  0.00    +0.000 A 
ATOM     15  C   UNL     1       3.328   4.066  19.269  0.00  0.00    +0.000 A 
ENDBRANCH   6   7
BRANCH   1  16
ATOM     16  C   UNL     1       4.466   6.663  16.700  0.00  0.00    +0.000 C 
BRANCH  16  19
ATOM     17  O   UNL     1       1.936   6.923  17.711  0.00  0.00    +0.000 OA
ATOM     18  C   UNL     1       2.654   7.948  17.695  0.00  0.00    +0.000 C 
ATOM     19  N   UNL     1       3.914   7.919  17.173  0.00  0.00    +0.000 N 
ATOM     20  H   UNL     1       3.957   8.685  16.513  0.00  0.00    +0.000 HD
BRANCH  18  21
ATOM     21  C   UNL     1       2.148   9.314  18.154  0.00  0.00    +0.000 C 
BRANCH  21  22
ATOM     22  N   UNL     1       1.106   9.179  19.207  0.00  0.00    +0.000 NA
ATOM     23  C   UNL     1       1.716   8.481  20.351  0.00  0.00    +0.000 C 
ATOM     24  C   UNL     1       0.674   8.188  21.418  0.00  0.00    +0.000 C 
ATOM     25  C   UNL     1       0.019   9.472  21.905  0.00  0.00    +0.000 C 
ATOM     26  C   UNL     1      -0.512  10.280  20.727  0.00  0.00    +0.000 C 
ATOM     27  C   UNL     1       0.568  10.489  19.654  0.00  0.00    +0.000 C 
ENDBRANCH  21  22
ENDBRANCH  18  21
ENDBRANCH  16  19
ENDBRANCH   1  16
TORSDOF 5
ENDMDL
MODEL 4
REMARK VINA RESULT:      -8.0      3.907      7.303
REMARK  Name = 
REMARK  5 active torsions:
REMARK  status: ('A' for Active; 'I' for Inactive)
REMARK    1  A    between atoms: C_2  and  C_3
REMARK    2  A    between atoms: C_3  and  N_4
REMARK    3  A    between atoms: N_10  and  C_11
REMARK    4  A    between atoms: C_11  and  C_12
REMARK    5  A    between atoms: C_17  and  N_18
REMARK                            x       y       z     vdW  Elec       q    Type
REMARK                         _______ _______ _______ _____ _____    ______ ____
ROOT
ATOM      1  C   UNL     1       5.996   5.765  17.319  0.00  0.00    +0.000 A 
ATOM      2  C   UNL     1       7.202   6.470  17.465  0.00  0.00    +0.000 A 
ATOM      3  C   UNL     1       7.925   6.426  18.649  0.00  0.00    +0.000 A 
ATOM      4  C   UNL     1       7.426   5.659  19.679  0.00  0.00    +0.000 A 
ATOM      5  N   UNL     1       6.299   4.939  19.588  0.00  0.00    +0.000 NA
ATOM      6  C   UNL     1       5.606   4.964  18.412  0.00  0.00    +0.000 A 
ENDROOT
BRANCH   6   7
ATOM      7  N   UNL     1       4.439   4.147  18.383  0.00  0.00    +0.000 N 
ATOM      8  C   UNL     1       4.320   2.929  17.755  0.00  0.00    +0.000 A 
ATOM      9  N   UNL     1       3.210   2.308  18.052  0.00  0.00    +0.000 NA
ATOM     10  C   UNL     1       2.560   3.146  18.923  0.00  0.00    +0.000 A 
ATOM     11  C   UNL     1       1.395   2.925  19.676  0.00  0.00    +0.000 A 
ATOM     12  C   UNL     1       0.973   3.916  20.572  0.00  0.00    +0.000 A 
ATOM     13  C   UNL     1       1.620   5.150  20.626  0.00  0.00    +0.000 A 
ATOM     14  C   UNL     1       2.738   5.419  19.827  0.00  0.00    +0.000 A 
ATOM     15  C   UNL     1       3.247   4.349  19.069  0.00  0.00    +0.000 A 
ENDBRANCH   6   7
BRANCH   1  16
ATOM     16  C   UNL     1       5.179   6.025  16.076  0.00  0.00    +0.000 C 
BRANCH  16  19
ATOM     17  O   UNL     1       6.360   3.752  15.112  0.00  0.00    +0.000 OA
ATOM     18  C   UNL     1       6.464   4.789  14.419  0.00  0.00    +0.000 C 
ATOM     19  N   UNL     1       5.939   5.976  14.841  0.00  0.00    +0.000 N 
ATOM     20  H   UNL     1       6.690   6.651  14.770  0.00  0.00    +0.000 HD
BRANCH  18  21
ATOM     21  C   UNL     1       7.262   4.833  13.117  0.00  0.00    +0.000 C 
BRANCH  21  22
ATOM     22  N   UNL     1       6.675   3.926  12.093  0.00  0.00    +0.000 NA
ATOM     23  C   UNL     1       7.533   2.732  12.011  0.00  0.00    +0.000 C 
ATOM     24  C   UNL     1       7.071   1.816  10.890  0.00  0.00    +0.000 C 
ATOM     25  C   UNL     1       5.627   1.384  11.103  0.00  0.00    +0.000 C 
ATOM     26  C   UNL     1       4.733   2.599  11.317  0.00  0.00    +0.000 C 
ATOM     27  C   UNL     1       5.285   3.518  12.418  0.00  0.00    +0.000 C 
ENDBRANCH  21  22
ENDBRANCH  18  21
ENDBRANCH  16  19
ENDBRANCH   1  16
TORSDOF 5
ENDMDL
MODEL 5
REMARK VINA RESULT:      -8.0      1.737      4.242
REMARK  Name = 
REMARK  5 active torsions:
REMARK  status: ('A' for Active; 'I' for Inactive)
REMARK    1  A    between atoms: C_2  and  C_3
REMARK    2  A    between atoms: C_3  and  N_4
REMARK    3  A    between atoms: N_10  and  C_11
REMARK    4  A    between atoms: C_11  and  C_12
REMARK    5  A    between atoms: C_17  and  N_18
REMARK                            x       y       z     vdW  Elec       q    Type
REMARK                         _______ _______ _______ _____ _____    ______ ____
ROOT
ATOM      1  C   UNL     1       2.836   5.661  19.710  0.00  0.00    +0.000 A 
ATOM      2  C   UNL     1       1.661   5.275  20.376  0.00  0.00    +0.000 A 
ATOM      3  C   UNL     1       1.409   3.944  20.682  0.00  0.00    +0.000 A 
ATOM      4  C   UNL     1       2.355   3.011  20.319  0.00  0.00    +0.000 A 
ATOM      5  N   UNL     1       3.509   3.322  19.711  0.00  0.00    +0.000 NA
ATOM      6  C   UNL     1       3.764   4.635  19.436  0.00  0.00    +0.000 A 
ENDROOT
BRANCH   6   7
ATOM      7  N   UNL     1       5.024   4.888  18.822  0.00  0.00    +0.000 N 
ATOM      8  C   UNL     1       6.203   5.160  19.476  0.00  0.00    +0.000 A 
ATOM      9  N   UNL     1       7.240   5.156  18.681  0.00  0.00    +0.000 NA
ATOM     10  C   UNL     1       6.732   4.862  17.440  0.00  0.00    +0.000 A 
ATOM     11  C   UNL     1       7.407   4.584  16.241  0.00  0.00    +0.000 A 
ATOM     12  C   UNL     1       6.657   4.221  15.114  0.00  0.00    +0.000 A 
ATOM     13  C   UNL     1       5.263   4.257  15.143  0.00  0.00    +0.000 A 
ATOM     14  C   UNL     1       4.571   4.607  16.308  0.00  0.00    +0.000 A 
ATOM     15  C   UNL     1       5.341   4.793  17.471  0.00  0.00    +0.000 A 
ENDBRANCH   6   7
BRANCH   1  16
ATOM     16  C   UNL     1       2.937   7.093  19.243  0.00  0.00    +0.000 C 
BRANCH  16  19
ATOM     17  O   UNL     1       2.331   9.399  17.898  0.00  0.00    +0.000 OA
ATOM     18  C   UNL     1       1.516   9.011  18.766  0.00  0.00    +0.000 C 
ATOM     19  N   UNL     1       1.757   7.893  19.511  0.00  0.00    +0.000 N 
ATOM     20  H   UNL     1       1.636   8.174  20.476  0.00  0.00    +0.000 HD
BRANCH  18  21
ATOM     21  C   UNL     1       0.260   9.801  19.127  0.00  0.00    +0.000 C 
BRANCH  21  22
ATOM     22  N   UNL     1       0.233  10.141  20.575  0.00  0.00    +0.000 NA
ATOM     23  C   UNL     1      -0.544  11.383  20.727  0.00  0.00    +0.000 C 
ATOM     24  C   UNL     1      -0.504  11.867  22.167  0.00  0.00    +0.000 C 
ATOM     25  C   UNL     1      -1.059  10.809  23.111  0.00  0.00    +0.000 C 
ATOM     26  C   UNL     1      -0.358   9.474  22.887  0.00  0.00    +0.000 C 
ATOM     27  C   UNL     1      -0.375   9.070  21.405  0.00  0.00    +0.000 C 
ENDBRANCH  21  22
ENDBRANCH  18  21
ENDBRANCH  16  19
ENDBRANCH   1  16
TORSDOF 5
ENDMDL
MODEL 6
REMARK VINA RESULT:      -8.0      1.803      4.191
REMARK  Name = 
REMARK  5 active torsions:
REMARK  status: ('A' for Active; 'I' for Inactive)
REMARK    1  A    between atoms: C_2  and  C_3
REMARK    2  A    between atoms: C_3  and  N_4
REMARK    3  A    between atoms: N_10  and  C_11
REMARK    4  A    between atoms: C_11  and  C_12
REMARK    5  A    between atoms: C_17  and  N_18
REMARK                            x       y       z     vdW  Elec       q    Type
REMARK                         _______ _______ _______ _____ _____    ______ ____
ROOT
ATOM      1  C   UNL     1       2.844   5.465  19.501  0.00  0.00    +0.000 A 
ATOM      2  C   UNL     1       1.707   5.062  20.220  0.00  0.00    +0.000 A 
ATOM      3  C   UNL     1       1.612   3.790  20.767  0.00  0.00    +0.000 A 
ATOM      4  C   UNL     1       2.675   2.933  20.589  0.00  0.00    +0.000 A 
ATOM      5  N   UNL     1       3.799   3.271  19.940  0.00  0.00    +0.000 NA
ATOM      6  C   UNL     1       3.899   4.532  19.428  0.00  0.00    +0.000 A 
ENDROOT
BRANCH   6   7
ATOM      7  N   UNL     1       5.135   4.825  18.784  0.00  0.00    +0.000 N 
ATOM      8  C   UNL     1       6.327   5.107  19.411  0.00  0.00    +0.000 A 
ATOM      9  N   UNL     1       7.341   5.143  18.588  0.00  0.00    +0.000 NA
ATOM     10  C   UNL     1       6.804   4.865  17.355  0.00  0.00    +0.000 A 
ATOM     11  C   UNL     1       7.450   4.627  16.132  0.00  0.00    +0.000 A 
ATOM     12  C   UNL     1       6.676   4.274  15.019  0.00  0.00    +0.000 A 
ATOM     13  C   UNL     1       5.283   4.280  15.087  0.00  0.00    +0.000 A 
ATOM     14  C   UNL     1       4.618   4.590  16.279  0.00  0.00    +0.000 A 
ATOM     15  C   UNL     1       5.416   4.766  17.424  0.00  0.00    +0.000 A 
ENDBRANCH   6   7
BRANCH   1  16
ATOM     16  C   UNL     1       2.782   6.788  18.776  0.00  0.00    +0.000 C 
BRANCH  16  19
ATOM     17  O   UNL     1       1.972   9.131  17.616  0.00  0.00    +0.000 OA
ATOM     18  C   UNL     1       1.649   8.942  18.810  0.00  0.00    +0.000 C 
ATOM     19  N   UNL     1       2.043   7.820  19.480  0.00  0.00    +0.000 N 
ATOM     20  H   UNL     1       2.468   8.146  20.338  0.00  0.00    +0.000 HD
BRANCH  18  21
ATOM     21  C   UNL     1       0.890   9.982  19.632  0.00  0.00    +0.000 C 
BRANCH  21  22
ATOM     22  N   UNL     1       0.740  11.259  18.883  0.00  0.00    +0.000 NA
ATOM     23  C   UNL     1      -0.659  11.698  19.025  0.00  0.00    +0.000 C 
ATOM     24  C   UNL     1      -0.923  12.929  18.175  0.00  0.00    +0.000 C 
ATOM     25  C   UNL     1       0.004  14.070  18.570  0.00  0.00    +0.000 C 
ATOM     26  C   UNL     1       1.456  13.608  18.555  0.00  0.00    +0.000 C 
ATOM     27  C   UNL     1       1.647  12.324  19.378  0.00  0.00    +0.000 C 
ENDBRANCH  21  22
ENDBRANCH  18  21
ENDBRANCH  16  19
ENDBRANCH   1  16
TORSDOF 5
ENDMDL
MODEL 7
REMARK VINA RESULT:      -8.0      1.610      4.246
REMARK  Name = 
REMARK  5 active torsions:
REMARK  status: ('A' for Active; 'I' for Inactive)
REMARK    1  A    between atoms: C_2  and  C_3
REMARK    2  A    between atoms: C_3  and  N_4
REMARK    3  A    between atoms: N_10  and  C_11
REMARK    4  A    between atoms: C_11  and  C_12
REMARK    5  A    between atoms: C_17  and  N_18
REMARK                            x       y       z     vdW  Elec       q    Type
REMARK                         _______ _______ _______ _____ _____    ______ ____
ROOT
ATOM      1  C   UNL     1       2.607   5.470  19.405  0.00  0.00    +0.000 A 
ATOM      2  C   UNL     1       1.452   5.077  20.100  0.00  0.00    +0.000 A 
ATOM      3  C   UNL     1       1.378   3.849  20.743  0.00  0.00    +0.000 A 
ATOM      4  C   UNL     1       2.481   3.026  20.687  0.00  0.00    +0.000 A 
ATOM      5  N   UNL     1       3.623   3.359  20.067  0.00  0.00    +0.000 NA
ATOM      6  C   UNL     1       3.700   4.579  19.459  0.00  0.00    +0.000 A 
ENDROOT
BRANCH   6   7
ATOM      7  N   UNL     1       4.955   4.873  18.853  0.00  0.00    +0.000 N 
ATOM      8  C   UNL     1       6.114   5.208  19.514  0.00  0.00    +0.000 A 
ATOM      9  N   UNL     1       7.160   5.232  18.731  0.00  0.00    +0.000 NA
ATOM     10  C   UNL     1       6.679   4.890  17.491  0.00  0.00    +0.000 A 
ATOM     11  C   UNL     1       7.379   4.616  16.306  0.00  0.00    +0.000 A 
ATOM     12  C   UNL     1       6.659   4.199  15.179  0.00  0.00    +0.000 A 
ATOM     13  C   UNL     1       5.265   4.177  15.191  0.00  0.00    +0.000 A 
ATOM     14  C   UNL     1       4.545   4.521  16.341  0.00  0.00    +0.000 A 
ATOM     15  C   UNL     1       5.292   4.763  17.509  0.00  0.00    +0.000 A 
ENDBRANCH   6   7
BRANCH   1  16
ATOM     16  C   UNL     1       2.531   6.727  18.574  0.00  0.00    +0.000 C 
BRANCH  16  19
ATOM     17  O   UNL     1       2.115   9.163  17.396  0.00  0.00    +0.000 OA
ATOM     18  C   UNL     1       1.743   9.031  18.584  0.00  0.00    +0.000 C 
ATOM     19  N   UNL     1       1.946   7.863  19.262  0.00  0.00    +0.000 N 
ATOM     20  H   UNL     1       2.400   8.123  20.129  0.00  0.00    +0.000 HD
BRANCH  18  21
ATOM     21  C   UNL     1       1.138  10.179  19.391  0.00  0.00    +0.000 C 
BRANCH  21  22
ATOM     22  N   UNL     1      -0.326  10.290  19.156  0.00  0.00    +0.000 NA
ATOM     23  C   UNL     1      -0.726  11.670  19.481  0.00  0.00    +0.000 C 
ATOM     24  C   UNL     1      -2.235  11.825  19.391  0.00  0.00    +0.000 C 
ATOM     25  C   UNL     1      -2.736  11.473  17.998  0.00  0.00    +0.000 C 
ATOM     26  C   UNL     1      -2.230  10.096  17.582  0.00  0.00    +0.000 C 
ATOM     27  C   UNL     1      -0.708   9.979  17.755  0.00  0.00    +0.000 C 
ENDBRANCH  21  22
ENDBRANCH  18  21
ENDBRANCH  16  19
ENDBRANCH   1  16
TORSDOF 5
ENDMDL
MODEL 8
REMARK VINA RESULT:      -7.9      1.610      4.165
REMARK  Name = 
REMARK  5 active torsions:
REMARK  status: ('A' for Active; 'I' for Inactive)
REMARK    1  A    between atoms: C_2  and  C_3
REMARK    2  A    between atoms: C_3  and  N_4
REMARK    3  A    between atoms: N_10  and  C_11
REMARK    4  A    between atoms: C_11  and  C_12
REMARK    5  A    between atoms: C_17  and  N_18
REMARK                            x       y       z     vdW  Elec       q    Type
REMARK                         _______ _______ _______ _____ _____    ______ ____
ROOT
ATOM      1  C   UNL     1       2.761   5.230  19.348  0.00  0.00    +0.000 A 
ATOM      2  C   UNL     1       1.637   4.789  20.065  0.00  0.00    +0.000 A 
ATOM      3  C   UNL     1       1.633   3.566  20.721  0.00  0.00    +0.000 A 
ATOM      4  C   UNL     1       2.773   2.796  20.654  0.00  0.00    +0.000 A 
ATOM      5  N   UNL     1       3.888   3.177  20.012  0.00  0.00    +0.000 NA
ATOM      6  C   UNL     1       3.896   4.393  19.392  0.00  0.00    +0.000 A 
ENDROOT
BRANCH   6   7
ATOM      7  N   UNL     1       5.126   4.740  18.762  0.00  0.00    +0.000 N 
ATOM      8  C   UNL     1       6.294   5.083  19.403  0.00  0.00    +0.000 A 
ATOM      9  N   UNL     1       7.317   5.161  18.593  0.00  0.00    +0.000 NA
ATOM     10  C   UNL     1       6.810   4.850  17.356  0.00  0.00    +0.000 A 
ATOM     11  C   UNL     1       7.483   4.635  16.142  0.00  0.00    +0.000 A 
ATOM     12  C   UNL     1       6.743   4.237  15.022  0.00  0.00    +0.000 A 
ATOM     13  C   UNL     1       5.350   4.178  15.071  0.00  0.00    +0.000 A 
ATOM     14  C   UNL     1       4.654   4.463  16.252  0.00  0.00    +0.000 A 
ATOM     15  C   UNL     1       5.428   4.685  17.406  0.00  0.00    +0.000 A 
ENDBRANCH   6   7
BRANCH   1  16
ATOM     16  C   UNL     1       2.611   6.474  18.506  0.00  0.00    +0.000 C 
BRANCH  16  19
ATOM     17  O   UNL     1       2.230   8.933  17.366  0.00  0.00    +0.000 OA
ATOM     18  C   UNL     1       1.855   8.787  18.551  0.00  0.00    +0.000 C 
ATOM     19  N   UNL     1       2.041   7.606  19.211  0.00  0.00    +0.000 N 
ATOM     20  H   UNL     1       2.497   7.846  20.082  0.00  0.00    +0.000 HD
BRANCH  18  21
ATOM     21  C   UNL     1       1.263   9.930  19.375  0.00  0.00    +0.000 C 
BRANCH  21  22
ATOM     22  N   UNL     1       0.243  10.683  18.598  0.00  0.00    +0.000 NA
ATOM     23  C   UNL     1      -0.984   9.869  18.566  0.00  0.00    +0.000 C 
ATOM     24  C   UNL     1      -2.033  10.516  17.676  0.00  0.00    +0.000 C 
ATOM     25  C   UNL     1      -2.372  11.916  18.166  0.00  0.00    +0.000 C 
ATOM     26  C   UNL     1      -1.104  12.746  18.330  0.00  0.00    +0.000 C 
ATOM     27  C   UNL     1      -0.058  12.013  19.185  0.00  0.00    +0.000 C 
ENDBRANCH  21  22
ENDBRANCH  18  21
ENDBRANCH  16  19
ENDBRANCH   1  16
TORSDOF 5
ENDMDL
MODEL 9
REMARK VINA RESULT:      -7.9      1.650      4.428
REMARK  Name = 
REMARK  5 active torsions:
REMARK  status: ('A' for Active; 'I' for Inactive)
REMARK    1  A    between atoms: C_2  and  C_3
REMARK    2  A    between atoms: C_3  and  N_4
REMARK    3  A    between atoms: N_10  and  C_11
REMARK    4  A    between atoms: C_11  and  C_12
REMARK    5  A    between atoms: C_17  and  N_18
REMARK                            x       y       z     vdW  Elec       q    Type
REMARK                         _______ _______ _______ _____ _____    ______ ____
ROOT
ATOM      1  C   UNL     1       2.298   4.495  19.677  0.00  0.00    +0.000 A 
ATOM      2  C   UNL     1       1.063   3.874  19.925  0.00  0.00    +0.000 A 
ATOM      3  C   UNL     1       0.732   2.664  19.331  0.00  0.00    +0.000 A 
ATOM      4  C   UNL     1       1.659   2.083  18.494  0.00  0.00    +0.000 A 
ATOM      5  N   UNL     1       2.866   2.612  18.244  0.00  0.00    +0.000 NA
ATOM      6  C   UNL     1       3.197   3.789  18.852  0.00  0.00    +0.000 A 
ENDROOT
BRANCH   6   7
ATOM      7  N   UNL     1       4.507   4.267  18.564  0.00  0.00    +0.000 N 
ATOM      8  C   UNL     1       5.501   4.507  19.484  0.00  0.00    +0.000 A 
ATOM      9  N   UNL     1       6.660   4.751  18.931  0.00  0.00    +0.000 NA
ATOM     10  C   UNL     1       6.432   4.663  17.580  0.00  0.00    +0.000 A 
ATOM     11  C   UNL     1       7.347   4.687  16.515  0.00  0.00    +0.000 A 
ATOM     12  C   UNL     1       6.870   4.489  15.213  0.00  0.00    +0.000 A 
ATOM     13  C   UNL     1       5.502   4.397  14.960  0.00  0.00    +0.000 A 
ATOM     14  C   UNL     1       4.567   4.448  16.002  0.00  0.00    +0.000 A 
ATOM     15  C   UNL     1       5.079   4.468  17.312  0.00  0.00    +0.000 A 
ENDBRANCH   6   7
BRANCH   1  16
ATOM     16  C   UNL     1       2.495   5.896  20.203  0.00  0.00    +0.000 C 
BRANCH  16  19
ATOM     17  O   UNL     1       1.489   8.375  20.786  0.00  0.00    +0.000 OA
ATOM     18  C   UNL     1       1.827   8.158  19.600  0.00  0.00    +0.000 C 
ATOM     19  N   UNL     1       2.302   6.939  19.213  0.00  0.00    +0.000 N 
ATOM     20  H   UNL     1       1.750   6.671  18.407  0.00  0.00    +0.000 HD
BRANCH  18  21
ATOM     21  C   UNL     1       1.640   9.190  18.490  0.00  0.00    +0.000 C 
BRANCH  21  22
ATOM     22  N   UNL     1       0.586  10.179  18.843  0.00  0.00    +0.000 NA
ATOM     23  C   UNL     1       1.180  11.522  18.736  0.00  0.00    +0.000 C 
ATOM     24  C   UNL     1       0.199  12.582  19.210  0.00  0.00    +0.000 C 
ATOM     25  C   UNL     1      -1.086  12.535  18.396  0.00  0.00    +0.000 C 
ATOM     26  C   UNL     1      -1.659  11.123  18.385  0.00  0.00    +0.000 C 
ATOM     27  C   UNL     1      -0.604  10.090  17.959  0.00  0.00    +0.000 C 
ENDBRANCH  21  22
ENDBRANCH  18  21
ENDBRANCH  16  19
ENDBRANCH   1  16
TORSDOF 5
ENDMDL
