MODEL 1
REMARK VINA RESULT:      -7.6      0.000      0.000
REMARK  Name = 
REMARK  4 active torsions:
REMARK  status: ('A' for Active; 'I' for Inactive)
REMARK    1  A    between atoms: C_2  and  C_3
REMARK    2  A    between atoms: C_3  and  C_4
REMARK    3  A    between atoms: C_3  and  C_11
REMARK    4  A    between atoms: C_7  and  O_8
REMARK                            x       y       z     vdW  Elec       q    Type
REMARK                         _______ _______ _______ _____ _____    ______ ____
ROOT
ATOM      1  C   UNL     1       5.860   5.998  18.025  0.00  0.00    +0.000 C 
ENDROOT
BRANCH   1   2
ATOM      2  C   UNL     1       4.611   5.320  18.632  0.00  0.00    +0.000 A 
ATOM      3  C   UNL     1       4.708   4.027  19.212  0.00  0.00    +0.000 A 
ATOM      4  C   UNL     1       3.608   3.402  19.800  0.00  0.00    +0.000 A 
ATOM      5  C   UNL     1       2.382   4.047  19.812  0.00  0.00    +0.000 A 
ATOM      6 CL   UNL     1       1.032   3.293  20.565  0.00  0.00    +0.000 Cl
ATOM      7  C   UNL     1       2.243   5.304  19.224  0.00  0.00    +0.000 A 
ATOM      8  C   UNL     1       3.349   5.933  18.632  0.00  0.00    +0.000 A 
ATOM      9 CL   UNL     1       3.087   7.484  17.923  0.00  0.00    +0.000 Cl
ENDBRANCH   1   2
BRANCH   1  10
ATOM     10  C   UNL     1       6.125   5.537  16.599  0.00  0.00    +0.000 A 
ATOM     11  C   UNL     1       5.191   4.809  15.856  0.00  0.00    +0.000 A 
ATOM     12  C   UNL     1       5.507   4.390  14.567  0.00  0.00    +0.000 A 
ATOM     13  C   UNL     1       6.751   4.711  14.073  0.00  0.00    +0.000 A 
ATOM     14  N   UNL     1       7.646   5.410  14.792  0.00  0.00    +0.000 NA
ATOM     15  N   UNL     1       7.331   5.829  16.066  0.00  0.00    +0.000 NA
BRANCH  13  16
ATOM     16  O   UNL     1       7.141   4.330  12.824  0.00  0.00    +0.000 OA
ATOM     17  H   UNL     1       6.876   5.020  12.197  0.00  0.00    +0.000 HD
ENDBRANCH  13  16
ENDBRANCH   1  10
BRANCH   1  19
ATOM     18  N   UNL     1       8.055   5.326  19.594  0.00  0.00    +0.000 NA
ATOM     19  C   UNL     1       7.060   5.630  18.883  0.00  0.00    +0.000 C 
ENDBRANCH   1  19
TORSDOF 4
ENDMDL
MODEL 2
REMARK VINA RESULT:      -7.3      1.219      1.277
REMARK  Name = 
REMARK  4 active torsions:
REMARK  status: ('A' for Active; 'I' for Inactive)
REMARK    1  A    between atoms: C_2  and  C_3
REMARK    2  A    between atoms: C_3  and  C_4
REMARK    3  A    between atoms: C_3  and  C_11
REMARK    4  A    between atoms: C_7  and  O_8
REMARK                            x       y       z     vdW  Elec       q    Type
REMARK                         _______ _______ _______ _____ _____    ______ ____
ROOT
ATOM      1  C   UNL     1       5.688   5.502  17.052  0.00  0.00    +0.000 C 
ENDROOT
BRANCH   1   2
ATOM      2  C   UNL     1       4.394   4.769  17.470  0.00  0.00    +0.000 A 
ATOM      3  C   UNL     1       4.358   3.350  17.517  0.00  0.00    +0.000 A 
ATOM      4  C   UNL     1       3.217   2.658  17.925  0.00  0.00    +0.000 A 
ATOM      5  C   UNL     1       2.081   3.366  18.285  0.00  0.00    +0.000 A 
ATOM      6 CL   UNL     1       0.685   2.517  18.819  0.00  0.00    +0.000 Cl
ATOM      7  C   UNL     1       2.072   4.759  18.222  0.00  0.00    +0.000 A 
ATOM      8  C   UNL     1       3.219   5.455  17.811  0.00  0.00    +0.000 A 
ATOM      9 CL   UNL     1       3.118   7.177  17.756  0.00  0.00    +0.000 Cl
ENDBRANCH   1   2
BRANCH   1  10
ATOM     10  C   UNL     1       6.101   5.165  15.626  0.00  0.00    +0.000 A 
ATOM     11  C   UNL     1       5.340   4.335  14.797  0.00  0.00    +0.000 A 
ATOM     12  C   UNL     1       5.788   4.042  13.513  0.00  0.00    +0.000 A 
ATOM     13  C   UNL     1       6.985   4.586  13.109  0.00  0.00    +0.000 A 
ATOM     14  N   UNL     1       7.714   5.384  13.910  0.00  0.00    +0.000 NA
ATOM     15  N   UNL     1       7.267   5.678  15.179  0.00  0.00    +0.000 NA
BRANCH  13  16
ATOM     16  O   UNL     1       7.497   4.339  11.869  0.00  0.00    +0.000 OA
ATOM     17  H   UNL     1       7.198   3.463  11.584  0.00  0.00    +0.000 HD
ENDBRANCH  13  16
ENDBRANCH   1  10
BRANCH   1  19
ATOM     18  N   UNL     1       7.726   4.708  18.770  0.00  0.00    +0.000 NA
ATOM     19  C   UNL     1       6.802   5.068  17.991  0.00  0.00    +0.000 C 
ENDBRANCH   1  19
TORSDOF 4
ENDMDL
MODEL 3
REMARK VINA RESULT:      -6.8      1.350      1.459
REMARK  Name = 
REMARK  4 active torsions:
REMARK  status: ('A' for Active; 'I' for Inactive)
REMARK    1  A    between atoms: C_2  and  C_3
REMARK    2  A    between atoms: C_3  and  C_4
REMARK    3  A    between atoms: C_3  and  C_11
REMARK    4  A    between atoms: C_7  and  O_8
REMARK                            x       y       z     vdW  Elec       q    Type
REMARK                         _______ _______ _______ _____ _____    ______ ____
ROOT
ATOM      1  C   UNL     1       5.490   5.637  18.491  0.00  0.00    +0.000 C 
ENDROOT
BRANCH   1   2
ATOM      2  C   UNL     1       4.361   4.879  19.224  0.00  0.00    +0.000 A 
ATOM      3  C   UNL     1       4.539   3.523  19.608  0.00  0.00    +0.000 A 
ATOM      4  C   UNL     1       3.554   2.821  20.302  0.00  0.00    +0.000 A 
ATOM      5  C   UNL     1       2.362   3.451  20.619  0.00  0.00    +0.000 A 
ATOM      6 CL   UNL     1       1.159   2.598  21.504  0.00  0.00    +0.000 Cl
ATOM      7  C   UNL     1       2.140   4.772  20.232  0.00  0.00    +0.000 A 
ATOM      8  C   UNL     1       3.130   5.479  19.533  0.00  0.00    +0.000 A 
ATOM      9 CL   UNL     1       2.771   7.106  19.087  0.00  0.00    +0.000 Cl
ENDBRANCH   1   2
BRANCH   1  10
ATOM     10  C   UNL     1       5.775   5.050  17.116  0.00  0.00    +0.000 A 
ATOM     11  C   UNL     1       7.040   5.099  16.523  0.00  0.00    +0.000 A 
ATOM     12  C   UNL     1       7.228   4.571  15.250  0.00  0.00    +0.000 A 
ATOM     13  C   UNL     1       6.140   4.016  14.616  0.00  0.00    +0.000 A 
ATOM     14  N   UNL     1       4.925   3.972  15.191  0.00  0.00    +0.000 NA
ATOM     15  N   UNL     1       4.741   4.491  16.453  0.00  0.00    +0.000 NA
BRANCH  13  16
ATOM     16  O   UNL     1       6.239   3.486  13.364  0.00  0.00    +0.000 OA
ATOM     17  H   UNL     1       5.399   3.630  12.903  0.00  0.00    +0.000 HD
ENDBRANCH  13  16
ENDBRANCH   1  10
BRANCH   1  19
ATOM     18  N   UNL     1       7.799   5.445  20.029  0.00  0.00    +0.000 NA
ATOM     19  C   UNL     1       6.752   5.532  19.332  0.00  0.00    +0.000 C 
ENDBRANCH   1  19
TORSDOF 4
ENDMDL
MODEL 4
REMARK VINA RESULT:      -6.8      2.234      3.404
REMARK  Name = 
REMARK  4 active torsions:
REMARK  status: ('A' for Active; 'I' for Inactive)
REMARK    1  A    between atoms: C_2  and  C_3
REMARK    2  A    between atoms: C_3  and  C_4
REMARK    3  A    between atoms: C_3  and  C_11
REMARK    4  A    between atoms: C_7  and  O_8
REMARK                            x       y       z     vdW  Elec       q    Type
REMARK                         _______ _______ _______ _____ _____    ______ ____
ROOT
ATOM      1  C   UNL     1       4.089   4.416  18.287  0.00  0.00    +0.000 C 
ENDROOT
BRANCH   1   2
ATOM      2  C   UNL     1       3.333   5.706  18.678  0.00  0.00    +0.000 A 
ATOM      3  C   UNL     1       3.361   6.840  17.823  0.00  0.00    +0.000 A 
ATOM      4  C   UNL     1       2.661   8.007  18.129  0.00  0.00    +0.000 A 
ATOM      5  C   UNL     1       1.925   8.074  19.301  0.00  0.00    +0.000 A 
ATOM      6 CL   UNL     1       1.034   9.499  19.664  0.00  0.00    +0.000 Cl
ATOM      7  C   UNL     1       1.899   6.991  20.178  0.00  0.00    +0.000 A 
ATOM      8  C   UNL     1       2.604   5.817  19.872  0.00  0.00    +0.000 A 
ATOM      9 CL   UNL     1       2.523   4.527  21.015  0.00  0.00    +0.000 Cl
ENDBRANCH   1   2
BRANCH   1  10
ATOM     10  C   UNL     1       5.094   4.658  17.169  0.00  0.00    +0.000 A 
ATOM     11  C   UNL     1       4.818   4.362  15.831  0.00  0.00    +0.000 A 
ATOM     12  C   UNL     1       5.790   4.579  14.860  0.00  0.00    +0.000 A 
ATOM     13  C   UNL     1       7.006   5.078  15.267  0.00  0.00    +0.000 A 
ATOM     14  N   UNL     1       7.267   5.361  16.555  0.00  0.00    +0.000 NA
ATOM     15  N   UNL     1       6.302   5.151  17.515  0.00  0.00    +0.000 NA
BRANCH  13  16
ATOM     16  O   UNL     1       8.014   5.309  14.379  0.00  0.00    +0.000 OA
ATOM     17  H   UNL     1       8.463   4.469  14.200  0.00  0.00    +0.000 HD
ENDBRANCH  13  16
ENDBRANCH   1  10
BRANCH   1  19
ATOM     18  N   UNL     1       2.222   2.553  17.407  0.00  0.00    +0.000 NA
ATOM     19  C   UNL     1       3.069   3.398  17.806  0.00  0.00    +0.000 C 
ENDBRANCH   1  19
TORSDOF 4
ENDMDL
MODEL 5
REMARK VINA RESULT:      -6.6      2.391      3.594
REMARK  Name = 
REMARK  4 active torsions:
REMARK  status: ('A' for Active; 'I' for Inactive)
REMARK    1  A    between atoms: C_2  and  C_3
REMARK    2  A    between atoms: C_3  and  C_4
REMARK    3  A    between atoms: C_3  and  C_11
REMARK    4  A    between atoms: C_7  and  O_8
REMARK                            x       y       z     vdW  Elec       q    Type
REMARK                         _______ _______ _______ _____ _____    ______ ____
ROOT
ATOM      1  C   UNL     1       3.959   4.131  18.590  0.00  0.00    +0.000 C 
ENDROOT
BRANCH   1   2
ATOM      2  C   UNL     1       3.216   5.428  18.978  0.00  0.00    +0.000 A 
ATOM      3  C   UNL     1       3.298   6.578  18.148  0.00  0.00    +0.000 A 
ATOM      4  C   UNL     1       2.611   7.753  18.451  0.00  0.00    +0.000 A 
ATOM      5  C   UNL     1       1.833   7.813  19.597  0.00  0.00    +0.000 A 
ATOM      6 CL   UNL     1       0.959   9.249  19.956  0.00  0.00    +0.000 Cl
ATOM      7  C   UNL     1       1.754   6.714  20.450  0.00  0.00    +0.000 A 
ATOM      8  C   UNL     1       2.446   5.532  20.147  0.00  0.00    +0.000 A 
ATOM      9 CL   UNL     1       2.297   4.222  21.261  0.00  0.00    +0.000 Cl
ENDBRANCH   1   2
BRANCH   1  10
ATOM     10  C   UNL     1       5.069   4.388  17.580  0.00  0.00    +0.000 A 
ATOM     11  C   UNL     1       6.373   4.720  17.961  0.00  0.00    +0.000 A 
ATOM     12  C   UNL     1       7.334   4.973  16.989  0.00  0.00    +0.000 A 
ATOM     13  C   UNL     1       6.953   4.890  15.669  0.00  0.00    +0.000 A 
ATOM     14  N   UNL     1       5.698   4.571  15.307  0.00  0.00    +0.000 NA
ATOM     15  N   UNL     1       4.747   4.316  16.271  0.00  0.00    +0.000 NA
BRANCH  13  16
ATOM     16  O   UNL     1       7.833   5.133  14.656  0.00  0.00    +0.000 OA
ATOM     17  H   UNL     1       8.732   5.021  15.000  0.00  0.00    +0.000 HD
ENDBRANCH  13  16
ENDBRANCH   1  10
BRANCH   1  19
ATOM     18  N   UNL     1       2.117   2.387  17.450  0.00  0.00    +0.000 NA
ATOM     19  C   UNL     1       2.952   3.178  17.967  0.00  0.00    +0.000 C 
ENDBRANCH   1  19
TORSDOF 4
ENDMDL
MODEL 6
REMARK VINA RESULT:      -6.4      2.470      3.407
REMARK  Name = 
REMARK  4 active torsions:
REMARK  status: ('A' for Active; 'I' for Inactive)
REMARK    1  A    between atoms: C_2  and  C_3
REMARK    2  A    between atoms: C_3  and  C_4
REMARK    3  A    between atoms: C_3  and  C_11
REMARK    4  A    between atoms: C_7  and  O_8
REMARK                            x       y       z     vdW  Elec       q    Type
REMARK                         _______ _______ _______ _____ _____    ______ ____
ROOT
ATOM      1  C   UNL     1       3.067   5.174  17.782  0.00  0.00    +0.000 C 
ENDROOT
BRANCH   1   2
ATOM      2  C   UNL     1       2.526   4.383  18.994  0.00  0.00    +0.000 A 
ATOM      3  C   UNL     1       2.318   5.034  20.239  0.00  0.00    +0.000 A 
ATOM      4  C   UNL     1       1.797   4.358  21.343  0.00  0.00    +0.000 A 
ATOM      5  C   UNL     1       1.482   3.013  21.233  0.00  0.00    +0.000 A 
ATOM      6 CL   UNL     1       0.809   2.186  22.582  0.00  0.00    +0.000 Cl
ATOM      7  C   UNL     1       1.702   2.336  20.036  0.00  0.00    +0.000 A 
ATOM      8  C   UNL     1       2.226   3.014  18.925  0.00  0.00    +0.000 A 
ATOM      9 CL   UNL     1       2.472   2.098  17.484  0.00  0.00    +0.000 Cl
ENDBRANCH   1   2
BRANCH   1  10
ATOM     10  C   UNL     1       4.551   4.924  17.553  0.00  0.00    +0.000 A 
ATOM     11  C   UNL     1       5.083   4.649  16.289  0.00  0.00    +0.000 A 
ATOM     12  C   UNL     1       6.445   4.400  16.152  0.00  0.00    +0.000 A 
ATOM     13  C   UNL     1       7.223   4.430  17.287  0.00  0.00    +0.000 A 
ATOM     14  N   UNL     1       6.706   4.694  18.499  0.00  0.00    +0.000 NA
ATOM     15  N   UNL     1       5.359   4.946  18.634  0.00  0.00    +0.000 NA
BRANCH  13  16
ATOM     16  O   UNL     1       8.564   4.187  17.237  0.00  0.00    +0.000 OA
ATOM     17  H   UNL     1       9.003   4.768  17.877  0.00  0.00    +0.000 HD
ENDBRANCH  13  16
ENDBRANCH   1  10
BRANCH   1  19
ATOM     18  N   UNL     1       2.694   7.884  18.282  0.00  0.00    +0.000 NA
ATOM     19  C   UNL     1       2.863   6.655  18.055  0.00  0.00    +0.000 C 
ENDBRANCH   1  19
TORSDOF 4
ENDMDL
MODEL 7
REMARK VINA RESULT:      -6.4      3.939      5.826
REMARK  Name = 
REMARK  4 active torsions:
REMARK  status: ('A' for Active; 'I' for Inactive)
REMARK    1  A    between atoms: C_2  and  C_3
REMARK    2  A    between atoms: C_3  and  C_4
REMARK    3  A    between atoms: C_3  and  C_11
REMARK    4  A    between atoms: C_7  and  O_8
REMARK                            x       y       z     vdW  Elec       q    Type
REMARK                         _______ _______ _______ _____ _____    ______ ____
ROOT
ATOM      1  C   UNL     1       4.515   5.390  17.928  0.00  0.00    +0.000 C 
ENDROOT
BRANCH   1   2
ATOM      2  C   UNL     1       5.311   5.147  16.626  0.00  0.00    +0.000 A 
ATOM      3  C   UNL     1       4.730   4.415  15.557  0.00  0.00    +0.000 A 
ATOM      4  C   UNL     1       5.408   4.208  14.355  0.00  0.00    +0.000 A 
ATOM      5  C   UNL     1       6.687   4.718  14.197  0.00  0.00    +0.000 A 
ATOM      6 CL   UNL     1       7.511   4.493  12.705  0.00  0.00    +0.000 Cl
ATOM      7  C   UNL     1       7.299   5.415  15.236  0.00  0.00    +0.000 A 
ATOM      8  C   UNL     1       6.619   5.622  16.446  0.00  0.00    +0.000 A 
ATOM      9 CL   UNL     1       7.453   6.490  17.681  0.00  0.00    +0.000 Cl
ENDBRANCH   1   2
BRANCH   1  10
ATOM     10  C   UNL     1       3.458   4.320  18.160  0.00  0.00    +0.000 A 
ATOM     11  C   UNL     1       3.755   3.078  18.731  0.00  0.00    +0.000 A 
ATOM     12  C   UNL     1       2.749   2.131  18.888  0.00  0.00    +0.000 A 
ATOM     13  C   UNL     1       1.482   2.460  18.463  0.00  0.00    +0.000 A 
ATOM     14  N   UNL     1       1.201   3.655  17.915  0.00  0.00    +0.000 NA
ATOM     15  N   UNL     1       2.197   4.594  17.763  0.00  0.00    +0.000 NA
BRANCH  13  16
ATOM     16  O   UNL     1       0.443   1.584  18.574  0.00  0.00    +0.000 OA
ATOM     17  H   UNL     1       0.706   0.873  19.178  0.00  0.00    +0.000 HD
ENDBRANCH  13  16
ENDBRANCH   1  10
BRANCH   1  19
ATOM     18  N   UNL     1       3.243   7.854  17.716  0.00  0.00    +0.000 NA
ATOM     19  C   UNL     1       3.820   6.737  17.812  0.00  0.00    +0.000 C 
ENDBRANCH   1  19
TORSDOF 4
ENDMDL
MODEL 8
REMARK VINA RESULT:      -6.3      3.862      5.789
REMARK  Name = 
REMARK  4 active torsions:
REMARK  status: ('A' for Active; 'I' for Inactive)
REMARK    1  A    between atoms: C_2  and  C_3
REMARK    2  A    between atoms: C_3  and  C_4
REMARK    3  A    between atoms: C_3  and  C_11
REMARK    4  A    between atoms: C_7  and  O_8
REMARK                            x       y       z     vdW  Elec       q    Type
REMARK                         _______ _______ _______ _____ _____    ______ ____
ROOT
ATOM      1  C   UNL     1       4.618   5.415  17.851  0.00  0.00    +0.000 C 
ENDROOT
BRANCH   1   2
ATOM      2  C   UNL     1       5.408   5.185  16.544  0.00  0.00    +0.000 A 
ATOM      3  C   UNL     1       4.831   4.444  15.478  0.00  0.00    +0.000 A 
ATOM      4  C   UNL     1       5.503   4.249  14.271  0.00  0.00    +0.000 A 
ATOM      5  C   UNL     1       6.773   4.778  14.104  0.00  0.00    +0.000 A 
ATOM      6 CL   UNL     1       7.590   4.567  12.606  0.00  0.00    +0.000 Cl
ATOM      7  C   UNL     1       7.382   5.484  15.140  0.00  0.00    +0.000 A 
ATOM      8  C   UNL     1       6.707   5.680  16.354  0.00  0.00    +0.000 A 
ATOM      9 CL   UNL     1       7.537   6.560  17.584  0.00  0.00    +0.000 Cl
ENDBRANCH   1   2
BRANCH   1  10
ATOM     10  C   UNL     1       3.581   4.327  18.092  0.00  0.00    +0.000 A 
ATOM     11  C   UNL     1       2.211   4.538  17.912  0.00  0.00    +0.000 A 
ATOM     12  C   UNL     1       1.311   3.511  18.178  0.00  0.00    +0.000 A 
ATOM     13  C   UNL     1       1.818   2.311  18.622  0.00  0.00    +0.000 A 
ATOM     14  N   UNL     1       3.136   2.113  18.794  0.00  0.00    +0.000 NA
ATOM     15  N   UNL     1       4.026   3.128  18.525  0.00  0.00    +0.000 NA
BRANCH  13  16
ATOM     16  O   UNL     1       1.002   1.258  18.913  0.00  0.00    +0.000 OA
ATOM     17  H   UNL     1       1.474   0.664  19.517  0.00  0.00    +0.000 HD
ENDBRANCH  13  16
ENDBRANCH   1  10
BRANCH   1  19
ATOM     18  N   UNL     1       3.304   7.857  17.648  0.00  0.00    +0.000 NA
ATOM     19  C   UNL     1       3.900   6.750  17.740  0.00  0.00    +0.000 C 
ENDBRANCH   1  19
TORSDOF 4
ENDMDL
MODEL 9
REMARK VINA RESULT:      -6.3      2.292      3.427
REMARK  Name = 
REMARK  4 active torsions:
REMARK  status: ('A' for Active; 'I' for Inactive)
REMARK    1  A    between atoms: C_2  and  C_3
REMARK    2  A    between atoms: C_3  and  C_4
REMARK    3  A    between atoms: C_3  and  C_11
REMARK    4  A    between atoms: C_7  and  O_8
REMARK                            x       y       z     vdW  Elec       q    Type
REMARK                         _______ _______ _______ _____ _____    ______ ____
ROOT
ATOM      1  C   UNL     1       5.859   3.938  16.592  0.00  0.00    +0.000 C 
ENDROOT
BRANCH   1   2
ATOM      2  C   UNL     1       4.502   3.728  17.302  0.00  0.00    +0.000 A 
ATOM      3  C   UNL     1       4.098   2.428  17.706  0.00  0.00    +0.000 A 
ATOM      4  C   UNL     1       2.897   2.209  18.381  0.00  0.00    +0.000 A 
ATOM      5  C   UNL     1       2.065   3.282  18.658  0.00  0.00    +0.000 A 
ATOM      6 CL   UNL     1       0.599   3.019  19.518  0.00  0.00    +0.000 Cl
ATOM      7  C   UNL     1       2.415   4.567  18.249  0.00  0.00    +0.000 A 
ATOM      8  C   UNL     1       3.623   4.788  17.570  0.00  0.00    +0.000 A 
ATOM      9 CL   UNL     1       3.976   6.409  17.095  0.00  0.00    +0.000 Cl
ENDBRANCH   1   2
BRANCH   1  10
ATOM     10  C   UNL     1       6.623   5.126  17.158  0.00  0.00    +0.000 A 
ATOM     11  C   UNL     1       7.102   5.157  18.471  0.00  0.00    +0.000 A 
ATOM     12  C   UNL     1       7.767   6.287  18.938  0.00  0.00    +0.000 A 
ATOM     13  C   UNL     1       7.923   7.346  18.072  0.00  0.00    +0.000 A 
ATOM     14  N   UNL     1       7.459   7.311  16.811  0.00  0.00    +0.000 NA
ATOM     15  N   UNL     1       6.805   6.191  16.348  0.00  0.00    +0.000 NA
BRANCH  13  16
ATOM     16  O   UNL     1       8.554   8.492  18.456  0.00  0.00    +0.000 OA
ATOM     17  H   UNL     1       9.502   8.390  18.284  0.00  0.00    +0.000 HD
ENDBRANCH  13  16
ENDBRANCH   1  10
BRANCH   1  19
ATOM     18  N   UNL     1       5.359   4.412  13.898  0.00  0.00    +0.000 NA
ATOM     19  C   UNL     1       5.585   4.197  15.119  0.00  0.00    +0.000 C 
ENDBRANCH   1  19
TORSDOF 4
ENDMDL
