MODEL 1
REMARK VINA RESULT:      -7.1      0.000      0.000
REMARK  Name = 
REMARK  4 active torsions:
REMARK  status: ('A' for Active; 'I' for Inactive)
REMARK    1  A    between atoms: C_2  and  C_7
REMARK    2  A    between atoms: N_3  and  C_4
REMARK    3  A    between atoms: N_10  and  S_11
REMARK    4  A    between atoms: S_11  and  C_14
REMARK                            x       y       z     vdW  Elec       q    Type
REMARK                         _______ _______ _______ _____ _____    ______ ____
ROOT
ATOM      1  C   UNL     1       7.552   6.277  17.608  0.00  0.00    +0.000 C 
ATOM      2  C   UNL     1       7.276   5.871  19.060  0.00  0.00    +0.000 C 
ATOM      3  C   UNL     1       5.844   5.378  19.254  0.00  0.00    +0.000 C 
ATOM      4  N   UNL     1       4.849   6.405  18.818  0.00  0.00    +0.000 NA
ATOM      5  C   UNL     1       5.089   6.876  17.412  0.00  0.00    +0.000 C 
ATOM      6  C   UNL     1       6.531   7.337  17.195  0.00  0.00    +0.000 C 
ENDROOT
BRANCH   1   8
ATOM      7  O   UNL     1       7.972   3.963  17.005  0.00  0.00    +0.000 OA
ATOM      8  C   UNL     1       7.555   5.067  16.664  0.00  0.00    +0.000 C 
ATOM      9  N   UNL     1       7.093   5.330  15.390  0.00  0.00    +0.000 N 
ATOM     10  H   UNL     1       6.905   6.288  15.119  0.00  0.00    +0.000 HD
BRANCH   9  11
ATOM     11  C   UNL     1       7.095   4.337  14.359  0.00  0.00    +0.000 C 
ATOM     12  C   UNL     1       5.847   3.983  13.597  0.00  0.00    +0.000 C 
ATOM     13  C   UNL     1       6.941   4.753  12.921  0.00  0.00    +0.000 C 
ENDBRANCH   9  11
ENDBRANCH   1   8
BRANCH   4  14
ATOM     14  S   UNL     1       3.210   5.839  19.014  0.00  0.00    +0.000 S 
ATOM     15  O   UNL     1       2.747   5.366  17.722  0.00  0.00    +0.000 OA
ATOM     16  O   UNL     1       3.180   4.972  20.171  0.00  0.00    +0.000 OA
BRANCH  14  17
ATOM     17  C   UNL     1       2.264   7.306  19.388  0.00  0.00    +0.000 A 
ATOM     18  C   UNL     1       2.053   8.270  18.394  0.00  0.00    +0.000 A 
ATOM     19  C   UNL     1       1.281   9.401  18.680  0.00  0.00    +0.000 A 
ATOM     20  C   UNL     1       0.699   9.552  19.940  0.00  0.00    +0.000 A 
ATOM     21 CL   UNL     1      -0.255  10.944  20.283  0.00  0.00    +0.000 Cl
ATOM     22  C   UNL     1       0.878   8.575  20.918  0.00  0.00    +0.000 A 
ATOM     23  C   UNL     1       1.666   7.454  20.648  0.00  0.00    +0.000 A 
ENDBRANCH  14  17
ENDBRANCH   4  14
TORSDOF 4
ENDMDL
MODEL 2
REMARK VINA RESULT:      -7.0      1.068      1.167
REMARK  Name = 
REMARK  4 active torsions:
REMARK  status: ('A' for Active; 'I' for Inactive)
REMARK    1  A    between atoms: C_2  and  C_7
REMARK    2  A    between atoms: N_3  and  C_4
REMARK    3  A    between atoms: N_10  and  S_11
REMARK    4  A    between atoms: S_11  and  C_14
REMARK                            x       y       z     vdW  Elec       q    Type
REMARK                         _______ _______ _______ _____ _____    ______ ____
ROOT
ATOM      1  C   UNL     1       6.737   5.529  16.469  0.00  0.00    +0.000 C 
ATOM      2  C   UNL     1       6.786   5.189  17.962  0.00  0.00    +0.000 C 
ATOM      3  C   UNL     1       5.396   4.923  18.534  0.00  0.00    +0.000 C 
ATOM      4  N   UNL     1       4.482   6.084  18.309  0.00  0.00    +0.000 NA
ATOM      5  C   UNL     1       4.419   6.494  16.866  0.00  0.00    +0.000 C 
ATOM      6  C   UNL     1       5.809   6.727  16.270  0.00  0.00    +0.000 C 
ENDROOT
BRANCH   1   8
ATOM      7  O   UNL     1       5.965   3.255  16.113  0.00  0.00    +0.000 OA
ATOM      8  C   UNL     1       6.325   4.320  15.619  0.00  0.00    +0.000 C 
ATOM      9  N   UNL     1       6.434   4.512  14.255  0.00  0.00    +0.000 N 
ATOM     10  H   UNL     1       6.878   5.353  13.907  0.00  0.00    +0.000 HD
BRANCH   9  11
ATOM     11  C   UNL     1       6.162   3.467  13.315  0.00  0.00    +0.000 C 
ATOM     12  C   UNL     1       5.258   3.681  12.133  0.00  0.00    +0.000 C 
ATOM     13  C   UNL     1       6.735   3.544  11.926  0.00  0.00    +0.000 C 
ENDBRANCH   9  11
ENDBRANCH   1   8
BRANCH   4  14
ATOM     14  S   UNL     1       2.883   5.778  18.939  0.00  0.00    +0.000 S 
ATOM     15  O   UNL     1       2.115   5.120  17.897  0.00  0.00    +0.000 OA
ATOM     16  O   UNL     1       3.033   5.166  20.240  0.00  0.00    +0.000 OA
BRANCH  14  17
ATOM     17  C   UNL     1       2.162   7.396  19.159  0.00  0.00    +0.000 A 
ATOM     18  C   UNL     1       2.022   8.250  18.058  0.00  0.00    +0.000 A 
ATOM     19  C   UNL     1       1.423   9.504  18.227  0.00  0.00    +0.000 A 
ATOM     20  C   UNL     1       0.942   9.887  19.481  0.00  0.00    +0.000 A 
ATOM     21 CL   UNL     1       0.203  11.429  19.680  0.00  0.00    +0.000 Cl
ATOM     22  C   UNL     1       1.050   9.022  20.568  0.00  0.00    +0.000 A 
ATOM     23  C   UNL     1       1.666   7.778  20.414  0.00  0.00    +0.000 A 
ENDBRANCH  14  17
ENDBRANCH   4  14
TORSDOF 4
ENDMDL
MODEL 3
REMARK VINA RESULT:      -7.0      1.055      1.526
REMARK  Name = 
REMARK  4 active torsions:
REMARK  status: ('A' for Active; 'I' for Inactive)
REMARK    1  A    between atoms: C_2  and  C_7
REMARK    2  A    between atoms: N_3  and  C_4
REMARK    3  A    between atoms: N_10  and  S_11
REMARK    4  A    between atoms: S_11  and  C_14
REMARK                            x       y       z     vdW  Elec       q    Type
REMARK                         _______ _______ _______ _____ _____    ______ ____
ROOT
ATOM      1  C   UNL     1       6.781   5.462  16.620  0.00  0.00    +0.000 C 
ATOM      2  C   UNL     1       6.782   5.048  18.095  0.00  0.00    +0.000 C 
ATOM      3  C   UNL     1       5.370   4.791  18.617  0.00  0.00    +0.000 C 
ATOM      4  N   UNL     1       4.492   5.987  18.428  0.00  0.00    +0.000 NA
ATOM      5  C   UNL     1       4.479   6.469  17.006  0.00  0.00    +0.000 C 
ATOM      6  C   UNL     1       5.890   6.694  16.459  0.00  0.00    +0.000 C 
ENDROOT
BRANCH   1   8
ATOM      7  O   UNL     1       5.846   3.278  16.124  0.00  0.00    +0.000 OA
ATOM      8  C   UNL     1       6.361   4.309  15.700  0.00  0.00    +0.000 C 
ATOM      9  N   UNL     1       6.649   4.506  14.363  0.00  0.00    +0.000 N 
ATOM     10  H   UNL     1       7.208   5.304  14.090  0.00  0.00    +0.000 HD
BRANCH   9  11
ATOM     11  C   UNL     1       6.393   3.503  13.374  0.00  0.00    +0.000 C 
ATOM     12  C   UNL     1       5.334   3.682  12.320  0.00  0.00    +0.000 C 
ATOM     13  C   UNL     1       6.783   3.751  11.942  0.00  0.00    +0.000 C 
ENDBRANCH   9  11
ENDBRANCH   1   8
BRANCH   4  14
ATOM     14  S   UNL     1       2.870   5.693  19.001  0.00  0.00    +0.000 S 
ATOM     15  O   UNL     1       2.145   5.008  17.946  0.00  0.00    +0.000 OA
ATOM     16  O   UNL     1       2.968   5.114  20.322  0.00  0.00    +0.000 OA
BRANCH  14  17
ATOM     17  C   UNL     1       2.139   7.315  19.152  0.00  0.00    +0.000 A 
ATOM     18  C   UNL     1       1.696   7.764  20.402  0.00  0.00    +0.000 A 
ATOM     19  C   UNL     1       1.157   9.050  20.524  0.00  0.00    +0.000 A 
ATOM     20  C   UNL     1       1.091   9.889  19.410  0.00  0.00    +0.000 A 
ATOM     21 CL   UNL     1       0.431  11.472  19.569  0.00  0.00    +0.000 Cl
ATOM     22  C   UNL     1       1.566   9.455  18.174  0.00  0.00    +0.000 A 
ATOM     23  C   UNL     1       2.084   8.165  18.039  0.00  0.00    +0.000 A 
ENDBRANCH  14  17
ENDBRANCH   4  14
TORSDOF 4
ENDMDL
MODEL 4
REMARK VINA RESULT:      -6.6      3.535      5.028
REMARK  Name = 
REMARK  4 active torsions:
REMARK  status: ('A' for Active; 'I' for Inactive)
REMARK    1  A    between atoms: C_2  and  C_7
REMARK    2  A    between atoms: N_3  and  C_4
REMARK    3  A    between atoms: N_10  and  S_11
REMARK    4  A    between atoms: S_11  and  C_14
REMARK                            x       y       z     vdW  Elec       q    Type
REMARK                         _______ _______ _______ _____ _____    ______ ____
ROOT
ATOM      1  C   UNL     1       8.008   5.974  18.324  0.00  0.00    +0.000 C 
ATOM      2  C   UNL     1       7.665   5.032  17.166  0.00  0.00    +0.000 C 
ATOM      3  C   UNL     1       6.173   5.039  16.845  0.00  0.00    +0.000 C 
ATOM      4  N   UNL     1       5.355   4.684  18.045  0.00  0.00    +0.000 NA
ATOM      5  C   UNL     1       5.672   5.548  19.232  0.00  0.00    +0.000 C 
ATOM      6  C   UNL     1       7.170   5.579  19.540  0.00  0.00    +0.000 C 
ENDROOT
BRANCH   1   8
ATOM      7  O   UNL     1       7.116   7.803  17.001  0.00  0.00    +0.000 OA
ATOM      8  C   UNL     1       7.824   7.448  17.939  0.00  0.00    +0.000 C 
ATOM      9  N   UNL     1       8.553   8.338  18.704  0.00  0.00    +0.000 N 
ATOM     10  H   UNL     1       9.234   7.981  19.363  0.00  0.00    +0.000 HD
BRANCH   9  11
ATOM     11  C   UNL     1       8.559   9.744  18.438  0.00  0.00    +0.000 C 
ATOM     12  C   UNL     1       9.104  10.736  19.429  0.00  0.00    +0.000 C 
ATOM     13  C   UNL     1       9.861  10.447  18.169  0.00  0.00    +0.000 C 
ENDBRANCH   9  11
ENDBRANCH   1   8
BRANCH   4  14
ATOM     14  S   UNL     1       3.645   4.714  17.692  0.00  0.00    +0.000 S 
ATOM     15  O   UNL     1       3.234   6.104  17.613  0.00  0.00    +0.000 OA
ATOM     16  O   UNL     1       3.408   3.811  16.588  0.00  0.00    +0.000 OA
BRANCH  14  17
ATOM     17  C   UNL     1       2.868   4.035  19.149  0.00  0.00    +0.000 A 
ATOM     18  C   UNL     1       1.623   4.523  19.564  0.00  0.00    +0.000 A 
ATOM     19  C   UNL     1       0.999   3.965  20.685  0.00  0.00    +0.000 A 
ATOM     20  C   UNL     1       1.602   2.906  21.367  0.00  0.00    +0.000 A 
ATOM     21 CL   UNL     1       0.826   2.220  22.743  0.00  0.00    +0.000 Cl
ATOM     22  C   UNL     1       2.824   2.396  20.932  0.00  0.00    +0.000 A 
ATOM     23  C   UNL     1       3.464   2.963  19.827  0.00  0.00    +0.000 A 
ENDBRANCH  14  17
ENDBRANCH   4  14
TORSDOF 4
ENDMDL
MODEL 5
REMARK VINA RESULT:      -6.6      3.785      6.637
REMARK  Name = 
REMARK  4 active torsions:
REMARK  status: ('A' for Active; 'I' for Inactive)
REMARK    1  A    between atoms: C_2  and  C_7
REMARK    2  A    between atoms: N_3  and  C_4
REMARK    3  A    between atoms: N_10  and  S_11
REMARK    4  A    between atoms: S_11  and  C_14
REMARK                            x       y       z     vdW  Elec       q    Type
REMARK                         _______ _______ _______ _____ _____    ______ ____
ROOT
ATOM      1  C   UNL     1       2.667   6.138  18.557  0.00  0.00    +0.000 C 
ATOM      2  C   UNL     1       3.220   7.104  17.503  0.00  0.00    +0.000 C 
ATOM      3  C   UNL     1       4.557   6.630  16.940  0.00  0.00    +0.000 C 
ATOM      4  N   UNL     1       5.567   6.432  18.024  0.00  0.00    +0.000 NA
ATOM      5  C   UNL     1       5.070   5.524  19.112  0.00  0.00    +0.000 C 
ATOM      6  C   UNL     1       3.712   5.967  19.659  0.00  0.00    +0.000 C 
ENDROOT
BRANCH   1   8
ATOM      7  O   UNL     1       1.229   4.681  17.253  0.00  0.00    +0.000 OA
ATOM      8  C   UNL     1       2.239   4.800  17.942  0.00  0.00    +0.000 C 
ATOM      9  N   UNL     1       3.055   3.733  18.261  0.00  0.00    +0.000 N 
ATOM     10  H   UNL     1       3.784   3.857  18.952  0.00  0.00    +0.000 HD
BRANCH   9  11
ATOM     11  C   UNL     1       2.765   2.398  17.834  0.00  0.00    +0.000 C 
ATOM     12  C   UNL     1       3.578   1.222  18.301  0.00  0.00    +0.000 C 
ATOM     13  C   UNL     1       2.181   1.412  18.809  0.00  0.00    +0.000 C 
ENDBRANCH   9  11
ENDBRANCH   1   8
BRANCH   4  14
ATOM     14  S   UNL     1       7.092   5.867  17.390  0.00  0.00    +0.000 S 
ATOM     15  O   UNL     1       7.884   7.031  17.038  0.00  0.00    +0.000 OA
ATOM     16  O   UNL     1       7.609   4.874  18.305  0.00  0.00    +0.000 OA
BRANCH  14  17
ATOM     17  C   UNL     1       6.673   5.053  15.857  0.00  0.00    +0.000 A 
ATOM     18  C   UNL     1       7.317   5.430  14.671  0.00  0.00    +0.000 A 
ATOM     19  C   UNL     1       7.013   4.766  13.478  0.00  0.00    +0.000 A 
ATOM     20  C   UNL     1       6.096   3.713  13.476  0.00  0.00    +0.000 A 
ATOM     21 CL   UNL     1       5.731   2.897  12.004  0.00  0.00    +0.000 Cl
ATOM     22  C   UNL     1       5.483   3.314  14.663  0.00  0.00    +0.000 A 
ATOM     23  C   UNL     1       5.763   3.986  15.854  0.00  0.00    +0.000 A 
ENDBRANCH  14  17
ENDBRANCH   4  14
TORSDOF 4
ENDMDL
MODEL 6
REMARK VINA RESULT:      -6.6      2.197      3.609
REMARK  Name = 
REMARK  4 active torsions:
REMARK  status: ('A' for Active; 'I' for Inactive)
REMARK    1  A    between atoms: C_2  and  C_7
REMARK    2  A    between atoms: N_3  and  C_4
REMARK    3  A    between atoms: N_10  and  S_11
REMARK    4  A    between atoms: S_11  and  C_14
REMARK                            x       y       z     vdW  Elec       q    Type
REMARK                         _______ _______ _______ _____ _____    ______ ____
ROOT
ATOM      1  C   UNL     1       7.725   5.766  17.961  0.00  0.00    +0.000 C 
ATOM      2  C   UNL     1       7.141   4.827  16.900  0.00  0.00    +0.000 C 
ATOM      3  C   UNL     1       5.616   4.783  16.954  0.00  0.00    +0.000 C 
ATOM      4  N   UNL     1       5.129   4.380  18.309  0.00  0.00    +0.000 NA
ATOM      5  C   UNL     1       5.698   5.239  19.401  0.00  0.00    +0.000 C 
ATOM      6  C   UNL     1       7.224   5.322  19.335  0.00  0.00    +0.000 C 
ENDROOT
BRANCH   1   8
ATOM      7  O   UNL     1       6.500   7.577  16.907  0.00  0.00    +0.000 OA
ATOM      8  C   UNL     1       7.404   7.237  17.666  0.00  0.00    +0.000 C 
ATOM      9  N   UNL     1       8.240   8.144  18.286  0.00  0.00    +0.000 N 
ATOM     10  H   UNL     1       9.059   7.807  18.777  0.00  0.00    +0.000 HD
BRANCH   9  11
ATOM     11  C   UNL     1       8.132   9.554  18.065  0.00  0.00    +0.000 C 
ATOM     12  C   UNL     1       8.637  10.555  19.068  0.00  0.00    +0.000 C 
ATOM     13  C   UNL     1       9.367  10.362  17.774  0.00  0.00    +0.000 C 
ENDBRANCH   9  11
ENDBRANCH   1   8
BRANCH   4  14
ATOM     14  S   UNL     1       3.385   4.350  18.385  0.00  0.00    +0.000 S 
ATOM     15  O   UNL     1       2.894   3.919  17.089  0.00  0.00    +0.000 OA
ATOM     16  O   UNL     1       3.009   3.642  19.588  0.00  0.00    +0.000 OA
BRANCH  14  17
ATOM     17  C   UNL     1       2.908   6.061  18.568  0.00  0.00    +0.000 A 
ATOM     18  C   UNL     1       3.047   6.941  17.488  0.00  0.00    +0.000 A 
ATOM     19  C   UNL     1       2.638   8.272  17.623  0.00  0.00    +0.000 A 
ATOM     20  C   UNL     1       2.067   8.711  18.819  0.00  0.00    +0.000 A 
ATOM     21 CL   UNL     1       1.562  10.350  18.976  0.00  0.00    +0.000 Cl
ATOM     22  C   UNL     1       1.896   7.826  19.882  0.00  0.00    +0.000 A 
ATOM     23  C   UNL     1       2.322   6.501  19.763  0.00  0.00    +0.000 A 
ENDBRANCH  14  17
ENDBRANCH   4  14
TORSDOF 4
ENDMDL
MODEL 7
REMARK VINA RESULT:      -6.6      3.766      6.668
REMARK  Name = 
REMARK  4 active torsions:
REMARK  status: ('A' for Active; 'I' for Inactive)
REMARK    1  A    between atoms: C_2  and  C_7
REMARK    2  A    between atoms: N_3  and  C_4
REMARK    3  A    between atoms: N_10  and  S_11
REMARK    4  A    between atoms: S_11  and  C_14
REMARK                            x       y       z     vdW  Elec       q    Type
REMARK                         _______ _______ _______ _____ _____    ______ ____
ROOT
ATOM      1  C   UNL     1       2.652   6.119  18.524  0.00  0.00    +0.000 C 
ATOM      2  C   UNL     1       3.222   7.065  17.461  0.00  0.00    +0.000 C 
ATOM      3  C   UNL     1       4.573   6.587  16.935  0.00  0.00    +0.000 C 
ATOM      4  N   UNL     1       5.561   6.418  18.044  0.00  0.00    +0.000 NA
ATOM      5  C   UNL     1       5.047   5.531  19.141  0.00  0.00    +0.000 C 
ATOM      6  C   UNL     1       3.676   5.978  19.650  0.00  0.00    +0.000 C 
ENDROOT
BRANCH   1   8
ATOM      7  O   UNL     1       1.229   4.618  17.253  0.00  0.00    +0.000 OA
ATOM      8  C   UNL     1       2.244   4.765  17.928  0.00  0.00    +0.000 C 
ATOM      9  N   UNL     1       3.086   3.719  18.250  0.00  0.00    +0.000 N 
ATOM     10  H   UNL     1       3.820   3.865  18.931  0.00  0.00    +0.000 HD
BRANCH   9  11
ATOM     11  C   UNL     1       2.818   2.373  17.841  0.00  0.00    +0.000 C 
ATOM     12  C   UNL     1       3.610   1.210  18.374  0.00  0.00    +0.000 C 
ATOM     13  C   UNL     1       2.190   1.409  18.811  0.00  0.00    +0.000 C 
ENDBRANCH   9  11
ENDBRANCH   1   8
BRANCH   4  14
ATOM     14  S   UNL     1       7.102   5.849  17.453  0.00  0.00    +0.000 S 
ATOM     15  O   UNL     1       7.897   7.011  17.099  0.00  0.00    +0.000 OA
ATOM     16  O   UNL     1       7.602   4.874  18.396  0.00  0.00    +0.000 OA
BRANCH  14  17
ATOM     17  C   UNL     1       6.721   5.007  15.925  0.00  0.00    +0.000 A 
ATOM     18  C   UNL     1       5.750   3.999  15.911  0.00  0.00    +0.000 A 
ATOM     19  C   UNL     1       5.427   3.366  14.705  0.00  0.00    +0.000 A 
ATOM     20  C   UNL     1       6.049   3.761  13.519  0.00  0.00    +0.000 A 
ATOM     21 CL   UNL     1       5.643   2.981  12.038  0.00  0.00    +0.000 Cl
ATOM     22  C   UNL     1       6.989   4.790  13.528  0.00  0.00    +0.000 A 
ATOM     23  C   UNL     1       7.333   5.411  14.730  0.00  0.00    +0.000 A 
ENDBRANCH  14  17
ENDBRANCH   4  14
TORSDOF 4
ENDMDL
MODEL 8
REMARK VINA RESULT:      -6.5      2.336      3.880
REMARK  Name = 
REMARK  4 active torsions:
REMARK  status: ('A' for Active; 'I' for Inactive)
REMARK    1  A    between atoms: C_2  and  C_7
REMARK    2  A    between atoms: N_3  and  C_4
REMARK    3  A    between atoms: N_10  and  S_11
REMARK    4  A    between atoms: S_11  and  C_14
REMARK                            x       y       z     vdW  Elec       q    Type
REMARK                         _______ _______ _______ _____ _____    ______ ____
ROOT
ATOM      1  C   UNL     1       7.983   5.737  18.518  0.00  0.00    +0.000 C 
ATOM      2  C   UNL     1       7.761   4.656  17.455  0.00  0.00    +0.000 C 
ATOM      3  C   UNL     1       6.285   4.506  17.093  0.00  0.00    +0.000 C 
ATOM      4  N   UNL     1       5.454   4.207  18.299  0.00  0.00    +0.000 NA
ATOM      5  C   UNL     1       5.657   5.211  19.397  0.00  0.00    +0.000 C 
ATOM      6  C   UNL     1       7.135   5.399  19.744  0.00  0.00    +0.000 C 
ENDROOT
BRANCH   1   8
ATOM      7  O   UNL     1       6.915   7.349  17.051  0.00  0.00    +0.000 OA
ATOM      8  C   UNL     1       7.696   7.143  17.975  0.00  0.00    +0.000 C 
ATOM      9  N   UNL     1       8.420   8.152  18.581  0.00  0.00    +0.000 N 
ATOM     10  H   UNL     1       9.157   7.911  19.230  0.00  0.00    +0.000 HD
BRANCH   9  11
ATOM     11  C   UNL     1       8.332   9.514  18.151  0.00  0.00    +0.000 C 
ATOM     12  C   UNL     1       8.707  10.656  19.056  0.00  0.00    +0.000 C 
ATOM     13  C   UNL     1       9.591  10.300  17.899  0.00  0.00    +0.000 C 
ENDBRANCH   9  11
ENDBRANCH   1   8
BRANCH   4  14
ATOM     14  S   UNL     1       3.762   4.058  17.896  0.00  0.00    +0.000 S 
ATOM     15  O   UNL     1       3.636   4.209  16.458  0.00  0.00    +0.000 OA
ATOM     16  O   UNL     1       3.254   2.878  18.561  0.00  0.00    +0.000 OA
BRANCH  14  17
ATOM     17  C   UNL     1       2.991   5.491  18.629  0.00  0.00    +0.000 A 
ATOM     18  C   UNL     1       2.423   5.398  19.906  0.00  0.00    +0.000 A 
ATOM     19  C   UNL     1       1.851   6.532  20.494  0.00  0.00    +0.000 A 
ATOM     20  C   UNL     1       1.875   7.756  19.822  0.00  0.00    +0.000 A 
ATOM     21 CL   UNL     1       1.174   9.148  20.553  0.00  0.00    +0.000 Cl
ATOM     22  C   UNL     1       2.473   7.856  18.567  0.00  0.00    +0.000 A 
ATOM     23  C   UNL     1       3.026   6.724  17.964  0.00  0.00    +0.000 A 
ENDBRANCH  14  17
ENDBRANCH   4  14
TORSDOF 4
ENDMDL
MODEL 9
REMARK VINA RESULT:      -6.5      3.501      7.577
REMARK  Name = 
REMARK  4 active torsions:
REMARK  status: ('A' for Active; 'I' for Inactive)
REMARK    1  A    between atoms: C_2  and  C_7
REMARK    2  A    between atoms: N_3  and  C_4
REMARK    3  A    between atoms: N_10  and  S_11
REMARK    4  A    between atoms: S_11  and  C_14
REMARK                            x       y       z     vdW  Elec       q    Type
REMARK                         _______ _______ _______ _____ _____    ______ ____
ROOT
ATOM      1  C   UNL     1       2.050   5.465  19.428  0.00  0.00    +0.000 C 
ATOM      2  C   UNL     1       3.138   4.730  20.218  0.00  0.00    +0.000 C 
ATOM      3  C   UNL     1       4.540   5.124  19.762  0.00  0.00    +0.000 C 
ATOM      4  N   UNL     1       4.726   4.881  18.298  0.00  0.00    +0.000 NA
ATOM      5  C   UNL     1       3.666   5.543  17.467  0.00  0.00    +0.000 C 
ATOM      6  C   UNL     1       2.255   5.186  17.939  0.00  0.00    +0.000 C 
ENDROOT
BRANCH   1   8
ATOM      7  O   UNL     1       2.486   7.811  18.986  0.00  0.00    +0.000 OA
ATOM      8  C   UNL     1       2.023   6.965  19.746  0.00  0.00    +0.000 C 
ATOM      9  N   UNL     1       1.477   7.283  20.975  0.00  0.00    +0.000 N 
ATOM     10  H   UNL     1       1.250   6.539  21.623  0.00  0.00    +0.000 HD
BRANCH   9  11
ATOM     11  C   UNL     1       1.439   8.627  21.466  0.00  0.00    +0.000 C 
ATOM     12  C   UNL     1       0.362   9.592  21.050  0.00  0.00    +0.000 C 
ATOM     13  C   UNL     1       0.368   9.035  22.441  0.00  0.00    +0.000 C 
ENDBRANCH   9  11
ENDBRANCH   1   8
BRANCH   4  14
ATOM     14  S   UNL     1       6.320   5.352  17.764  0.00  0.00    +0.000 S 
ATOM     15  O   UNL     1       6.362   6.802  17.721  0.00  0.00    +0.000 OA
ATOM     16  O   UNL     1       7.284   4.610  18.546  0.00  0.00    +0.000 OA
BRANCH  14  17
ATOM     17  C   UNL     1       6.418   4.789  16.073  0.00  0.00    +0.000 A 
ATOM     18  C   UNL     1       5.512   3.829  15.606  0.00  0.00    +0.000 A 
ATOM     19  C   UNL     1       5.568   3.415  14.270  0.00  0.00    +0.000 A 
ATOM     20  C   UNL     1       6.503   3.981  13.401  0.00  0.00    +0.000 A 
ATOM     21 CL   UNL     1       6.563   3.471  11.757  0.00  0.00    +0.000 Cl
ATOM     22  C   UNL     1       7.381   4.963  13.857  0.00  0.00    +0.000 A 
ATOM     23  C   UNL     1       7.347   5.364  15.194  0.00  0.00    +0.000 A 
ENDBRANCH  14  17
ENDBRANCH   4  14
TORSDOF 4
ENDMDL
