MODEL 1
REMARK VINA RESULT:      -7.5      0.000      0.000
REMARK  Name = 
REMARK  9 active torsions:
REMARK  status: ('A' for Active; 'I' for Inactive)
REMARK    1  A    between atoms: C_3  and  C_4
REMARK    2  A    between atoms: C_4  and  C_5
REMARK    3  A    between atoms: C_5  and  C_6
REMARK    4  A    between atoms: C_12  and  O_13
REMARK    5  A    between atoms: N_16  and  C1*_17
REMARK    6  A    between atoms: C4*_19  and  C5*_20
REMARK    7  A    between atoms: C5*_20  and  O5*_21
REMARK    8  A    between atoms: C3*_22  and  O3*_23
REMARK    9  A    between atoms: C2*_24  and  O2*_25
REMARK                            x       y       z     vdW  Elec       q    Type
REMARK                         _______ _______ _______ _____ _____    ______ ____
ROOT
ATOM      1  O   UNL     1       5.319   2.973  16.007  0.00  0.00    +0.000 OA
ATOM      2  C   UNL     1       5.445   4.061  16.561  0.00  0.00    +0.000 A 
ATOM      3  C   UNL     1       6.528   4.996  16.100  0.00  0.00    +0.000 A 
ATOM      4  C   UNL     1       6.727   6.118  16.817  0.00  0.00    +0.000 A 
ATOM      5  C   UNL     1       5.876   6.460  17.925  0.00  0.00    +0.000 A 
ATOM      6  C   UNL     1       4.842   5.679  18.253  0.00  0.00    +0.000 A 
ATOM      7  N   UNL     1       4.607   4.493  17.580  0.00  0.00    +0.000 N 
ENDROOT
BRANCH   7   8
ATOM      8  C1* UNL     1       3.428   3.700  17.917  0.00  0.00    +0.000 C 
ATOM      9  O4* UNL     1       2.432   4.527  18.553  0.00  0.00    +0.000 OA
ATOM     10  C4* UNL     1       1.831   3.773  19.639  0.00  0.00    +0.000 C 
ATOM     11  C3* UNL     1       2.333   2.339  19.507  0.00  0.00    +0.000 C 
ATOM     12  C2* UNL     1       3.693   2.503  18.845  0.00  0.00    +0.000 C 
BRANCH  11  13
ATOM     13  O3* UNL     1       1.502   1.567  18.614  0.00  0.00    +0.000 OA
ATOM     14  H3* UNL     1       1.753   0.627  18.688  0.00  0.00    +0.000 HD
ENDBRANCH  11  13
BRANCH  12  15
ATOM     15  O2* UNL     1       4.072   1.323  18.133  0.00  0.00    +0.000 OA
ATOM     16  H2* UNL     1       3.248   0.803  18.022  0.00  0.00    +0.000 HD
ENDBRANCH  12  15
BRANCH  10  17
ATOM     17  C5* UNL     1       2.182   4.403  20.990  0.00  0.00    +0.000 C 
BRANCH  17  18
ATOM     18  O5* UNL     1       2.144   3.408  22.011  0.00  0.00    +0.000 OA
ATOM     19  H5* UNL     1       2.416   2.579  21.570  0.00  0.00    +0.000 HD
ENDBRANCH  17  18
ENDBRANCH  10  17
ENDBRANCH   7   8
BRANCH   4  20
ATOM     20  O   UNL     1       7.694   7.063  16.577  0.00  0.00    +0.000 OA
ATOM     21  H   UNL     1       7.284   7.867  16.221  0.00  0.00    +0.000 HD
ENDBRANCH   4  20
BRANCH   3  22
ATOM     22  C   UNL     1       7.265   4.556  14.853  0.00  0.00    +0.000 C 
BRANCH  22  23
ATOM     23  C   UNL     1       6.509   4.946  13.570  0.00  0.00    +0.000 C 
BRANCH  23  24
ATOM     24  C   UNL     1       6.340   3.797  12.608  0.00  0.00    +0.000 A 
ATOM     25  C   UNL     1       7.458   3.163  12.047  0.00  0.00    +0.000 A 
ATOM     26  C   UNL     1       7.295   2.077  11.186  0.00  0.00    +0.000 A 
ATOM     27  C   UNL     1       6.016   1.621  10.873  0.00  0.00    +0.000 A 
ATOM     28  C   UNL     1       4.900   2.249  11.422  0.00  0.00    +0.000 A 
ATOM     29  C   UNL     1       5.059   3.334  12.284  0.00  0.00    +0.000 A 
ENDBRANCH  23  24
ENDBRANCH  22  23
ENDBRANCH   3  22
TORSDOF 9
ENDMDL
MODEL 2
REMARK VINA RESULT:      -7.4      0.601      1.138
REMARK  Name = 
REMARK  9 active torsions:
REMARK  status: ('A' for Active; 'I' for Inactive)
REMARK    1  A    between atoms: C_3  and  C_4
REMARK    2  A    between atoms: C_4  and  C_5
REMARK    3  A    between atoms: C_5  and  C_6
REMARK    4  A    between atoms: C_12  and  O_13
REMARK    5  A    between atoms: N_16  and  C1*_17
REMARK    6  A    between atoms: C4*_19  and  C5*_20
REMARK    7  A    between atoms: C5*_20  and  O5*_21
REMARK    8  A    between atoms: C3*_22  and  O3*_23
REMARK    9  A    between atoms: C2*_24  and  O2*_25
REMARK                            x       y       z     vdW  Elec       q    Type
REMARK                         _______ _______ _______ _____ _____    ______ ____
ROOT
ATOM      1  O   UNL     1       5.299   3.027  15.934  0.00  0.00    +0.000 OA
ATOM      2  C   UNL     1       5.425   4.113  16.492  0.00  0.00    +0.000 A 
ATOM      3  C   UNL     1       6.526   5.037  16.053  0.00  0.00    +0.000 A 
ATOM      4  C   UNL     1       6.723   6.156  16.776  0.00  0.00    +0.000 A 
ATOM      5  C   UNL     1       5.854   6.506  17.868  0.00  0.00    +0.000 A 
ATOM      6  C   UNL     1       4.807   5.735  18.175  0.00  0.00    +0.000 A 
ATOM      7  N   UNL     1       4.573   4.552  17.496  0.00  0.00    +0.000 N 
ENDROOT
BRANCH   7   8
ATOM      8  C1* UNL     1       3.379   3.770  17.809  0.00  0.00    +0.000 C 
ATOM      9  O4* UNL     1       2.355   4.619  18.366  0.00  0.00    +0.000 OA
ATOM     10  C4* UNL     1       1.705   3.907  19.452  0.00  0.00    +0.000 C 
ATOM     11  C3* UNL     1       2.213   2.470  19.399  0.00  0.00    +0.000 C 
ATOM     12  C2* UNL     1       3.602   2.611  18.794  0.00  0.00    +0.000 C 
BRANCH  11  13
ATOM     13  O3* UNL     1       1.424   1.662  18.500  0.00  0.00    +0.000 OA
ATOM     14  H3* UNL     1       0.524   1.574  18.867  0.00  0.00    +0.000 HD
ENDBRANCH  11  13
BRANCH  12  15
ATOM     15  O2* UNL     1       4.014   1.405  18.148  0.00  0.00    +0.000 OA
ATOM     16  H2* UNL     1       3.697   0.674  18.720  0.00  0.00    +0.000 HD
ENDBRANCH  12  15
BRANCH  10  17
ATOM     17  C5* UNL     1       1.993   4.591  20.792  0.00  0.00    +0.000 C 
BRANCH  17  18
ATOM     18  O5* UNL     1       2.316   5.963  20.573  0.00  0.00    +0.000 OA
ATOM     19  H5* UNL     1       1.465   6.440  20.641  0.00  0.00    +0.000 HD
ENDBRANCH  17  18
ENDBRANCH  10  17
ENDBRANCH   7   8
BRANCH   4  20
ATOM     20  O   UNL     1       7.703   7.092  16.556  0.00  0.00    +0.000 OA
ATOM     21  H   UNL     1       8.481   6.666  16.162  0.00  0.00    +0.000 HD
ENDBRANCH   4  20
BRANCH   3  22
ATOM     22  C   UNL     1       7.282   4.592  14.819  0.00  0.00    +0.000 C 
BRANCH  22  23
ATOM     23  C   UNL     1       6.528   4.944  13.525  0.00  0.00    +0.000 C 
BRANCH  23  24
ATOM     24  C   UNL     1       6.340   3.762  12.607  0.00  0.00    +0.000 A 
ATOM     25  C   UNL     1       5.055   3.313  12.271  0.00  0.00    +0.000 A 
ATOM     26  C   UNL     1       4.888   2.241  11.392  0.00  0.00    +0.000 A 
ATOM     27  C   UNL     1       6.003   1.606  10.849  0.00  0.00    +0.000 A 
ATOM     28  C   UNL     1       7.284   2.042  11.182  0.00  0.00    +0.000 A 
ATOM     29  C   UNL     1       7.454   3.113  12.058  0.00  0.00    +0.000 A 
ENDBRANCH  23  24
ENDBRANCH  22  23
ENDBRANCH   3  22
TORSDOF 9
ENDMDL
MODEL 3
REMARK VINA RESULT:      -7.2      2.988      6.077
REMARK  Name = 
REMARK  9 active torsions:
REMARK  status: ('A' for Active; 'I' for Inactive)
REMARK    1  A    between atoms: C_3  and  C_4
REMARK    2  A    between atoms: C_4  and  C_5
REMARK    3  A    between atoms: C_5  and  C_6
REMARK    4  A    between atoms: C_12  and  O_13
REMARK    5  A    between atoms: N_16  and  C1*_17
REMARK    6  A    between atoms: C4*_19  and  C5*_20
REMARK    7  A    between atoms: C5*_20  and  O5*_21
REMARK    8  A    between atoms: C3*_22  and  O3*_23
REMARK    9  A    between atoms: C2*_24  and  O2*_25
REMARK                            x       y       z     vdW  Elec       q    Type
REMARK                         _______ _______ _______ _____ _____    ______ ____
ROOT
ATOM      1  O   UNL     1       5.883   6.069  19.634  0.00  0.00    +0.000 OA
ATOM      2  C   UNL     1       5.938   5.482  18.557  0.00  0.00    +0.000 A 
ATOM      3  C   UNL     1       6.919   5.951  17.519  0.00  0.00    +0.000 A 
ATOM      4  C   UNL     1       6.858   5.377  16.303  0.00  0.00    +0.000 A 
ATOM      5  C   UNL     1       5.954   4.291  16.030  0.00  0.00    +0.000 A 
ATOM      6  C   UNL     1       5.169   3.805  16.996  0.00  0.00    +0.000 A 
ATOM      7  N   UNL     1       5.156   4.376  18.256  0.00  0.00    +0.000 N 
ENDROOT
BRANCH   7   8
ATOM      8  C1* UNL     1       4.339   3.775  19.307  0.00  0.00    +0.000 C 
ATOM      9  O4* UNL     1       4.029   2.404  18.980  0.00  0.00    +0.000 OA
ATOM     10  C4* UNL     1       2.649   2.143  19.348  0.00  0.00    +0.000 C 
ATOM     11  C3* UNL     1       2.171   3.352  20.145  0.00  0.00    +0.000 C 
ATOM     12  C2* UNL     1       3.009   4.493  19.586  0.00  0.00    +0.000 C 
BRANCH  11  13
ATOM     13  O3* UNL     1       2.489   3.222  21.547  0.00  0.00    +0.000 OA
ATOM     14  H3* UNL     1       2.617   2.277  21.752  0.00  0.00    +0.000 HD
ENDBRANCH  11  13
BRANCH  12  15
ATOM     15  O2* UNL     1       3.140   5.555  20.534  0.00  0.00    +0.000 OA
ATOM     16  H2* UNL     1       4.077   5.843  20.483  0.00  0.00    +0.000 HD
ENDBRANCH  12  15
BRANCH  10  17
ATOM     17  C5* UNL     1       1.800   1.879  18.100  0.00  0.00    +0.000 C 
BRANCH  17  18
ATOM     18  O5* UNL     1       0.416   1.949  18.436  0.00  0.00    +0.000 OA
ATOM     19  H5* UNL     1       0.391   2.280  19.356  0.00  0.00    +0.000 HD
ENDBRANCH  17  18
ENDBRANCH  10  17
ENDBRANCH   7   8
BRANCH   4  20
ATOM     20  O   UNL     1       7.637   5.703  15.221  0.00  0.00    +0.000 OA
ATOM     21  H   UNL     1       7.171   6.346  14.662  0.00  0.00    +0.000 HD
ENDBRANCH   4  20
BRANCH   3  22
ATOM     22  C   UNL     1       7.883   7.021  17.986  0.00  0.00    +0.000 C 
BRANCH  22  23
ATOM     23  C   UNL     1       7.521   8.407  17.422  0.00  0.00    +0.000 C 
BRANCH  23  24
ATOM     24  C   UNL     1       8.286   9.531  18.075  0.00  0.00    +0.000 A 
ATOM     25  C   UNL     1       9.008   9.313  19.258  0.00  0.00    +0.000 A 
ATOM     26  C   UNL     1       9.743  10.349  19.837  0.00  0.00    +0.000 A 
ATOM     27  C   UNL     1       9.758  11.610  19.244  0.00  0.00    +0.000 A 
ATOM     28  C   UNL     1       9.039  11.835  18.071  0.00  0.00    +0.000 A 
ATOM     29  C   UNL     1       8.304  10.803  17.490  0.00  0.00    +0.000 A 
ENDBRANCH  23  24
ENDBRANCH  22  23
ENDBRANCH   3  22
TORSDOF 9
ENDMDL
MODEL 4
REMARK VINA RESULT:      -7.2      3.388      8.174
REMARK  Name = 
REMARK  9 active torsions:
REMARK  status: ('A' for Active; 'I' for Inactive)
REMARK    1  A    between atoms: C_3  and  C_4
REMARK    2  A    between atoms: C_4  and  C_5
REMARK    3  A    between atoms: C_5  and  C_6
REMARK    4  A    between atoms: C_12  and  O_13
REMARK    5  A    between atoms: N_16  and  C1*_17
REMARK    6  A    between atoms: C4*_19  and  C5*_20
REMARK    7  A    between atoms: C5*_20  and  O5*_21
REMARK    8  A    between atoms: C3*_22  and  O3*_23
REMARK    9  A    between atoms: C2*_24  and  O2*_25
REMARK                            x       y       z     vdW  Elec       q    Type
REMARK                         _______ _______ _______ _____ _____    ______ ____
ROOT
ATOM      1  O   UNL     1       4.576   5.929  19.553  0.00  0.00    +0.000 OA
ATOM      2  C   UNL     1       3.808   5.039  19.198  0.00  0.00    +0.000 A 
ATOM      3  C   UNL     1       2.424   4.990  19.783  0.00  0.00    +0.000 A 
ATOM      4  C   UNL     1       1.658   3.926  19.479  0.00  0.00    +0.000 A 
ATOM      5  C   UNL     1       2.107   2.920  18.553  0.00  0.00    +0.000 A 
ATOM      6  C   UNL     1       3.293   3.035  17.948  0.00  0.00    +0.000 A 
ATOM      7  N   UNL     1       4.143   4.084  18.248  0.00  0.00    +0.000 N 
ENDROOT
BRANCH   7   8
ATOM      8  C1* UNL     1       5.401   4.219  17.516  0.00  0.00    +0.000 C 
ATOM      9  O4* UNL     1       6.521   4.038  18.407  0.00  0.00    +0.000 OA
ATOM     10  C4* UNL     1       7.546   5.007  18.061  0.00  0.00    +0.000 C 
ATOM     11  C3* UNL     1       7.112   5.654  16.750  0.00  0.00    +0.000 C 
ATOM     12  C2* UNL     1       5.595   5.565  16.800  0.00  0.00    +0.000 C 
BRANCH  11  13
ATOM     13  O3* UNL     1       7.559   4.890  15.609  0.00  0.00    +0.000 OA
ATOM     14  H3* UNL     1       6.957   4.132  15.486  0.00  0.00    +0.000 HD
ENDBRANCH  11  13
BRANCH  12  15
ATOM     15  O2* UNL     1       5.028   5.582  15.487  0.00  0.00    +0.000 OA
ATOM     16  H2* UNL     1       4.566   4.723  15.386  0.00  0.00    +0.000 HD
ENDBRANCH  12  15
BRANCH  10  17
ATOM     17  C5* UNL     1       7.731   6.022  19.193  0.00  0.00    +0.000 C 
BRANCH  17  18
ATOM     18  O5* UNL     1       7.984   5.338  20.418  0.00  0.00    +0.000 OA
ATOM     19  H5* UNL     1       7.267   4.677  20.495  0.00  0.00    +0.000 HD
ENDBRANCH  17  18
ENDBRANCH  10  17
ENDBRANCH   7   8
BRANCH   4  20
ATOM     20  O   UNL     1       0.392   3.686  19.952  0.00  0.00    +0.000 OA
ATOM     21  H   UNL     1      -0.227   3.616  19.208  0.00  0.00    +0.000 HD
ENDBRANCH   4  20
BRANCH   3  22
ATOM     22  C   UNL     1       2.052   6.176  20.648  0.00  0.00    +0.000 C 
BRANCH  22  23
ATOM     23  C   UNL     1       1.955   7.476  19.830  0.00  0.00    +0.000 C 
BRANCH  23  24
ATOM     24  C   UNL     1       1.200   8.570  20.543  0.00  0.00    +0.000 A 
ATOM     25  C   UNL     1       0.639   9.637  19.825  0.00  0.00    +0.000 A 
ATOM     26  C   UNL     1      -0.090  10.627  20.487  0.00  0.00    +0.000 A 
ATOM     27  C   UNL     1      -0.256  10.563  21.869  0.00  0.00    +0.000 A 
ATOM     28  C   UNL     1       0.303   9.510  22.590  0.00  0.00    +0.000 A 
ATOM     29  C   UNL     1       1.030   8.518  21.931  0.00  0.00    +0.000 A 
ENDBRANCH  23  24
ENDBRANCH  22  23
ENDBRANCH   3  22
TORSDOF 9
ENDMDL
MODEL 5
REMARK VINA RESULT:      -7.2      5.502      7.917
REMARK  Name = 
REMARK  9 active torsions:
REMARK  status: ('A' for Active; 'I' for Inactive)
REMARK    1  A    between atoms: C_3  and  C_4
REMARK    2  A    between atoms: C_4  and  C_5
REMARK    3  A    between atoms: C_5  and  C_6
REMARK    4  A    between atoms: C_12  and  O_13
REMARK    5  A    between atoms: N_16  and  C1*_17
REMARK    6  A    between atoms: C4*_19  and  C5*_20
REMARK    7  A    between atoms: C5*_20  and  O5*_21
REMARK    8  A    between atoms: C3*_22  and  O3*_23
REMARK    9  A    between atoms: C2*_24  and  O2*_25
REMARK                            x       y       z     vdW  Elec       q    Type
REMARK                         _______ _______ _______ _____ _____    ______ ____
ROOT
ATOM      1  O   UNL     1       2.171   8.968  17.386  0.00  0.00    +0.000 OA
ATOM      2  C   UNL     1       1.848   8.665  18.531  0.00  0.00    +0.000 A 
ATOM      3  C   UNL     1       2.441   7.432  19.156  0.00  0.00    +0.000 A 
ATOM      4  C   UNL     1       1.962   7.053  20.356  0.00  0.00    +0.000 A 
ATOM      5  C   UNL     1       0.990   7.847  21.061  0.00  0.00    +0.000 A 
ATOM      6  C   UNL     1       0.558   9.002  20.547  0.00  0.00    +0.000 A 
ATOM      7  N   UNL     1       0.981   9.428  19.301  0.00  0.00    +0.000 N 
ENDROOT
BRANCH   7   8
ATOM      8  C1* UNL     1       0.544  10.729  18.802  0.00  0.00    +0.000 C 
ATOM      9  O4* UNL     1       0.877  11.767  19.747  0.00  0.00    +0.000 OA
ATOM     10  C4* UNL     1      -0.230  12.705  19.810  0.00  0.00    +0.000 C 
ATOM     11  C3* UNL     1      -1.184  12.335  18.678  0.00  0.00    +0.000 C 
ATOM     12  C2* UNL     1      -0.961  10.840  18.507  0.00  0.00    +0.000 C 
BRANCH  11  13
ATOM     13  O3* UNL     1      -0.811  12.978  17.441  0.00  0.00    +0.000 OA
ATOM     14  H3* UNL     1      -0.193  12.397  16.960  0.00  0.00    +0.000 HD
ENDBRANCH  11  13
BRANCH  12  15
ATOM     15  O2* UNL     1      -1.301  10.411  17.186  0.00  0.00    +0.000 OA
ATOM     16  H2* UNL     1      -1.159   9.440  17.177  0.00  0.00    +0.000 HD
ENDBRANCH  12  15
BRANCH  10  17
ATOM     17  C5* UNL     1      -0.897  12.658  21.189  0.00  0.00    +0.000 C 
BRANCH  17  18
ATOM     18  O5* UNL     1       0.013  12.119  22.145  0.00  0.00    +0.000 OA
ATOM     19  H5* UNL     1       0.491  12.891  22.508  0.00  0.00    +0.000 HD
ENDBRANCH  17  18
ENDBRANCH  10  17
ENDBRANCH   7   8
BRANCH   4  20
ATOM     20  O   UNL     1       2.346   5.937  21.057  0.00  0.00    +0.000 OA
ATOM     21  H   UNL     1       3.291   5.993  21.270  0.00  0.00    +0.000 HD
ENDBRANCH   4  20
BRANCH   3  22
ATOM     22  C   UNL     1       3.534   6.767  18.348  0.00  0.00    +0.000 C 
BRANCH  22  23
ATOM     23  C   UNL     1       2.970   5.720  17.370  0.00  0.00    +0.000 C 
BRANCH  23  24
ATOM     24  C   UNL     1       2.668   4.397  18.027  0.00  0.00    +0.000 A 
ATOM     25  C   UNL     1       3.698   3.617  18.573  0.00  0.00    +0.000 A 
ATOM     26  C   UNL     1       3.407   2.410  19.212  0.00  0.00    +0.000 A 
ATOM     27  C   UNL     1       2.088   1.971  19.305  0.00  0.00    +0.000 A 
ATOM     28  C   UNL     1       1.060   2.737  18.760  0.00  0.00    +0.000 A 
ATOM     29  C   UNL     1       1.346   3.943  18.122  0.00  0.00    +0.000 A 
ENDBRANCH  23  24
ENDBRANCH  22  23
ENDBRANCH   3  22
TORSDOF 9
ENDMDL
MODEL 6
REMARK VINA RESULT:      -7.1      5.521      8.227
REMARK  Name = 
REMARK  9 active torsions:
REMARK  status: ('A' for Active; 'I' for Inactive)
REMARK    1  A    between atoms: C_3  and  C_4
REMARK    2  A    between atoms: C_4  and  C_5
REMARK    3  A    between atoms: C_5  and  C_6
REMARK    4  A    between atoms: C_12  and  O_13
REMARK    5  A    between atoms: N_16  and  C1*_17
REMARK    6  A    between atoms: C4*_19  and  C5*_20
REMARK    7  A    between atoms: C5*_20  and  O5*_21
REMARK    8  A    between atoms: C3*_22  and  O3*_23
REMARK    9  A    between atoms: C2*_24  and  O2*_25
REMARK                            x       y       z     vdW  Elec       q    Type
REMARK                         _______ _______ _______ _____ _____    ______ ____
ROOT
ATOM      1  O   UNL     1       1.104   8.198  21.714  0.00  0.00    +0.000 OA
ATOM      2  C   UNL     1       1.404   8.251  20.524  0.00  0.00    +0.000 A 
ATOM      3  C   UNL     1       2.135   7.094  19.902  0.00  0.00    +0.000 A 
ATOM      4  C   UNL     1       2.569   7.242  18.637  0.00  0.00    +0.000 A 
ATOM      5  C   UNL     1       2.264   8.422  17.872  0.00  0.00    +0.000 A 
ATOM      6  C   UNL     1       1.513   9.395  18.398  0.00  0.00    +0.000 A 
ATOM      7  N   UNL     1       1.069   9.321  19.706  0.00  0.00    +0.000 N 
ENDROOT
BRANCH   7   8
ATOM      8  C1* UNL     1       0.192  10.367  20.225  0.00  0.00    +0.000 C 
ATOM      9  O4* UNL     1      -1.115  10.270  19.622  0.00  0.00    +0.000 OA
ATOM     10  C4* UNL     1      -1.591  11.612  19.335  0.00  0.00    +0.000 C 
ATOM     11  C3* UNL     1      -0.617  12.575  20.007  0.00  0.00    +0.000 C 
ATOM     12  C2* UNL     1       0.694  11.803  20.008  0.00  0.00    +0.000 C 
BRANCH  11  13
ATOM     13  O3* UNL     1      -0.981  12.823  21.381  0.00  0.00    +0.000 OA
ATOM     14  H3* UNL     1      -1.941  12.993  21.425  0.00  0.00    +0.000 HD
ENDBRANCH  11  13
BRANCH  12  15
ATOM     15  O2* UNL     1       1.561  12.252  21.052  0.00  0.00    +0.000 OA
ATOM     16  H2* UNL     1       1.975  11.442  21.420  0.00  0.00    +0.000 HD
ENDBRANCH  12  15
BRANCH  10  17
ATOM     17  C5* UNL     1      -1.699  11.833  17.823  0.00  0.00    +0.000 C 
BRANCH  17  18
ATOM     18  O5* UNL     1      -0.997  13.019  17.458  0.00  0.00    +0.000 OA
ATOM     19  H5* UNL     1      -1.167  13.134  16.502  0.00  0.00    +0.000 HD
ENDBRANCH  17  18
ENDBRANCH  10  17
ENDBRANCH   7   8
BRANCH   4  20
ATOM     20  O   UNL     1       3.289   6.318  17.922  0.00  0.00    +0.000 OA
ATOM     21  H   UNL     1       3.180   6.481  16.971  0.00  0.00    +0.000 HD
ENDBRANCH   4  20
BRANCH   3  22
ATOM     22  C   UNL     1       2.281   5.877  20.790  0.00  0.00    +0.000 C 
BRANCH  22  23
ATOM     23  C   UNL     1       1.364   4.724  20.342  0.00  0.00    +0.000 C 
BRANCH  23  24
ATOM     24  C   UNL     1       2.100   3.633  19.605  0.00  0.00    +0.000 A 
ATOM     25  C   UNL     1       1.637   3.167  18.366  0.00  0.00    +0.000 A 
ATOM     26  C   UNL     1       2.343   2.183  17.672  0.00  0.00    +0.000 A 
ATOM     27  C   UNL     1       3.511   1.652  18.214  0.00  0.00    +0.000 A 
ATOM     28  C   UNL     1       3.975   2.105  19.447  0.00  0.00    +0.000 A 
ATOM     29  C   UNL     1       3.273   3.089  20.142  0.00  0.00    +0.000 A 
ENDBRANCH  23  24
ENDBRANCH  22  23
ENDBRANCH   3  22
TORSDOF 9
ENDMDL
MODEL 7
REMARK VINA RESULT:      -7.1      3.410      8.209
REMARK  Name = 
REMARK  9 active torsions:
REMARK  status: ('A' for Active; 'I' for Inactive)
REMARK    1  A    between atoms: C_3  and  C_4
REMARK    2  A    between atoms: C_4  and  C_5
REMARK    3  A    between atoms: C_5  and  C_6
REMARK    4  A    between atoms: C_12  and  O_13
REMARK    5  A    between atoms: N_16  and  C1*_17
REMARK    6  A    between atoms: C4*_19  and  C5*_20
REMARK    7  A    between atoms: C5*_20  and  O5*_21
REMARK    8  A    between atoms: C3*_22  and  O3*_23
REMARK    9  A    between atoms: C2*_24  and  O2*_25
REMARK                            x       y       z     vdW  Elec       q    Type
REMARK                         _______ _______ _______ _____ _____    ______ ____
ROOT
ATOM      1  O   UNL     1       4.530   6.096  19.447  0.00  0.00    +0.000 OA
ATOM      2  C   UNL     1       3.785   5.191  19.081  0.00  0.00    +0.000 A 
ATOM      3  C   UNL     1       2.425   5.065  19.710  0.00  0.00    +0.000 A 
ATOM      4  C   UNL     1       1.690   3.984  19.388  0.00  0.00    +0.000 A 
ATOM      5  C   UNL     1       2.143   3.033  18.408  0.00  0.00    +0.000 A 
ATOM      6  C   UNL     1       3.303   3.219  17.769  0.00  0.00    +0.000 A 
ATOM      7  N   UNL     1       4.122   4.288  18.082  0.00  0.00    +0.000 N 
ENDROOT
BRANCH   7   8
ATOM      8  C1* UNL     1       5.348   4.500  17.316  0.00  0.00    +0.000 C 
ATOM      9  O4* UNL     1       6.499   4.107  18.091  0.00  0.00    +0.000 OA
ATOM     10  C4* UNL     1       7.557   5.076  17.869  0.00  0.00    +0.000 C 
ATOM     11  C3* UNL     1       7.096   5.975  16.726  0.00  0.00    +0.000 C 
ATOM     12  C2* UNL     1       5.580   5.946  16.848  0.00  0.00    +0.000 C 
BRANCH  11  13
ATOM     13  O3* UNL     1       7.442   5.418  15.441  0.00  0.00    +0.000 OA
ATOM     14  H3* UNL     1       7.863   6.114  14.901  0.00  0.00    +0.000 HD
ENDBRANCH  11  13
BRANCH  12  15
ATOM     15  O2* UNL     1       4.951   6.232  15.597  0.00  0.00    +0.000 OA
ATOM     16  H2* UNL     1       4.019   5.941  15.694  0.00  0.00    +0.000 HD
ENDBRANCH  12  15
BRANCH  10  17
ATOM     17  C5* UNL     1       7.853   5.854  19.155  0.00  0.00    +0.000 C 
BRANCH  17  18
ATOM     18  O5* UNL     1       7.186   5.238  20.255  0.00  0.00    +0.000 OA
ATOM     19  H5* UNL     1       7.797   4.541  20.567  0.00  0.00    +0.000 HD
ENDBRANCH  17  18
ENDBRANCH  10  17
ENDBRANCH   7   8
BRANCH   4  20
ATOM     20  O   UNL     1       0.451   3.677  19.893  0.00  0.00    +0.000 OA
ATOM     21  H   UNL     1       0.388   3.977  20.813  0.00  0.00    +0.000 HD
ENDBRANCH   4  20
BRANCH   3  22
ATOM     22  C   UNL     1       2.039   6.201  20.634  0.00  0.00    +0.000 C 
BRANCH  22  23
ATOM     23  C   UNL     1       1.967   7.547  19.891  0.00  0.00    +0.000 C 
BRANCH  23  24
ATOM     24  C   UNL     1       1.147   8.583  20.619  0.00  0.00    +0.000 A 
ATOM     25  C   UNL     1       1.011   8.537  22.014  0.00  0.00    +0.000 A 
ATOM     26  C   UNL     1       0.281   9.520  22.685  0.00  0.00    +0.000 A 
ATOM     27  C   UNL     1      -0.324  10.550  21.968  0.00  0.00    +0.000 A 
ATOM     28  C   UNL     1      -0.199  10.599  20.581  0.00  0.00    +0.000 A 
ATOM     29  C   UNL     1       0.530   9.619  19.908  0.00  0.00    +0.000 A 
ENDBRANCH  23  24
ENDBRANCH  22  23
ENDBRANCH   3  22
TORSDOF 9
ENDMDL
MODEL 8
REMARK VINA RESULT:      -7.1      1.759      2.933
REMARK  Name = 
REMARK  9 active torsions:
REMARK  status: ('A' for Active; 'I' for Inactive)
REMARK    1  A    between atoms: C_3  and  C_4
REMARK    2  A    between atoms: C_4  and  C_5
REMARK    3  A    between atoms: C_5  and  C_6
REMARK    4  A    between atoms: C_12  and  O_13
REMARK    5  A    between atoms: N_16  and  C1*_17
REMARK    6  A    between atoms: C4*_19  and  C5*_20
REMARK    7  A    between atoms: C5*_20  and  O5*_21
REMARK    8  A    between atoms: C3*_22  and  O3*_23
REMARK    9  A    between atoms: C2*_24  and  O2*_25
REMARK                            x       y       z     vdW  Elec       q    Type
REMARK                         _______ _______ _______ _____ _____    ______ ____
ROOT
ATOM      1  O   UNL     1       6.101   4.611  19.245  0.00  0.00    +0.000 OA
ATOM      2  C   UNL     1       5.274   5.210  18.563  0.00  0.00    +0.000 A 
ATOM      3  C   UNL     1       5.732   5.930  17.325  0.00  0.00    +0.000 A 
ATOM      4  C   UNL     1       4.828   6.689  16.678  0.00  0.00    +0.000 A 
ATOM      5  C   UNL     1       3.452   6.736  17.096  0.00  0.00    +0.000 A 
ATOM      6  C   UNL     1       3.031   5.999  18.129  0.00  0.00    +0.000 A 
ATOM      7  N   UNL     1       3.918   5.229  18.859  0.00  0.00    +0.000 N 
ENDROOT
BRANCH   7   8
ATOM      8  C1* UNL     1       3.413   4.381  19.936  0.00  0.00    +0.000 C 
ATOM      9  O4* UNL     1       3.316   3.012  19.493  0.00  0.00    +0.000 OA
ATOM     10  C4* UNL     1       2.090   2.442  20.022  0.00  0.00    +0.000 C 
ATOM     11  C3* UNL     1       1.533   3.451  21.020  0.00  0.00    +0.000 C 
ATOM     12  C2* UNL     1       2.037   4.784  20.489  0.00  0.00    +0.000 C 
BRANCH  11  13
ATOM     13  O3* UNL     1       2.096   3.262  22.335  0.00  0.00    +0.000 OA
ATOM     14  H3* UNL     1       2.158   2.304  22.514  0.00  0.00    +0.000 HD
ENDBRANCH  11  13
BRANCH  12  15
ATOM     15  O2* UNL     1       2.122   5.761  21.530  0.00  0.00    +0.000 OA
ATOM     16  H2* UNL     1       3.035   5.695  21.883  0.00  0.00    +0.000 HD
ENDBRANCH  12  15
BRANCH  10  17
ATOM     17  C5* UNL     1       1.111   2.125  18.887  0.00  0.00    +0.000 C 
BRANCH  17  18
ATOM     18  O5* UNL     1       1.835   1.825  17.696  0.00  0.00    +0.000 OA
ATOM     19  H5* UNL     1       1.375   1.056  17.303  0.00  0.00    +0.000 HD
ENDBRANCH  17  18
ENDBRANCH  10  17
ENDBRANCH   7   8
BRANCH   4  20
ATOM     20  O   UNL     1       5.070   7.451  15.563  0.00  0.00    +0.000 OA
ATOM     21  H   UNL     1       5.691   8.164  15.781  0.00  0.00    +0.000 HD
ENDBRANCH   4  20
BRANCH   3  22
ATOM     22  C   UNL     1       7.178   5.694  16.945  0.00  0.00    +0.000 C 
BRANCH  22  23
ATOM     23  C   UNL     1       7.376   4.335  16.251  0.00  0.00    +0.000 C 
BRANCH  23  24
ATOM     24  C   UNL     1       7.133   4.386  14.764  0.00  0.00    +0.000 A 
ATOM     25  C   UNL     1       7.924   5.198  13.937  0.00  0.00    +0.000 A 
ATOM     26  C   UNL     1       7.717   5.214  12.556  0.00  0.00    +0.000 A 
ATOM     27  C   UNL     1       6.716   4.425  11.993  0.00  0.00    +0.000 A 
ATOM     28  C   UNL     1       5.922   3.620  12.808  0.00  0.00    +0.000 A 
ATOM     29  C   UNL     1       6.127   3.601  14.187  0.00  0.00    +0.000 A 
ENDBRANCH  23  24
ENDBRANCH  22  23
ENDBRANCH   3  22
TORSDOF 9
ENDMDL
MODEL 9
REMARK VINA RESULT:      -7.1      5.690      8.008
REMARK  Name = 
REMARK  9 active torsions:
REMARK  status: ('A' for Active; 'I' for Inactive)
REMARK    1  A    between atoms: C_3  and  C_4
REMARK    2  A    between atoms: C_4  and  C_5
REMARK    3  A    between atoms: C_5  and  C_6
REMARK    4  A    between atoms: C_12  and  O_13
REMARK    5  A    between atoms: N_16  and  C1*_17
REMARK    6  A    between atoms: C4*_19  and  C5*_20
REMARK    7  A    between atoms: C5*_20  and  O5*_21
REMARK    8  A    between atoms: C3*_22  and  O3*_23
REMARK    9  A    between atoms: C2*_24  and  O2*_25
REMARK                            x       y       z     vdW  Elec       q    Type
REMARK                         _______ _______ _______ _____ _____    ______ ____
ROOT
ATOM      1  O   UNL     1       1.948   9.110  17.369  0.00  0.00    +0.000 OA
ATOM      2  C   UNL     1       1.691   8.843  18.539  0.00  0.00    +0.000 A 
ATOM      3  C   UNL     1       2.261   7.591  19.146  0.00  0.00    +0.000 A 
ATOM      4  C   UNL     1       1.849   7.257  20.383  0.00  0.00    +0.000 A 
ATOM      5  C   UNL     1       0.972   8.113  21.138  0.00  0.00    +0.000 A 
ATOM      6  C   UNL     1       0.566   9.281  20.633  0.00  0.00    +0.000 A 
ATOM      7  N   UNL     1       0.922   9.664  19.352  0.00  0.00    +0.000 N 
ENDROOT
BRANCH   7   8
ATOM      8  C1* UNL     1       0.519  10.978  18.859  0.00  0.00    +0.000 C 
ATOM      9  O4* UNL     1       0.857  12.000  19.819  0.00  0.00    +0.000 OA
ATOM     10  C4* UNL     1      -0.231  12.960  19.875  0.00  0.00    +0.000 C 
ATOM     11  C3* UNL     1      -1.173  12.620  18.724  0.00  0.00    +0.000 C 
ATOM     12  C2* UNL     1      -0.978  11.123  18.541  0.00  0.00    +0.000 C 
BRANCH  11  13
ATOM     13  O3* UNL     1      -0.768  13.268  17.499  0.00  0.00    +0.000 OA
ATOM     14  H3* UNL     1      -0.140  13.983  17.716  0.00  0.00    +0.000 HD
ENDBRANCH  11  13
BRANCH  12  15
ATOM     15  O2* UNL     1      -1.305  10.713  17.211  0.00  0.00    +0.000 OA
ATOM     16  H2* UNL     1      -1.841  11.442  16.832  0.00  0.00    +0.000 HD
ENDBRANCH  12  15
BRANCH  10  17
ATOM     17  C5* UNL     1      -0.921  12.913  21.242  0.00  0.00    +0.000 C 
BRANCH  17  18
ATOM     18  O5* UNL     1      -0.021  12.392  22.218  0.00  0.00    +0.000 OA
ATOM     19  H5* UNL     1      -0.446  12.572  23.080  0.00  0.00    +0.000 HD
ENDBRANCH  17  18
ENDBRANCH  10  17
ENDBRANCH   7   8
BRANCH   4  20
ATOM     20  O   UNL     1       2.223   6.134  21.078  0.00  0.00    +0.000 OA
ATOM     21  H   UNL     1       3.190   6.098  21.148  0.00  0.00    +0.000 HD
ENDBRANCH   4  20
BRANCH   3  22
ATOM     22  C   UNL     1       3.258   6.855  18.276  0.00  0.00    +0.000 C 
BRANCH  22  23
ATOM     23  C   UNL     1       2.610   5.674  17.531  0.00  0.00    +0.000 C 
BRANCH  23  24
ATOM     24  C   UNL     1       3.019   4.330  18.080  0.00  0.00    +0.000 A 
ATOM     25  C   UNL     1       2.363   3.160  17.669  0.00  0.00    +0.000 A 
ATOM     26  C   UNL     1       2.770   1.916  18.153  0.00  0.00    +0.000 A 
ATOM     27  C   UNL     1       3.829   1.831  19.054  0.00  0.00    +0.000 A 
ATOM     28  C   UNL     1       4.482   2.989  19.472  0.00  0.00    +0.000 A 
ATOM     29  C   UNL     1       4.079   4.234  18.989  0.00  0.00    +0.000 A 
ENDBRANCH  23  24
ENDBRANCH  22  23
ENDBRANCH   3  22
TORSDOF 9
ENDMDL
