MODEL 1
REMARK VINA RESULT:      -9.5      0.000      0.000
REMARK  Name = 
REMARK  8 active torsions:
REMARK  status: ('A' for Active; 'I' for Inactive)
REMARK    1  A    between atoms: C_1  and  C_2
REMARK    2  A    between atoms: C_5  and  C_6
REMARK    3  A    between atoms: C_6  and  C_8
REMARK    4  A    between atoms: C_16  and  N_17
REMARK    5  A    between atoms: C_18  and  C_20
REMARK    6  A    between atoms: C_20  and  C_21
REMARK    7  A    between atoms: C_25  and  C_26
REMARK    8  A    between atoms: C_27  and  C_28
REMARK                            x       y       z     vdW  Elec       q    Type
REMARK                         _______ _______ _______ _____ _____    ______ ____
ROOT
ATOM      1  C   UNL     1       6.061   4.858  17.336  0.00  0.00    +0.000 A 
ATOM      2  O   UNL     1       5.386   4.149  16.388  0.00  0.00    +0.000 OA
ATOM      3  C   UNL     1       5.998   4.336  15.206  0.00  0.00    +0.000 A 
ATOM      4  C   UNL     1       5.560   3.744  14.017  0.00  0.00    +0.000 A 
ATOM      5  C   UNL     1       6.295   3.998  12.869  0.00  0.00    +0.000 A 
ATOM      6  C   UNL     1       7.405   4.815  12.925  0.00  0.00    +0.000 A 
ATOM      7  C   UNL     1       7.809   5.424  14.147  0.00  0.00    +0.000 A 
ATOM      8  C   UNL     1       7.088   5.192  15.341  0.00  0.00    +0.000 A 
ATOM      9  C   UNL     1       7.116   5.587  16.747  0.00  0.00    +0.000 A 
ENDROOT
BRANCH   9  10
ATOM     10  N   UNL     1       7.968   6.476  17.466  0.00  0.00    +0.000 N 
ATOM     11  C   UNL     1       7.828   7.841  17.656  0.00  0.00    +0.000 C 
ATOM     12  O   UNL     1       6.896   8.517  17.206  0.00  0.00    +0.000 OA
ATOM     13  H   UNL     1       8.710   5.999  17.991  0.00  0.00    +0.000 HD
BRANCH  11  14
ATOM     14  C   UNL     1       8.927   8.573  18.554  0.00  0.00    +0.000 C 
BRANCH  14  15
ATOM     15  C   UNL     1       8.657  10.074  18.755  0.00  0.00    +0.000 A 
ATOM     16  C   UNL     1       9.206  10.586  19.917  0.00  0.00    +0.000 A 
ATOM     17  O   UNL     1      10.446  11.002  19.463  0.00  0.00    +0.000 OA
ATOM     18  C   UNL     1      10.136  11.658  18.303  0.00  0.00    +0.000 A 
ATOM     19  C   UNL     1      10.845  12.813  18.014  0.00  0.00    +0.000 A 
ATOM     20  C   UNL     1      12.240  12.894  18.523  0.00  0.00    +0.000 C 
ATOM     21  C   UNL     1       9.985  13.898  17.772  0.00  0.00    +0.000 A 
ATOM     22  C   UNL     1      10.449  15.288  18.139  0.00  0.00    +0.000 C 
ATOM     23  C   UNL     1       8.636  13.661  17.414  0.00  0.00    +0.000 A 
ATOM     24  C   UNL     1       8.071  12.349  17.424  0.00  0.00    +0.000 A 
ATOM     25  C   UNL     1       8.867  11.266  17.912  0.00  0.00    +0.000 A 
ENDBRANCH  14  15
ENDBRANCH  11  14
ENDBRANCH   9  10
BRANCH   1  26
ATOM     26  C   UNL     1       5.527   4.730  18.683  0.00  0.00    +0.000 C 
ATOM     27  O   UNL     1       6.169   5.074  19.674  0.00  0.00    +0.000 OA
BRANCH  26  32
ATOM     28  C   UNL     1       0.253   2.178  19.028  0.00  0.00    +0.000 C 
ATOM     29  C   UNL     1       1.597   2.858  19.040  0.00  0.00    +0.000 A 
ATOM     30  C   UNL     1       2.765   2.161  19.372  0.00  0.00    +0.000 A 
ATOM     31  C   UNL     1       4.025   2.785  19.295  0.00  0.00    +0.000 A 
ATOM     32  C   UNL     1       4.147   4.126  18.896  0.00  0.00    +0.000 A 
ATOM     33  C   UNL     1       2.966   4.834  18.614  0.00  0.00    +0.000 A 
ATOM     34  C   UNL     1       1.708   4.206  18.683  0.00  0.00    +0.000 A 
ENDBRANCH  26  32
ENDBRANCH   1  26
TORSDOF 5
ENDMDL
MODEL 2
REMARK VINA RESULT:      -9.4      1.512      2.227
REMARK  Name = 
REMARK  8 active torsions:
REMARK  status: ('A' for Active; 'I' for Inactive)
REMARK    1  A    between atoms: C_1  and  C_2
REMARK    2  A    between atoms: C_5  and  C_6
REMARK    3  A    between atoms: C_6  and  C_8
REMARK    4  A    between atoms: C_16  and  N_17
REMARK    5  A    between atoms: C_18  and  C_20
REMARK    6  A    between atoms: C_20  and  C_21
REMARK    7  A    between atoms: C_25  and  C_26
REMARK    8  A    between atoms: C_27  and  C_28
REMARK                            x       y       z     vdW  Elec       q    Type
REMARK                         _______ _______ _______ _____ _____    ______ ____
ROOT
ATOM      1  C   UNL     1       5.527   4.847  16.935  0.00  0.00    +0.000 A 
ATOM      2  O   UNL     1       4.900   4.201  15.912  0.00  0.00    +0.000 OA
ATOM      3  C   UNL     1       5.682   4.280  14.822  0.00  0.00    +0.000 A 
ATOM      4  C   UNL     1       5.334   3.714  13.590  0.00  0.00    +0.000 A 
ATOM      5  C   UNL     1       6.240   3.846  12.549  0.00  0.00    +0.000 A 
ATOM      6  C   UNL     1       7.427   4.521  12.746  0.00  0.00    +0.000 A 
ATOM      7  C   UNL     1       7.738   5.108  14.005  0.00  0.00    +0.000 A 
ATOM      8  C   UNL     1       6.843   4.998  15.093  0.00  0.00    +0.000 A 
ATOM      9  C   UNL     1       6.733   5.425  16.487  0.00  0.00    +0.000 A 
ENDROOT
BRANCH   9  10
ATOM     10  N   UNL     1       7.588   6.221  17.305  0.00  0.00    +0.000 N 
ATOM     11  C   UNL     1       7.567   7.593  17.495  0.00  0.00    +0.000 C 
ATOM     12  O   UNL     1       6.764   8.361  16.954  0.00  0.00    +0.000 OA
ATOM     13  H   UNL     1       8.215   5.669  17.902  0.00  0.00    +0.000 HD
BRANCH  11  14
ATOM     14  C   UNL     1       8.630   8.207  18.517  0.00  0.00    +0.000 C 
BRANCH  14  15
ATOM     15  C   UNL     1       8.491   9.727  18.707  0.00  0.00    +0.000 A 
ATOM     16  C   UNL     1       8.838  10.161  19.975  0.00  0.00    +0.000 A 
ATOM     17  O   UNL     1      10.184  10.436  19.802  0.00  0.00    +0.000 OA
ATOM     18  C   UNL     1      10.198  11.135  18.626  0.00  0.00    +0.000 A 
ATOM     19  C   UNL     1      11.076  12.203  18.530  0.00  0.00    +0.000 A 
ATOM     20  C   UNL     1      12.333  12.118  19.320  0.00  0.00    +0.000 C 
ATOM     21  C   UNL     1      10.411  13.382  18.152  0.00  0.00    +0.000 A 
ATOM     22  C   UNL     1      10.938  14.706  18.653  0.00  0.00    +0.000 C 
ATOM     23  C   UNL     1       9.149  13.305  17.513  0.00  0.00    +0.000 A 
ATOM     24  C   UNL     1       8.453  12.067  17.362  0.00  0.00    +0.000 A 
ATOM     25  C   UNL     1       9.004  10.895  17.967  0.00  0.00    +0.000 A 
ENDBRANCH  14  15
ENDBRANCH  11  14
ENDBRANCH   9  10
BRANCH   1  26
ATOM     26  C   UNL     1       4.808   4.821  18.199  0.00  0.00    +0.000 C 
ATOM     27  O   UNL     1       4.991   3.938  19.036  0.00  0.00    +0.000 OA
BRANCH  26  32
ATOM     28  C   UNL     1       1.208   9.261  19.530  0.00  0.00    +0.000 C 
ATOM     29  C   UNL     1       2.051   8.076  19.143  0.00  0.00    +0.000 A 
ATOM     30  C   UNL     1       2.723   8.027  17.915  0.00  0.00    +0.000 A 
ATOM     31  C   UNL     1       3.577   6.953  17.601  0.00  0.00    +0.000 A 
ATOM     32  C   UNL     1       3.771   5.893  18.502  0.00  0.00    +0.000 A 
ATOM     33  C   UNL     1       3.054   5.922  19.710  0.00  0.00    +0.000 A 
ATOM     34  C   UNL     1       2.207   7.002  20.026  0.00  0.00    +0.000 A 
ENDBRANCH  26  32
ENDBRANCH   1  26
TORSDOF 5
ENDMDL
MODEL 3
REMARK VINA RESULT:      -9.2      5.192      8.348
REMARK  Name = 
REMARK  8 active torsions:
REMARK  status: ('A' for Active; 'I' for Inactive)
REMARK    1  A    between atoms: C_1  and  C_2
REMARK    2  A    between atoms: C_5  and  C_6
REMARK    3  A    between atoms: C_6  and  C_8
REMARK    4  A    between atoms: C_16  and  N_17
REMARK    5  A    between atoms: C_18  and  C_20
REMARK    6  A    between atoms: C_20  and  C_21
REMARK    7  A    between atoms: C_25  and  C_26
REMARK    8  A    between atoms: C_27  and  C_28
REMARK                            x       y       z     vdW  Elec       q    Type
REMARK                         _______ _______ _______ _____ _____    ______ ____
ROOT
ATOM      1  C   UNL     1       4.374   5.379  18.413  0.00  0.00    +0.000 A 
ATOM      2  O   UNL     1       4.647   4.192  19.024  0.00  0.00    +0.000 OA
ATOM      3  C   UNL     1       3.577   3.839  19.757  0.00  0.00    +0.000 A 
ATOM      4  C   UNL     1       3.524   2.663  20.513  0.00  0.00    +0.000 A 
ATOM      5  C   UNL     1       2.352   2.404  21.207  0.00  0.00    +0.000 A 
ATOM      6  C   UNL     1       1.298   3.293  21.143  0.00  0.00    +0.000 A 
ATOM      7  C   UNL     1       1.395   4.494  20.385  0.00  0.00    +0.000 A 
ATOM      8  C   UNL     1       2.572   4.798  19.663  0.00  0.00    +0.000 A 
ATOM      9  C   UNL     1       3.106   5.855  18.808  0.00  0.00    +0.000 A 
ENDROOT
BRANCH   9  10
ATOM     10  N   UNL     1       2.559   7.104  18.391  0.00  0.00    +0.000 N 
ATOM     11  C   UNL     1       1.982   8.096  19.167  0.00  0.00    +0.000 C 
ATOM     12  O   UNL     1       1.852   8.035  20.395  0.00  0.00    +0.000 OA
ATOM     13  H   UNL     1       2.729   7.317  17.401  0.00  0.00    +0.000 HD
BRANCH  11  14
ATOM     14  C   UNL     1       1.494   9.421  18.421  0.00  0.00    +0.000 C 
BRANCH  14  15
ATOM     15  C   UNL     1       1.105  10.558  19.380  0.00  0.00    +0.000 A 
ATOM     16  C   UNL     1       0.885  11.768  18.745  0.00  0.00    +0.000 A 
ATOM     17  O   UNL     1      -0.474  11.691  18.492  0.00  0.00    +0.000 OA
ATOM     18  C   UNL     1      -0.976  11.249  19.685  0.00  0.00    +0.000 A 
ATOM     19  C   UNL     1      -2.182  11.785  20.108  0.00  0.00    +0.000 A 
ATOM     20  C   UNL     1      -3.138  12.214  19.052  0.00  0.00    +0.000 C 
ATOM     21  C   UNL     1      -2.082  12.320  21.404  0.00  0.00    +0.000 A 
ATOM     22  C   UNL     1      -2.943  13.506  21.769  0.00  0.00    +0.000 C 
ATOM     23  C   UNL     1      -1.034  11.901  22.259  0.00  0.00    +0.000 A 
ATOM     24  C   UNL     1       0.020  11.052  21.802  0.00  0.00    +0.000 A 
ATOM     25  C   UNL     1       0.066  10.704  20.416  0.00  0.00    +0.000 A 
ENDBRANCH  14  15
ENDBRANCH  11  14
ENDBRANCH   9  10
BRANCH   1  26
ATOM     26  C   UNL     1       5.437   5.877  17.555  0.00  0.00    +0.000 C 
ATOM     27  O   UNL     1       6.083   6.886  17.835  0.00  0.00    +0.000 OA
BRANCH  26  32
ATOM     28  C   UNL     1       6.557   3.570  12.276  0.00  0.00    +0.000 C 
ATOM     29  C   UNL     1       6.310   4.076  13.672  0.00  0.00    +0.000 A 
ATOM     30  C   UNL     1       7.281   4.809  14.367  0.00  0.00    +0.000 A 
ATOM     31  C   UNL     1       7.006   5.350  15.637  0.00  0.00    +0.000 A 
ATOM     32  C   UNL     1       5.756   5.161  16.250  0.00  0.00    +0.000 A 
ATOM     33  C   UNL     1       4.804   4.382  15.571  0.00  0.00    +0.000 A 
ATOM     34  C   UNL     1       5.078   3.848  14.297  0.00  0.00    +0.000 A 
ENDBRANCH  26  32
ENDBRANCH   1  26
TORSDOF 5
ENDMDL
MODEL 4
REMARK VINA RESULT:      -9.0      4.878      7.831
REMARK  Name = 
REMARK  8 active torsions:
REMARK  status: ('A' for Active; 'I' for Inactive)
REMARK    1  A    between atoms: C_1  and  C_2
REMARK    2  A    between atoms: C_5  and  C_6
REMARK    3  A    between atoms: C_6  and  C_8
REMARK    4  A    between atoms: C_16  and  N_17
REMARK    5  A    between atoms: C_18  and  C_20
REMARK    6  A    between atoms: C_20  and  C_21
REMARK    7  A    between atoms: C_25  and  C_26
REMARK    8  A    between atoms: C_27  and  C_28
REMARK                            x       y       z     vdW  Elec       q    Type
REMARK                         _______ _______ _______ _____ _____    ______ ____
ROOT
ATOM      1  C   UNL     1       4.777   5.119  18.942  0.00  0.00    +0.000 A 
ATOM      2  O   UNL     1       4.872   3.853  19.437  0.00  0.00    +0.000 OA
ATOM      3  C   UNL     1       3.750   3.584  20.125  0.00  0.00    +0.000 A 
ATOM      4  C   UNL     1       3.520   2.360  20.763  0.00  0.00    +0.000 A 
ATOM      5  C   UNL     1       2.310   2.201  21.421  0.00  0.00    +0.000 A 
ATOM      6  C   UNL     1       1.390   3.229  21.436  0.00  0.00    +0.000 A 
ATOM      7  C   UNL     1       1.666   4.472  20.800  0.00  0.00    +0.000 A 
ATOM      8  C   UNL     1       2.888   4.677  20.118  0.00  0.00    +0.000 A 
ATOM      9  C   UNL     1       3.579   5.727  19.373  0.00  0.00    +0.000 A 
ENDROOT
BRANCH   9  10
ATOM     10  N   UNL     1       3.217   7.074  19.076  0.00  0.00    +0.000 N 
ATOM     11  C   UNL     1       2.304   7.536  18.142  0.00  0.00    +0.000 C 
ATOM     12  O   UNL     1       1.639   6.809  17.396  0.00  0.00    +0.000 OA
ATOM     13  H   UNL     1       3.616   7.760  19.728  0.00  0.00    +0.000 HD
BRANCH  11  14
ATOM     14  C   UNL     1       2.071   9.114  18.064  0.00  0.00    +0.000 C 
BRANCH  14  15
ATOM     15  C   UNL     1       0.745   9.571  18.695  0.00  0.00    +0.000 A 
ATOM     16  C   UNL     1       0.788   9.657  20.075  0.00  0.00    +0.000 A 
ATOM     17  O   UNL     1       1.175  10.976  20.246  0.00  0.00    +0.000 OA
ATOM     18  C   UNL     1       0.359  11.643  19.374  0.00  0.00    +0.000 A 
ATOM     19  C   UNL     1      -0.144  12.868  19.781  0.00  0.00    +0.000 A 
ATOM     20  C   UNL     1       0.693  13.664  20.719  0.00  0.00    +0.000 C 
ATOM     21  C   UNL     1      -1.545  12.909  19.680  0.00  0.00    +0.000 A 
ATOM     22  C   UNL     1      -2.320  13.758  20.660  0.00  0.00    +0.000 C 
ATOM     23  C   UNL     1      -2.216  11.996  18.831  0.00  0.00    +0.000 A 
ATOM     24  C   UNL     1      -1.528  10.931  18.173  0.00  0.00    +0.000 A 
ATOM     25  C   UNL     1      -0.144  10.726  18.467  0.00  0.00    +0.000 A 
ENDBRANCH  14  15
ENDBRANCH  11  14
ENDBRANCH   9  10
BRANCH   1  26
ATOM     26  C   UNL     1       5.915   5.545  18.144  0.00  0.00    +0.000 C 
ATOM     27  O   UNL     1       6.823   6.230  18.614  0.00  0.00    +0.000 OA
BRANCH  26  32
ATOM     28  C   UNL     1       6.303   3.598  12.621  0.00  0.00    +0.000 C 
ATOM     29  C   UNL     1       6.168   4.187  14.000  0.00  0.00    +0.000 A 
ATOM     30  C   UNL     1       4.977   4.074  14.729  0.00  0.00    +0.000 A 
ATOM     31  C   UNL     1       4.891   4.554  16.050  0.00  0.00    +0.000 A 
ATOM     32  C   UNL     1       5.991   5.169  16.671  0.00  0.00    +0.000 A 
ATOM     33  C   UNL     1       7.166   5.325  15.917  0.00  0.00    +0.000 A 
ATOM     34  C   UNL     1       7.253   4.837  14.599  0.00  0.00    +0.000 A 
ENDBRANCH  26  32
ENDBRANCH   1  26
TORSDOF 5
ENDMDL
MODEL 5
REMARK VINA RESULT:      -8.9      4.753      7.970
REMARK  Name = 
REMARK  8 active torsions:
REMARK  status: ('A' for Active; 'I' for Inactive)
REMARK    1  A    between atoms: C_1  and  C_2
REMARK    2  A    between atoms: C_5  and  C_6
REMARK    3  A    between atoms: C_6  and  C_8
REMARK    4  A    between atoms: C_16  and  N_17
REMARK    5  A    between atoms: C_18  and  C_20
REMARK    6  A    between atoms: C_20  and  C_21
REMARK    7  A    between atoms: C_25  and  C_26
REMARK    8  A    between atoms: C_27  and  C_28
REMARK                            x       y       z     vdW  Elec       q    Type
REMARK                         _______ _______ _______ _____ _____    ______ ____
ROOT
ATOM      1  C   UNL     1       4.814   4.968  19.001  0.00  0.00    +0.000 A 
ATOM      2  O   UNL     1       4.911   3.753  19.612  0.00  0.00    +0.000 OA
ATOM      3  C   UNL     1       3.758   3.515  20.261  0.00  0.00    +0.000 A 
ATOM      4  C   UNL     1       3.522   2.346  20.993  0.00  0.00    +0.000 A 
ATOM      5  C   UNL     1       2.281   2.211  21.596  0.00  0.00    +0.000 A 
ATOM      6  C   UNL     1       1.338   3.211  21.470  0.00  0.00    +0.000 A 
ATOM      7  C   UNL     1       1.620   4.399  20.740  0.00  0.00    +0.000 A 
ATOM      8  C   UNL     1       2.873   4.578  20.109  0.00  0.00    +0.000 A 
ATOM      9  C   UNL     1       3.580   5.577  19.311  0.00  0.00    +0.000 A 
ENDROOT
BRANCH   9  10
ATOM     10  N   UNL     1       3.204   6.882  18.875  0.00  0.00    +0.000 N 
ATOM     11  C   UNL     1       2.193   7.240  17.998  0.00  0.00    +0.000 C 
ATOM     12  O   UNL     1       1.434   6.439  17.441  0.00  0.00    +0.000 OA
ATOM     13  H   UNL     1       3.687   7.637  19.375  0.00  0.00    +0.000 HD
BRANCH  11  14
ATOM     14  C   UNL     1       1.973   8.799  17.730  0.00  0.00    +0.000 C 
BRANCH  14  15
ATOM     15  C   UNL     1       1.803   9.626  19.016  0.00  0.00    +0.000 A 
ATOM     16  C   UNL     1       1.812  10.993  18.802  0.00  0.00    +0.000 A 
ATOM     17  O   UNL     1       0.462  11.241  18.618  0.00  0.00    +0.000 OA
ATOM     18  C   UNL     1      -0.113  10.541  19.642  0.00  0.00    +0.000 A 
ATOM     19  C   UNL     1      -1.199  11.120  20.280  0.00  0.00    +0.000 A 
ATOM     20  C   UNL     1      -2.058  12.022  19.467  0.00  0.00    +0.000 C 
ATOM     21  C   UNL     1      -1.000  11.192  21.670  0.00  0.00    +0.000 A 
ATOM     22  C   UNL     1      -1.626  12.334  22.435  0.00  0.00    +0.000 C 
ATOM     23  C   UNL     1      -0.049  10.346  22.290  0.00  0.00    +0.000 A 
ATOM     24  C   UNL     1       0.828   9.512  21.531  0.00  0.00    +0.000 A 
ATOM     25  C   UNL     1       0.809   9.618  20.105  0.00  0.00    +0.000 A 
ENDBRANCH  14  15
ENDBRANCH  11  14
ENDBRANCH   9  10
BRANCH   1  26
ATOM     26  C   UNL     1       5.985   5.353  18.230  0.00  0.00    +0.000 C 
ATOM     27  O   UNL     1       6.931   5.955  18.736  0.00  0.00    +0.000 OA
BRANCH  26  32
ATOM     28  C   UNL     1       6.355   3.649  12.626  0.00  0.00    +0.000 C 
ATOM     29  C   UNL     1       6.219   4.175  14.029  0.00  0.00    +0.000 A 
ATOM     30  C   UNL     1       5.051   3.973  14.776  0.00  0.00    +0.000 A 
ATOM     31  C   UNL     1       4.968   4.395  16.117  0.00  0.00    +0.000 A 
ATOM     32  C   UNL     1       6.049   5.040  16.742  0.00  0.00    +0.000 A 
ATOM     33  C   UNL     1       7.198   5.285  15.972  0.00  0.00    +0.000 A 
ATOM     34  C   UNL     1       7.282   4.856  14.634  0.00  0.00    +0.000 A 
ENDBRANCH  26  32
ENDBRANCH   1  26
TORSDOF 5
ENDMDL
MODEL 6
REMARK VINA RESULT:      -8.9      4.935      8.369
REMARK  Name = 
REMARK  8 active torsions:
REMARK  status: ('A' for Active; 'I' for Inactive)
REMARK    1  A    between atoms: C_1  and  C_2
REMARK    2  A    between atoms: C_5  and  C_6
REMARK    3  A    between atoms: C_6  and  C_8
REMARK    4  A    between atoms: C_16  and  N_17
REMARK    5  A    between atoms: C_18  and  C_20
REMARK    6  A    between atoms: C_20  and  C_21
REMARK    7  A    between atoms: C_25  and  C_26
REMARK    8  A    between atoms: C_27  and  C_28
REMARK                            x       y       z     vdW  Elec       q    Type
REMARK                         _______ _______ _______ _____ _____    ______ ____
ROOT
ATOM      1  C   UNL     1       4.246   4.649  18.289  0.00  0.00    +0.000 A 
ATOM      2  O   UNL     1       4.476   3.492  18.972  0.00  0.00    +0.000 OA
ATOM      3  C   UNL     1       3.477   3.315  19.853  0.00  0.00    +0.000 A 
ATOM      4  C   UNL     1       3.405   2.216  20.715  0.00  0.00    +0.000 A 
ATOM      5  C   UNL     1       2.308   2.140  21.560  0.00  0.00    +0.000 A 
ATOM      6  C   UNL     1       1.345   3.128  21.536  0.00  0.00    +0.000 A 
ATOM      7  C   UNL     1       1.463   4.247  20.665  0.00  0.00    +0.000 A 
ATOM      8  C   UNL     1       2.565   4.365  19.787  0.00  0.00    +0.000 A 
ATOM      9  C   UNL     1       3.088   5.288  18.782  0.00  0.00    +0.000 A 
ENDROOT
BRANCH   9  10
ATOM     10  N   UNL     1       2.617   6.551  18.317  0.00  0.00    +0.000 N 
ATOM     11  C   UNL     1       2.171   7.632  19.060  0.00  0.00    +0.000 C 
ATOM     12  O   UNL     1       2.117   7.657  20.295  0.00  0.00    +0.000 OA
ATOM     13  H   UNL     1       2.739   6.689  17.308  0.00  0.00    +0.000 HD
BRANCH  11  14
ATOM     14  C   UNL     1       1.744   8.946  18.259  0.00  0.00    +0.000 C 
BRANCH  14  15
ATOM     15  C   UNL     1       1.379  10.130  19.170  0.00  0.00    +0.000 A 
ATOM     16  C   UNL     1       1.227  11.326  18.491  0.00  0.00    +0.000 A 
ATOM     17  O   UNL     1      -0.127  11.297  18.205  0.00  0.00    +0.000 OA
ATOM     18  C   UNL     1      -0.678  10.916  19.398  0.00  0.00    +0.000 A 
ATOM     19  C   UNL     1      -1.871  11.515  19.770  0.00  0.00    +0.000 A 
ATOM     20  C   UNL     1      -2.780  11.948  18.676  0.00  0.00    +0.000 C 
ATOM     21  C   UNL     1      -1.780  12.088  21.050  0.00  0.00    +0.000 A 
ATOM     22  C   UNL     1      -2.600  13.321  21.354  0.00  0.00    +0.000 C 
ATOM     23  C   UNL     1      -0.773  11.655  21.946  0.00  0.00    +0.000 A 
ATOM     24  C   UNL     1       0.255  10.748  21.545  0.00  0.00    +0.000 A 
ATOM     25  C   UNL     1       0.321  10.353  20.173  0.00  0.00    +0.000 A 
ENDBRANCH  14  15
ENDBRANCH  11  14
ENDBRANCH   9  10
BRANCH   1  26
ATOM     26  C   UNL     1       5.237   4.961  17.273  0.00  0.00    +0.000 C 
ATOM     27  O   UNL     1       5.284   4.360  16.200  0.00  0.00    +0.000 OA
BRANCH  26  32
ATOM     28  C   UNL     1       8.981   9.241  18.726  0.00  0.00    +0.000 C 
ATOM     29  C   UNL     1       8.088   8.115  18.280  0.00  0.00    +0.000 A 
ATOM     30  C   UNL     1       8.207   6.828  18.822  0.00  0.00    +0.000 A 
ATOM     31  C   UNL     1       7.310   5.806  18.459  0.00  0.00    +0.000 A 
ATOM     32  C   UNL     1       6.278   6.040  17.536  0.00  0.00    +0.000 A 
ATOM     33  C   UNL     1       6.195   7.318  16.957  0.00  0.00    +0.000 A 
ATOM     34  C   UNL     1       7.088   8.342  17.327  0.00  0.00    +0.000 A 
ENDBRANCH  26  32
ENDBRANCH   1  26
TORSDOF 5
ENDMDL
MODEL 7
REMARK VINA RESULT:      -8.9      4.964      8.054
REMARK  Name = 
REMARK  8 active torsions:
REMARK  status: ('A' for Active; 'I' for Inactive)
REMARK    1  A    between atoms: C_1  and  C_2
REMARK    2  A    between atoms: C_5  and  C_6
REMARK    3  A    between atoms: C_6  and  C_8
REMARK    4  A    between atoms: C_16  and  N_17
REMARK    5  A    between atoms: C_18  and  C_20
REMARK    6  A    between atoms: C_20  and  C_21
REMARK    7  A    between atoms: C_25  and  C_26
REMARK    8  A    between atoms: C_27  and  C_28
REMARK                            x       y       z     vdW  Elec       q    Type
REMARK                         _______ _______ _______ _____ _____    ______ ____
ROOT
ATOM      1  C   UNL     1       4.283   5.441  18.435  0.00  0.00    +0.000 A 
ATOM      2  O   UNL     1       4.407   4.118  18.736  0.00  0.00    +0.000 OA
ATOM      3  C   UNL     1       3.365   3.762  19.508  0.00  0.00    +0.000 A 
ATOM      4  C   UNL     1       3.184   2.463  19.994  0.00  0.00    +0.000 A 
ATOM      5  C   UNL     1       2.054   2.221  20.761  0.00  0.00    +0.000 A 
ATOM      6  C   UNL     1       1.165   3.243  21.025  0.00  0.00    +0.000 A 
ATOM      7  C   UNL     1       1.393   4.560  20.537  0.00  0.00    +0.000 A 
ATOM      8  C   UNL     1       2.532   4.851  19.752  0.00  0.00    +0.000 A 
ATOM      9  C   UNL     1       3.156   5.990  19.082  0.00  0.00    +0.000 A 
ENDROOT
BRANCH   9  10
ATOM     10  N   UNL     1       2.792   7.367  19.016  0.00  0.00    +0.000 N 
ATOM     11  C   UNL     1       2.650   8.169  17.896  0.00  0.00    +0.000 C 
ATOM     12  O   UNL     1       2.828   7.786  16.735  0.00  0.00    +0.000 OA
ATOM     13  H   UNL     1       2.496   7.757  19.919  0.00  0.00    +0.000 HD
BRANCH  11  14
ATOM     14  C   UNL     1       2.183   9.678  18.130  0.00  0.00    +0.000 C 
BRANCH  14  15
ATOM     15  C   UNL     1       0.788   9.798  18.767  0.00  0.00    +0.000 A 
ATOM     16  C   UNL     1       0.820  10.017  20.133  0.00  0.00    +0.000 A 
ATOM     17  O   UNL     1       0.818  11.401  20.180  0.00  0.00    +0.000 OA
ATOM     18  C   UNL     1      -0.163  11.729  19.285  0.00  0.00    +0.000 A 
ATOM     19  C   UNL     1      -0.989  12.794  19.605  0.00  0.00    +0.000 A 
ATOM     20  C   UNL     1      -0.404  13.875  20.443  0.00  0.00    +0.000 C 
ATOM     21  C   UNL     1      -2.345  12.429  19.551  0.00  0.00    +0.000 A 
ATOM     22  C   UNL     1      -3.319  13.109  20.483  0.00  0.00    +0.000 C 
ATOM     23  C   UNL     1      -2.738  11.291  18.805  0.00  0.00    +0.000 A 
ATOM     24  C   UNL     1      -1.783  10.408  18.215  0.00  0.00    +0.000 A 
ATOM     25  C   UNL     1      -0.394  10.629  18.476  0.00  0.00    +0.000 A 
ENDBRANCH  14  15
ENDBRANCH  11  14
ENDBRANCH   9  10
BRANCH   1  26
ATOM     26  C   UNL     1       5.332   5.966  17.575  0.00  0.00    +0.000 C 
ATOM     27  O   UNL     1       5.938   7.002  17.844  0.00  0.00    +0.000 OA
BRANCH  26  32
ATOM     28  C   UNL     1       6.630   3.649  12.341  0.00  0.00    +0.000 C 
ATOM     29  C   UNL     1       6.327   4.154  13.727  0.00  0.00    +0.000 A 
ATOM     30  C   UNL     1       7.302   4.799  14.499  0.00  0.00    +0.000 A 
ATOM     31  C   UNL     1       6.983   5.344  15.758  0.00  0.00    +0.000 A 
ATOM     32  C   UNL     1       5.683   5.245  16.282  0.00  0.00    +0.000 A 
ATOM     33  C   UNL     1       4.723   4.551  15.525  0.00  0.00    +0.000 A 
ATOM     34  C   UNL     1       5.042   4.015  14.263  0.00  0.00    +0.000 A 
ENDBRANCH  26  32
ENDBRANCH   1  26
TORSDOF 5
ENDMDL
MODEL 8
REMARK VINA RESULT:      -8.9      5.243      8.659
REMARK  Name = 
REMARK  8 active torsions:
REMARK  status: ('A' for Active; 'I' for Inactive)
REMARK    1  A    between atoms: C_1  and  C_2
REMARK    2  A    between atoms: C_5  and  C_6
REMARK    3  A    between atoms: C_6  and  C_8
REMARK    4  A    between atoms: C_16  and  N_17
REMARK    5  A    between atoms: C_18  and  C_20
REMARK    6  A    between atoms: C_20  and  C_21
REMARK    7  A    between atoms: C_25  and  C_26
REMARK    8  A    between atoms: C_27  and  C_28
REMARK                            x       y       z     vdW  Elec       q    Type
REMARK                         _______ _______ _______ _____ _____    ______ ____
ROOT
ATOM      1  C   UNL     1       4.263   5.522  18.236  0.00  0.00    +0.000 A 
ATOM      2  O   UNL     1       4.657   4.329  18.763  0.00  0.00    +0.000 OA
ATOM      3  C   UNL     1       3.696   3.900  19.599  0.00  0.00    +0.000 A 
ATOM      4  C   UNL     1       3.782   2.697  20.308  0.00  0.00    +0.000 A 
ATOM      5  C   UNL     1       2.711   2.357  21.120  0.00  0.00    +0.000 A 
ATOM      6  C   UNL     1       1.620   3.196  21.214  0.00  0.00    +0.000 A 
ATOM      7  C   UNL     1       1.576   4.426  20.500  0.00  0.00    +0.000 A 
ATOM      8  C   UNL     1       2.646   4.812  19.660  0.00  0.00    +0.000 A 
ATOM      9  C   UNL     1       3.030   5.924  18.793  0.00  0.00    +0.000 A 
ENDROOT
BRANCH   9  10
ATOM     10  N   UNL     1       2.385   7.159  18.493  0.00  0.00    +0.000 N 
ATOM     11  C   UNL     1       1.941   8.136  19.369  0.00  0.00    +0.000 C 
ATOM     12  O   UNL     1       2.047   8.072  20.599  0.00  0.00    +0.000 OA
ATOM     13  H   UNL     1       2.360   7.376  17.490  0.00  0.00    +0.000 HD
BRANCH  11  14
ATOM     14  C   UNL     1       1.290   9.449  18.735  0.00  0.00    +0.000 C 
BRANCH  14  15
ATOM     15  C   UNL     1      -0.228   9.551  18.958  0.00  0.00    +0.000 A 
ATOM     16  C   UNL     1      -0.588   9.648  20.290  0.00  0.00    +0.000 A 
ATOM     17  O   UNL     1      -0.601  11.022  20.461  0.00  0.00    +0.000 OA
ATOM     18  C   UNL     1      -1.285  11.455  19.358  0.00  0.00    +0.000 A 
ATOM     19  C   UNL     1      -2.166  12.511  19.527  0.00  0.00    +0.000 A 
ATOM     20  C   UNL     1      -1.843  13.497  20.592  0.00  0.00    +0.000 C 
ATOM     21  C   UNL     1      -3.451  12.189  19.055  0.00  0.00    +0.000 A 
ATOM     22  C   UNL     1      -4.650  12.812  19.731  0.00  0.00    +0.000 C 
ATOM     23  C   UNL     1      -3.616  11.132  18.128  0.00  0.00    +0.000 A 
ATOM     24  C   UNL     1      -2.533  10.278  17.755  0.00  0.00    +0.000 A 
ATOM     25  C   UNL     1      -1.277  10.437  18.419  0.00  0.00    +0.000 A 
ENDBRANCH  14  15
ENDBRANCH  11  14
ENDBRANCH   9  10
BRANCH   1  26
ATOM     26  C   UNL     1       5.197   6.101  17.283  0.00  0.00    +0.000 C 
ATOM     27  O   UNL     1       5.658   7.233  17.427  0.00  0.00    +0.000 OA
BRANCH  26  32
ATOM     28  C   UNL     1       6.687   3.499  12.238  0.00  0.00    +0.000 C 
ATOM     29  C   UNL     1       6.340   4.082  13.582  0.00  0.00    +0.000 A 
ATOM     30  C   UNL     1       7.266   4.837  14.312  0.00  0.00    +0.000 A 
ATOM     31  C   UNL     1       6.902   5.449  15.527  0.00  0.00    +0.000 A 
ATOM     32  C   UNL     1       5.604   5.312  16.047  0.00  0.00    +0.000 A 
ATOM     33  C   UNL     1       4.695   4.511  15.336  0.00  0.00    +0.000 A 
ATOM     34  C   UNL     1       5.059   3.906  14.117  0.00  0.00    +0.000 A 
ENDBRANCH  26  32
ENDBRANCH   1  26
TORSDOF 5
ENDMDL
MODEL 9
REMARK VINA RESULT:      -8.9      9.083     11.774
REMARK  Name = 
REMARK  8 active torsions:
REMARK  status: ('A' for Active; 'I' for Inactive)
REMARK    1  A    between atoms: C_1  and  C_2
REMARK    2  A    between atoms: C_5  and  C_6
REMARK    3  A    between atoms: C_6  and  C_8
REMARK    4  A    between atoms: C_16  and  N_17
REMARK    5  A    between atoms: C_18  and  C_20
REMARK    6  A    between atoms: C_20  and  C_21
REMARK    7  A    between atoms: C_25  and  C_26
REMARK    8  A    between atoms: C_27  and  C_28
REMARK                            x       y       z     vdW  Elec       q    Type
REMARK                         _______ _______ _______ _____ _____    ______ ____
ROOT
ATOM      1  C   UNL     1      -0.331  10.612  18.658  0.00  0.00    +0.000 A 
ATOM      2  O   UNL     1      -0.724   9.907  17.560  0.00  0.00    +0.000 OA
ATOM      3  C   UNL     1      -1.989  10.255  17.266  0.00  0.00    +0.000 A 
ATOM      4  C   UNL     1      -2.697   9.716  16.187  0.00  0.00    +0.000 A 
ATOM      5  C   UNL     1      -3.988  10.178  15.978  0.00  0.00    +0.000 A 
ATOM      6  C   UNL     1      -4.530  11.125  16.822  0.00  0.00    +0.000 A 
ATOM      7  C   UNL     1      -3.791  11.633  17.927  0.00  0.00    +0.000 A 
ATOM      8  C   UNL     1      -2.472  11.190  18.177  0.00  0.00    +0.000 A 
ATOM      9  C   UNL     1      -1.394  11.404  19.141  0.00  0.00    +0.000 A 
ENDROOT
BRANCH   9  10
ATOM     10  N   UNL     1      -1.318  12.209  20.315  0.00  0.00    +0.000 N 
ATOM     11  C   UNL     1      -1.108  11.808  21.624  0.00  0.00    +0.000 C 
ATOM     12  O   UNL     1      -0.948  10.634  21.978  0.00  0.00    +0.000 OA
ATOM     13  H   UNL     1      -1.310  13.217  20.122  0.00  0.00    +0.000 HD
BRANCH  11  14
ATOM     14  C   UNL     1      -1.025  12.950  22.737  0.00  0.00    +0.000 C 
BRANCH  14  15
ATOM     15  C   UNL     1      -2.398  13.377  23.283  0.00  0.00    +0.000 A 
ATOM     16  C   UNL     1      -2.898  14.523  22.691  0.00  0.00    +0.000 A 
ATOM     17  O   UNL     1      -3.627  13.983  21.645  0.00  0.00    +0.000 OA
ATOM     18  C   UNL     1      -4.312  12.966  22.251  0.00  0.00    +0.000 A 
ATOM     19  C   UNL     1      -5.620  12.750  21.849  0.00  0.00    +0.000 A 
ATOM     20  C   UNL     1      -5.961  13.095  20.443  0.00  0.00    +0.000 C 
ATOM     21  C   UNL     1      -6.503  12.758  22.943  0.00  0.00    +0.000 A 
ATOM     22  C   UNL     1      -7.916  13.247  22.733  0.00  0.00    +0.000 C 
ATOM     23  C   UNL     1      -6.005  12.534  24.250  0.00  0.00    +0.000 A 
ATOM     24  C   UNL     1      -4.606  12.439  24.519  0.00  0.00    +0.000 A 
ATOM     25  C   UNL     1      -3.686  12.681  23.452  0.00  0.00    +0.000 A 
ENDBRANCH  14  15
ENDBRANCH  11  14
ENDBRANCH   9  10
BRANCH   1  26
ATOM     26  C   UNL     1       1.037  10.360  19.082  0.00  0.00    +0.000 C 
ATOM     27  O   UNL     1       1.758  11.254  19.523  0.00  0.00    +0.000 OA
BRANCH  26  32
ATOM     28  C   UNL     1       3.719   5.144  18.862  0.00  0.00    +0.000 C 
ATOM     29  C   UNL     1       2.946   6.436  18.882  0.00  0.00    +0.000 A 
ATOM     30  C   UNL     1       2.194   6.821  19.999  0.00  0.00    +0.000 A 
ATOM     31  C   UNL     1       1.546   8.070  20.038  0.00  0.00    +0.000 A 
ATOM     32  C   UNL     1       1.624   8.962  18.955  0.00  0.00    +0.000 A 
ATOM     33  C   UNL     1       2.337   8.548  17.817  0.00  0.00    +0.000 A 
ATOM     34  C   UNL     1       2.991   7.302  17.783  0.00  0.00    +0.000 A 
ENDBRANCH  26  32
ENDBRANCH   1  26
TORSDOF 5
ENDMDL
