MODEL 1
REMARK VINA RESULT:      -8.7      0.000      0.000
REMARK  Name = 
REMARK  7 active torsions:
REMARK  status: ('A' for Active; 'I' for Inactive)
REMARK    1  A    between atoms: C_1  and  C_2
REMARK    2  A    between atoms: C_2  and  N_3
REMARK    3  A    between atoms: C_2  and  C_26
REMARK    4  A    between atoms: C_4  and  C_6
REMARK    5  A    between atoms: C_9  and  C_10
REMARK    6  A    between atoms: C_10  and  N_11
REMARK    7  A    between atoms: C_12  and  C_14
REMARK                            x       y       z     vdW  Elec       q    Type
REMARK                         _______ _______ _______ _____ _____    ______ ____
ROOT
ATOM      1  C   UNL     1      -2.205  11.453  17.036  0.00  0.00    +0.000 C 
ATOM      2  C   UNL     1      -1.875  12.351  18.241  0.00  0.00    +0.000 C 
ATOM      3  C   UNL     1      -1.737  11.639  19.592  0.00  0.00    +0.000 C 
ATOM      4  C   UNL     1      -0.960  10.314  19.561  0.00  0.00    +0.000 C 
ATOM      5  C   UNL     1      -1.511   9.431  18.433  0.00  0.00    +0.000 C 
ATOM      6  C   UNL     1      -1.440  10.124  17.073  0.00  0.00    +0.000 C 
ENDROOT
BRANCH   1   8
ATOM      7  N   UNL     1      -4.504  12.062  17.599  0.00  0.00    +0.000 N 
ATOM      8  C   UNL     1      -3.717  11.244  16.820  0.00  0.00    +0.000 C 
ATOM      9  O   UNL     1      -4.182  10.455  16.006  0.00  0.00    +0.000 OA
ATOM     10  H   UNL     1      -4.056  12.734  18.206  0.00  0.00    +0.000 HD
BRANCH   7  12
ATOM     11  C   UNL     1      -6.479  13.492  17.163  0.00  0.00    +0.000 C 
ATOM     12  C   UNL     1      -5.958  12.094  17.510  0.00  0.00    +0.000 C 
BRANCH  12  13
ATOM     13  C   UNL     1      -6.568  11.606  18.811  0.00  0.00    +0.000 A 
ATOM     14  C   UNL     1      -6.812  10.238  18.999  0.00  0.00    +0.000 A 
ATOM     15  C   UNL     1      -7.415   9.777  20.171  0.00  0.00    +0.000 A 
ATOM     16  C   UNL     1      -7.773  10.676  21.173  0.00  0.00    +0.000 A 
ATOM     17  C   UNL     1      -7.520  12.036  21.010  0.00  0.00    +0.000 A 
ATOM     18  C   UNL     1      -6.918  12.498  19.839  0.00  0.00    +0.000 A 
ENDBRANCH  12  13
ENDBRANCH   7  12
ENDBRANCH   1   8
BRANCH   4  19
ATOM     19  C   UNL     1       0.567  10.468  19.431  0.00  0.00    +0.000 C 
BRANCH  19  20
ATOM     20  N   UNL     1       1.285   9.231  19.630  0.00  0.00    +0.000 N 
ATOM     21  C   UNL     1       1.945   8.586  18.609  0.00  0.00    +0.000 C 
ATOM     22  O   UNL     1       2.038   9.042  17.470  0.00  0.00    +0.000 OA
ATOM     23  H   UNL     1       1.234   8.722  20.510  0.00  0.00    +0.000 HD
BRANCH  21  24
ATOM     24  C   UNL     1       2.556   7.227  18.989  0.00  0.00    +0.000 C 
ATOM     25  C   UNL     1       2.164   6.206  17.906  0.00  0.00    +0.000 C 
ATOM     26  C   UNL     1       2.601   4.830  18.328  0.00  0.00    +0.000 A 
ATOM     27  C   UNL     1       3.141   3.906  17.433  0.00  0.00    +0.000 A 
ATOM     28  C   UNL     1       3.518   2.643  17.889  0.00  0.00    +0.000 A 
ATOM     29  C   UNL     1       3.345   2.303  19.232  0.00  0.00    +0.000 A 
ATOM     30  C   UNL     1       2.789   3.221  20.125  0.00  0.00    +0.000 A 
ATOM     31  C   UNL     1       2.417   4.491  19.678  0.00  0.00    +0.000 A 
ATOM     32  C   UNL     1       1.731   5.496  20.565  0.00  0.00    +0.000 C 
ATOM     33  N   UNL     1       2.234   6.868  20.410  0.00  0.00    +0.000 NA
ATOM     34  H   UNL     1       3.111   6.932  20.929  0.00  0.00    +0.000 HD
ENDBRANCH  21  24
ENDBRANCH  19  20
ENDBRANCH   4  19
TORSDOF 6
ENDMDL
MODEL 2
REMARK VINA RESULT:      -8.4      1.979      2.406
REMARK  Name = 
REMARK  7 active torsions:
REMARK  status: ('A' for Active; 'I' for Inactive)
REMARK    1  A    between atoms: C_1  and  C_2
REMARK    2  A    between atoms: C_2  and  N_3
REMARK    3  A    between atoms: C_2  and  C_26
REMARK    4  A    between atoms: C_4  and  C_6
REMARK    5  A    between atoms: C_9  and  C_10
REMARK    6  A    between atoms: C_10  and  N_11
REMARK    7  A    between atoms: C_12  and  C_14
REMARK                            x       y       z     vdW  Elec       q    Type
REMARK                         _______ _______ _______ _____ _____    ______ ____
ROOT
ATOM      1  C   UNL     1      -2.200  11.585  18.073  0.00  0.00    +0.000 C 
ATOM      2  C   UNL     1      -1.197  12.664  18.520  0.00  0.00    +0.000 C 
ATOM      3  C   UNL     1      -0.436  12.377  19.818  0.00  0.00    +0.000 C 
ATOM      4  C   UNL     1       0.075  10.937  19.978  0.00  0.00    +0.000 C 
ATOM      5  C   UNL     1      -1.071   9.959  19.687  0.00  0.00    +0.000 C 
ATOM      6  C   UNL     1      -1.664  10.165  18.293  0.00  0.00    +0.000 C 
ENDROOT
BRANCH   1   8
ATOM      7  N   UNL     1      -3.651  12.653  19.725  0.00  0.00    +0.000 N 
ATOM      8  C   UNL     1      -3.609  11.770  18.670  0.00  0.00    +0.000 C 
ATOM      9  O   UNL     1      -4.610  11.216  18.228  0.00  0.00    +0.000 OA
ATOM     10  H   UNL     1      -2.799  13.122  20.000  0.00  0.00    +0.000 HD
BRANCH   7  12
ATOM     11  C   UNL     1      -5.293  14.479  20.055  0.00  0.00    +0.000 C 
ATOM     12  C   UNL     1      -4.884  13.041  20.396  0.00  0.00    +0.000 C 
BRANCH  12  13
ATOM     13  C   UNL     1      -4.735  12.871  21.896  0.00  0.00    +0.000 A 
ATOM     14  C   UNL     1      -3.481  12.565  22.444  0.00  0.00    +0.000 A 
ATOM     15  C   UNL     1      -3.335  12.360  23.817  0.00  0.00    +0.000 A 
ATOM     16  C   UNL     1      -4.439  12.466  24.661  0.00  0.00    +0.000 A 
ATOM     17  C   UNL     1      -5.687  12.788  24.135  0.00  0.00    +0.000 A 
ATOM     18  C   UNL     1      -5.835  12.993  22.763  0.00  0.00    +0.000 A 
ENDBRANCH  12  13
ENDBRANCH   7  12
ENDBRANCH   1   8
BRANCH   4  19
ATOM     19  C   UNL     1       1.309  10.595  19.121  0.00  0.00    +0.000 C 
BRANCH  19  20
ATOM     20  N   UNL     1       1.813   9.262  19.352  0.00  0.00    +0.000 N 
ATOM     21  C   UNL     1       2.242   8.445  18.331  0.00  0.00    +0.000 C 
ATOM     22  O   UNL     1       2.298   8.806  17.155  0.00  0.00    +0.000 OA
ATOM     23  H   UNL     1       1.763   8.826  20.271  0.00  0.00    +0.000 HD
BRANCH  21  24
ATOM     24  C   UNL     1       2.638   7.023  18.760  0.00  0.00    +0.000 C 
ATOM     25  C   UNL     1       1.949   6.027  17.811  0.00  0.00    +0.000 C 
ATOM     26  C   UNL     1       2.177   4.623  18.301  0.00  0.00    +0.000 A 
ATOM     27  C   UNL     1       2.438   3.558  17.438  0.00  0.00    +0.000 A 
ATOM     28  C   UNL     1       2.631   2.279  17.958  0.00  0.00    +0.000 A 
ATOM     29  C   UNL     1       2.554   2.064  19.335  0.00  0.00    +0.000 A 
ATOM     30  C   UNL     1       2.276   3.126  20.199  0.00  0.00    +0.000 A 
ATOM     31  C   UNL     1       2.089   4.412  19.686  0.00  0.00    +0.000 A 
ATOM     32  C   UNL     1       1.699   5.582  20.550  0.00  0.00    +0.000 C 
ATOM     33  N   UNL     1       2.420   6.822  20.231  0.00  0.00    +0.000 NA
ATOM     34  H   UNL     1       3.347   6.754  20.653  0.00  0.00    +0.000 HD
ENDBRANCH  21  24
ENDBRANCH  19  20
ENDBRANCH   4  19
TORSDOF 6
ENDMDL
MODEL 3
REMARK VINA RESULT:      -8.4      1.290      1.619
REMARK  Name = 
REMARK  7 active torsions:
REMARK  status: ('A' for Active; 'I' for Inactive)
REMARK    1  A    between atoms: C_1  and  C_2
REMARK    2  A    between atoms: C_2  and  N_3
REMARK    3  A    between atoms: C_2  and  C_26
REMARK    4  A    between atoms: C_4  and  C_6
REMARK    5  A    between atoms: C_9  and  C_10
REMARK    6  A    between atoms: C_10  and  N_11
REMARK    7  A    between atoms: C_12  and  C_14
REMARK                            x       y       z     vdW  Elec       q    Type
REMARK                         _______ _______ _______ _____ _____    ______ ____
ROOT
ATOM      1  C   UNL     1      -2.227  11.444  17.387  0.00  0.00    +0.000 C 
ATOM      2  C   UNL     1      -1.444  12.435  18.265  0.00  0.00    +0.000 C 
ATOM      3  C   UNL     1      -1.026  11.923  19.648  0.00  0.00    +0.000 C 
ATOM      4  C   UNL     1      -0.483  10.485  19.680  0.00  0.00    +0.000 C 
ATOM      5  C   UNL     1      -1.452   9.562  18.929  0.00  0.00    +0.000 C 
ATOM      6  C   UNL     1      -1.677  10.016  17.487  0.00  0.00    +0.000 C 
ENDROOT
BRANCH   1   8
ATOM      7  N   UNL     1      -4.116  12.096  18.795  0.00  0.00    +0.000 N 
ATOM      8  C   UNL     1      -3.751  11.494  17.611  0.00  0.00    +0.000 C 
ATOM      9  O   UNL     1      -4.570  11.074  16.801  0.00  0.00    +0.000 OA
ATOM     10  H   UNL     1      -3.393  12.475  19.390  0.00  0.00    +0.000 HD
BRANCH   7  12
ATOM     11  C   UNL     1      -6.113  13.520  18.448  0.00  0.00    +0.000 C 
ATOM     12  C   UNL     1      -5.501  12.322  19.183  0.00  0.00    +0.000 C 
BRANCH  12  13
ATOM     13  C   UNL     1      -5.593  12.516  20.685  0.00  0.00    +0.000 A 
ATOM     14  C   UNL     1      -6.843  12.470  21.321  0.00  0.00    +0.000 A 
ATOM     15  C   UNL     1      -6.951  12.692  22.695  0.00  0.00    +0.000 A 
ATOM     16  C   UNL     1      -5.810  12.953  23.453  0.00  0.00    +0.000 A 
ATOM     17  C   UNL     1      -4.560  12.983  22.840  0.00  0.00    +0.000 A 
ATOM     18  C   UNL     1      -4.451  12.762  21.466  0.00  0.00    +0.000 A 
ENDBRANCH  12  13
ENDBRANCH   7  12
ENDBRANCH   1   8
BRANCH   4  19
ATOM     19  C   UNL     1       0.949  10.328  19.136  0.00  0.00    +0.000 C 
BRANCH  19  20
ATOM     20  N   UNL     1       1.502   9.013  19.355  0.00  0.00    +0.000 N 
ATOM     21  C   UNL     1       2.230   8.346  18.396  0.00  0.00    +0.000 C 
ATOM     22  O   UNL     1       2.526   8.839  17.308  0.00  0.00    +0.000 OA
ATOM     23  H   UNL     1       1.278   8.474  20.189  0.00  0.00    +0.000 HD
BRANCH  21  24
ATOM     24  C   UNL     1       2.640   6.913  18.773  0.00  0.00    +0.000 C 
ATOM     25  C   UNL     1       1.921   5.942  17.819  0.00  0.00    +0.000 C 
ATOM     26  C   UNL     1       2.165   4.525  18.262  0.00  0.00    +0.000 A 
ATOM     27  C   UNL     1       2.399   3.486  17.362  0.00  0.00    +0.000 A 
ATOM     28  C   UNL     1       2.609   2.193  17.840  0.00  0.00    +0.000 A 
ATOM     29  C   UNL     1       2.576   1.939  19.213  0.00  0.00    +0.000 A 
ATOM     30  C   UNL     1       2.325   2.976  20.114  0.00  0.00    +0.000 A 
ATOM     31  C   UNL     1       2.121   4.276  19.643  0.00  0.00    +0.000 A 
ATOM     32  C   UNL     1       1.759   5.421  20.551  0.00  0.00    +0.000 C 
ATOM     33  N   UNL     1       2.469   6.671  20.244  0.00  0.00    +0.000 NA
ATOM     34  H   UNL     1       3.409   6.593  20.634  0.00  0.00    +0.000 HD
ENDBRANCH  21  24
ENDBRANCH  19  20
ENDBRANCH   4  19
TORSDOF 6
ENDMDL
MODEL 4
REMARK VINA RESULT:      -8.1      1.632      2.212
REMARK  Name = 
REMARK  7 active torsions:
REMARK  status: ('A' for Active; 'I' for Inactive)
REMARK    1  A    between atoms: C_1  and  C_2
REMARK    2  A    between atoms: C_2  and  N_3
REMARK    3  A    between atoms: C_2  and  C_26
REMARK    4  A    between atoms: C_4  and  C_6
REMARK    5  A    between atoms: C_9  and  C_10
REMARK    6  A    between atoms: C_10  and  N_11
REMARK    7  A    between atoms: C_12  and  C_14
REMARK                            x       y       z     vdW  Elec       q    Type
REMARK                         _______ _______ _______ _____ _____    ______ ____
ROOT
ATOM      1  C   UNL     1      -2.274  11.459  17.515  0.00  0.00    +0.000 C 
ATOM      2  C   UNL     1      -1.455  12.483  18.320  0.00  0.00    +0.000 C 
ATOM      3  C   UNL     1      -0.987  12.029  19.707  0.00  0.00    +0.000 C 
ATOM      4  C   UNL     1      -0.449  10.592  19.782  0.00  0.00    +0.000 C 
ATOM      5  C   UNL     1      -1.448   9.642  19.108  0.00  0.00    +0.000 C 
ATOM      6  C   UNL     1      -1.726  10.034  17.657  0.00  0.00    +0.000 C 
ENDROOT
BRANCH   1   8
ATOM      7  N   UNL     1      -4.111  12.251  18.920  0.00  0.00    +0.000 N 
ATOM      8  C   UNL     1      -3.789  11.527  17.794  0.00  0.00    +0.000 C 
ATOM      9  O   UNL     1      -4.635  11.019  17.067  0.00  0.00    +0.000 OA
ATOM     10  H   UNL     1      -3.369  12.695  19.441  0.00  0.00    +0.000 HD
BRANCH   7  12
ATOM     11  C   UNL     1      -6.065  13.748  18.643  0.00  0.00    +0.000 C 
ATOM     12  C   UNL     1      -5.482  12.513  19.337  0.00  0.00    +0.000 C 
BRANCH  12  13
ATOM     13  C   UNL     1      -5.544  12.670  20.845  0.00  0.00    +0.000 A 
ATOM     14  C   UNL     1      -4.364  12.861  21.578  0.00  0.00    +0.000 A 
ATOM     15  C   UNL     1      -4.398  12.961  22.970  0.00  0.00    +0.000 A 
ATOM     16  C   UNL     1      -5.614  12.881  23.646  0.00  0.00    +0.000 A 
ATOM     17  C   UNL     1      -6.797  12.710  22.932  0.00  0.00    +0.000 A 
ATOM     18  C   UNL     1      -6.764  12.608  21.540  0.00  0.00    +0.000 A 
ENDBRANCH  12  13
ENDBRANCH   7  12
ENDBRANCH   1   8
BRANCH   4  19
ATOM     19  C   UNL     1       0.961  10.403  19.192  0.00  0.00    +0.000 C 
BRANCH  19  20
ATOM     20  N   UNL     1       1.411   9.032  19.215  0.00  0.00    +0.000 N 
ATOM     21  C   UNL     1       2.088   8.456  18.163  0.00  0.00    +0.000 C 
ATOM     22  O   UNL     1       2.425   9.078  17.156  0.00  0.00    +0.000 OA
ATOM     23  H   UNL     1       1.143   8.396  19.964  0.00  0.00    +0.000 HD
BRANCH  21  24
ATOM     24  C   UNL     1       2.386   6.957  18.326  0.00  0.00    +0.000 C 
ATOM     25  C   UNL     1       2.282   6.608  19.821  0.00  0.00    +0.000 C 
ATOM     26  C   UNL     1       2.731   5.189  20.040  0.00  0.00    +0.000 A 
ATOM     27  C   UNL     1       2.091   4.327  20.932  0.00  0.00    +0.000 A 
ATOM     28  C   UNL     1       2.565   3.026  21.094  0.00  0.00    +0.000 A 
ATOM     29  C   UNL     1       3.680   2.591  20.375  0.00  0.00    +0.000 A 
ATOM     30  C   UNL     1       4.331   3.458  19.495  0.00  0.00    +0.000 A 
ATOM     31  C   UNL     1       3.858   4.761  19.321  0.00  0.00    +0.000 A 
ATOM     32  C   UNL     1       4.564   5.773  18.457  0.00  0.00    +0.000 C 
ATOM     33  N   UNL     1       3.659   6.580  17.627  0.00  0.00    +0.000 NA
ATOM     34  H   UNL     1       3.389   6.009  16.825  0.00  0.00    +0.000 HD
ENDBRANCH  21  24
ENDBRANCH  19  20
ENDBRANCH   4  19
TORSDOF 6
ENDMDL
MODEL 5
REMARK VINA RESULT:      -7.9      7.485     11.069
REMARK  Name = 
REMARK  7 active torsions:
REMARK  status: ('A' for Active; 'I' for Inactive)
REMARK    1  A    between atoms: C_1  and  C_2
REMARK    2  A    between atoms: C_2  and  N_3
REMARK    3  A    between atoms: C_2  and  C_26
REMARK    4  A    between atoms: C_4  and  C_6
REMARK    5  A    between atoms: C_9  and  C_10
REMARK    6  A    between atoms: C_10  and  N_11
REMARK    7  A    between atoms: C_12  and  C_14
REMARK                            x       y       z     vdW  Elec       q    Type
REMARK                         _______ _______ _______ _____ _____    ______ ____
ROOT
ATOM      1  C   UNL     1       5.710   4.575  16.368  0.00  0.00    +0.000 C 
ATOM      2  C   UNL     1       5.137   5.924  15.901  0.00  0.00    +0.000 C 
ATOM      3  C   UNL     1       5.207   7.071  16.915  0.00  0.00    +0.000 C 
ATOM      4  C   UNL     1       6.527   7.182  17.694  0.00  0.00    +0.000 C 
ATOM      5  C   UNL     1       6.892   5.806  18.268  0.00  0.00    +0.000 C 
ATOM      6  C   UNL     1       7.002   4.739  17.178  0.00  0.00    +0.000 C 
ENDROOT
BRANCH   1   8
ATOM      7  N   UNL     1       5.109   3.237  18.324  0.00  0.00    +0.000 N 
ATOM      8  C   UNL     1       4.681   3.687  17.095  0.00  0.00    +0.000 C 
ATOM      9  O   UNL     1       3.569   3.431  16.646  0.00  0.00    +0.000 OA
ATOM     10  H   UNL     1       6.014   3.535  18.662  0.00  0.00    +0.000 HD
BRANCH   7  12
ATOM     11  C   UNL     1       3.745   1.181  18.542  0.00  0.00    +0.000 C 
ATOM     12  C   UNL     1       4.278   2.447  19.221  0.00  0.00    +0.000 C 
BRANCH  12  13
ATOM     13  C   UNL     1       3.132   3.293  19.745  0.00  0.00    +0.000 A 
ATOM     14  C   UNL     1       1.886   2.702  19.999  0.00  0.00    +0.000 A 
ATOM     15  C   UNL     1       0.808   3.473  20.438  0.00  0.00    +0.000 A 
ATOM     16  C   UNL     1       0.965   4.843  20.637  0.00  0.00    +0.000 A 
ATOM     17  C   UNL     1       2.201   5.442  20.408  0.00  0.00    +0.000 A 
ATOM     18  C   UNL     1       3.279   4.673  19.969  0.00  0.00    +0.000 A 
ENDBRANCH  12  13
ENDBRANCH   7  12
ENDBRANCH   1   8
BRANCH   4  19
ATOM     19  C   UNL     1       7.702   7.761  16.885  0.00  0.00    +0.000 C 
BRANCH  19  20
ATOM     20  N   UNL     1       8.109   9.073  17.329  0.00  0.00    +0.000 N 
ATOM     21  C   UNL     1       8.703   9.290  18.552  0.00  0.00    +0.000 C 
ATOM     22  O   UNL     1       8.999   8.384  19.330  0.00  0.00    +0.000 OA
ATOM     23  H   UNL     1       7.867   9.911  16.805  0.00  0.00    +0.000 HD
BRANCH  21  24
ATOM     24  C   UNL     1       8.962  10.766  18.894  0.00  0.00    +0.000 C 
ATOM     25  C   UNL     1       9.992  11.317  17.891  0.00  0.00    +0.000 C 
ATOM     26  C   UNL     1      10.397  12.708  18.296  0.00  0.00    +0.000 A 
ATOM     27  C   UNL     1      10.600  13.731  17.370  0.00  0.00    +0.000 A 
ATOM     28  C   UNL     1      10.984  14.997  17.812  0.00  0.00    +0.000 A 
ATOM     29  C   UNL     1      11.174  15.235  19.175  0.00  0.00    +0.000 A 
ATOM     30  C   UNL     1      10.988  14.207  20.101  0.00  0.00    +0.000 A 
ATOM     31  C   UNL     1      10.596  12.938  19.667  0.00  0.00    +0.000 A 
ATOM     32  C   UNL     1      10.465  11.764  20.601  0.00  0.00    +0.000 C 
ATOM     33  N   UNL     1       9.276  10.936  20.352  0.00  0.00    +0.000 NA
ATOM     34  H   UNL     1       8.476  11.419  20.764  0.00  0.00    +0.000 HD
ENDBRANCH  21  24
ENDBRANCH  19  20
ENDBRANCH   4  19
TORSDOF 6
ENDMDL
MODEL 6
REMARK VINA RESULT:      -7.9      2.030      2.428
REMARK  Name = 
REMARK  7 active torsions:
REMARK  status: ('A' for Active; 'I' for Inactive)
REMARK    1  A    between atoms: C_1  and  C_2
REMARK    2  A    between atoms: C_2  and  N_3
REMARK    3  A    between atoms: C_2  and  C_26
REMARK    4  A    between atoms: C_4  and  C_6
REMARK    5  A    between atoms: C_9  and  C_10
REMARK    6  A    between atoms: C_10  and  N_11
REMARK    7  A    between atoms: C_12  and  C_14
REMARK                            x       y       z     vdW  Elec       q    Type
REMARK                         _______ _______ _______ _____ _____    ______ ____
ROOT
ATOM      1  C   UNL     1      -2.283  11.648  17.685  0.00  0.00    +0.000 C 
ATOM      2  C   UNL     1      -1.207  12.503  18.375  0.00  0.00    +0.000 C 
ATOM      3  C   UNL     1      -0.532  11.875  19.599  0.00  0.00    +0.000 C 
ATOM      4  C   UNL     1      -0.163  10.390  19.458  0.00  0.00    +0.000 C 
ATOM      5  C   UNL     1      -1.380   9.614  18.938  0.00  0.00    +0.000 C 
ATOM      6  C   UNL     1      -1.890  10.168  17.607  0.00  0.00    +0.000 C 
ENDROOT
BRANCH   1   8
ATOM      7  N   UNL     1      -3.704  12.508  19.478  0.00  0.00    +0.000 N 
ATOM      8  C   UNL     1      -3.695  11.841  18.274  0.00  0.00    +0.000 C 
ATOM      9  O   UNL     1      -4.720  11.473  17.712  0.00  0.00    +0.000 OA
ATOM     10  H   UNL     1      -2.828  12.838  19.857  0.00  0.00    +0.000 HD
BRANCH   7  12
ATOM     11  C   UNL     1      -5.430  14.260  19.779  0.00  0.00    +0.000 C 
ATOM     12  C   UNL     1      -4.926  12.870  20.183  0.00  0.00    +0.000 C 
BRANCH  12  13
ATOM     13  C   UNL     1      -4.700  12.801  21.682  0.00  0.00    +0.000 A 
ATOM     14  C   UNL     1      -3.424  12.509  22.184  0.00  0.00    +0.000 A 
ATOM     15  C   UNL     1      -3.209  12.396  23.559  0.00  0.00    +0.000 A 
ATOM     16  C   UNL     1      -4.264  12.583  24.449  0.00  0.00    +0.000 A 
ATOM     17  C   UNL     1      -5.534  12.892  23.967  0.00  0.00    +0.000 A 
ATOM     18  C   UNL     1      -5.751  13.004  22.594  0.00  0.00    +0.000 A 
ENDBRANCH  12  13
ENDBRANCH   7  12
ENDBRANCH   1   8
BRANCH   4  19
ATOM     19  C   UNL     1       1.070  10.117  18.577  0.00  0.00    +0.000 C 
BRANCH  19  20
ATOM     20  N   UNL     1       1.562   8.764  18.687  0.00  0.00    +0.000 N 
ATOM     21  C   UNL     1       1.813   8.163  19.899  0.00  0.00    +0.000 C 
ATOM     22  O   UNL     1       1.573   8.698  20.981  0.00  0.00    +0.000 OA
ATOM     23  H   UNL     1       1.856   8.237  17.867  0.00  0.00    +0.000 HD
BRANCH  21  24
ATOM     24  C   UNL     1       2.438   6.761  19.811  0.00  0.00    +0.000 C 
ATOM     25  C   UNL     1       2.408   6.315  18.338  0.00  0.00    +0.000 C 
ATOM     26  C   UNL     1       2.856   4.882  18.236  0.00  0.00    +0.000 A 
ATOM     27  C   UNL     1       3.674   4.423  17.204  0.00  0.00    +0.000 A 
ATOM     28  C   UNL     1       4.045   3.079  17.163  0.00  0.00    +0.000 A 
ATOM     29  C   UNL     1       3.591   2.197  18.145  0.00  0.00    +0.000 A 
ATOM     30  C   UNL     1       2.758   2.652  19.169  0.00  0.00    +0.000 A 
ATOM     31  C   UNL     1       2.388   3.999  19.221  0.00  0.00    +0.000 A 
ATOM     32  C   UNL     1       1.423   4.537  20.245  0.00  0.00    +0.000 C 
ATOM     33  N   UNL     1       1.822   5.831  20.815  0.00  0.00    +0.000 NA
ATOM     34  H   UNL     1       2.541   5.647  21.516  0.00  0.00    +0.000 HD
ENDBRANCH  21  24
ENDBRANCH  19  20
ENDBRANCH   4  19
TORSDOF 6
ENDMDL
MODEL 7
REMARK VINA RESULT:      -7.9      2.124      2.658
REMARK  Name = 
REMARK  7 active torsions:
REMARK  status: ('A' for Active; 'I' for Inactive)
REMARK    1  A    between atoms: C_1  and  C_2
REMARK    2  A    between atoms: C_2  and  N_3
REMARK    3  A    between atoms: C_2  and  C_26
REMARK    4  A    between atoms: C_4  and  C_6
REMARK    5  A    between atoms: C_9  and  C_10
REMARK    6  A    between atoms: C_10  and  N_11
REMARK    7  A    between atoms: C_12  and  C_14
REMARK                            x       y       z     vdW  Elec       q    Type
REMARK                         _______ _______ _______ _____ _____    ______ ____
ROOT
ATOM      1  C   UNL     1      -2.237  11.691  17.741  0.00  0.00    +0.000 C 
ATOM      2  C   UNL     1      -1.254  12.657  18.425  0.00  0.00    +0.000 C 
ATOM      3  C   UNL     1      -0.485  12.094  19.626  0.00  0.00    +0.000 C 
ATOM      4  C   UNL     1       0.052  10.665  19.452  0.00  0.00    +0.000 C 
ATOM      5  C   UNL     1      -1.077   9.759  18.942  0.00  0.00    +0.000 C 
ATOM      6  C   UNL     1      -1.675  10.269  17.631  0.00  0.00    +0.000 C 
ENDROOT
BRANCH   1   8
ATOM      7  N   UNL     1      -3.739  12.462  19.509  0.00  0.00    +0.000 N 
ATOM      8  C   UNL     1      -3.649  11.709  18.360  0.00  0.00    +0.000 C 
ATOM      9  O   UNL     1      -4.614  11.140  17.862  0.00  0.00    +0.000 OA
ATOM     10  H   UNL     1      -2.918  12.955  19.832  0.00  0.00    +0.000 HD
BRANCH   7  12
ATOM     11  C   UNL     1      -5.683  13.973  19.774  0.00  0.00    +0.000 C 
ATOM     12  C   UNL     1      -4.988  12.684  20.224  0.00  0.00    +0.000 C 
BRANCH  12  13
ATOM     13  C   UNL     1      -4.732  12.712  21.720  0.00  0.00    +0.000 A 
ATOM     14  C   UNL     1      -3.454  12.416  22.216  0.00  0.00    +0.000 A 
ATOM     15  C   UNL     1      -3.212  12.392  23.591  0.00  0.00    +0.000 A 
ATOM     16  C   UNL     1      -4.242  12.673  24.486  0.00  0.00    +0.000 A 
ATOM     17  C   UNL     1      -5.512  12.988  24.009  0.00  0.00    +0.000 A 
ATOM     18  C   UNL     1      -5.756  13.011  22.635  0.00  0.00    +0.000 A 
ENDBRANCH  12  13
ENDBRANCH   7  12
ENDBRANCH   1   8
BRANCH   4  19
ATOM     19  C   UNL     1       1.291  10.552  18.543  0.00  0.00    +0.000 C 
BRANCH  19  20
ATOM     20  N   UNL     1       1.549   9.204  18.096  0.00  0.00    +0.000 N 
ATOM     21  C   UNL     1       1.963   8.206  18.950  0.00  0.00    +0.000 C 
ATOM     22  O   UNL     1       2.076   8.361  20.165  0.00  0.00    +0.000 OA
ATOM     23  H   UNL     1       1.550   8.962  17.107  0.00  0.00    +0.000 HD
BRANCH  21  24
ATOM     24  C   UNL     1       2.295   6.867  18.271  0.00  0.00    +0.000 C 
ATOM     25  C   UNL     1       1.941   5.733  19.249  0.00  0.00    +0.000 C 
ATOM     26  C   UNL     1       2.407   4.418  18.687  0.00  0.00    +0.000 A 
ATOM     27  C   UNL     1       1.658   3.246  18.796  0.00  0.00    +0.000 A 
ATOM     28  C   UNL     1       2.154   2.058  18.260  0.00  0.00    +0.000 A 
ATOM     29  C   UNL     1       3.398   2.040  17.627  0.00  0.00    +0.000 A 
ATOM     30  C   UNL     1       4.156   3.209  17.533  0.00  0.00    +0.000 A 
ATOM     31  C   UNL     1       3.663   4.405  18.060  0.00  0.00    +0.000 A 
ATOM     32  C   UNL     1       4.465   5.679  18.072  0.00  0.00    +0.000 C 
ATOM     33  N   UNL     1       3.688   6.874  17.714  0.00  0.00    +0.000 NA
ATOM     34  H   UNL     1       3.593   6.884  16.698  0.00  0.00    +0.000 HD
ENDBRANCH  21  24
ENDBRANCH  19  20
ENDBRANCH   4  19
TORSDOF 6
ENDMDL
MODEL 8
REMARK VINA RESULT:      -7.8      4.500     11.139
REMARK  Name = 
REMARK  7 active torsions:
REMARK  status: ('A' for Active; 'I' for Inactive)
REMARK    1  A    between atoms: C_1  and  C_2
REMARK    2  A    between atoms: C_2  and  N_3
REMARK    3  A    between atoms: C_2  and  C_26
REMARK    4  A    between atoms: C_4  and  C_6
REMARK    5  A    between atoms: C_9  and  C_10
REMARK    6  A    between atoms: C_10  and  N_11
REMARK    7  A    between atoms: C_12  and  C_14
REMARK                            x       y       z     vdW  Elec       q    Type
REMARK                         _______ _______ _______ _____ _____    ______ ____
ROOT
ATOM      1  C   UNL     1       2.524   4.442  17.754  0.00  0.00    +0.000 C 
ATOM      2  C   UNL     1       1.738   3.731  18.870  0.00  0.00    +0.000 C 
ATOM      3  C   UNL     1       2.076   4.153  20.304  0.00  0.00    +0.000 C 
ATOM      4  C   UNL     1       2.253   5.664  20.521  0.00  0.00    +0.000 C 
ATOM      5  C   UNL     1       3.208   6.219  19.456  0.00  0.00    +0.000 C 
ATOM      6  C   UNL     1       2.714   5.937  18.037  0.00  0.00    +0.000 C 
ENDROOT
BRANCH   1   8
ATOM      7  N   UNL     1       4.794   4.597  16.860  0.00  0.00    +0.000 N 
ATOM      8  C   UNL     1       3.854   3.747  17.399  0.00  0.00    +0.000 C 
ATOM      9  O   UNL     1       4.076   2.560  17.609  0.00  0.00    +0.000 OA
ATOM     10  H   UNL     1       4.568   5.577  16.770  0.00  0.00    +0.000 HD
BRANCH   7  12
ATOM     11  C   UNL     1       7.204   5.020  17.243  0.00  0.00    +0.000 C 
ATOM     12  C   UNL     1       6.147   4.180  16.519  0.00  0.00    +0.000 C 
BRANCH  12  13
ATOM     13  C   UNL     1       6.348   4.250  15.016  0.00  0.00    +0.000 A 
ATOM     14  C   UNL     1       5.507   3.522  14.163  0.00  0.00    +0.000 A 
ATOM     15  C   UNL     1       5.707   3.539  12.781  0.00  0.00    +0.000 A 
ATOM     16  C   UNL     1       6.744   4.292  12.235  0.00  0.00    +0.000 A 
ATOM     17  C   UNL     1       7.576   5.037  13.067  0.00  0.00    +0.000 A 
ATOM     18  C   UNL     1       7.378   5.020  14.448  0.00  0.00    +0.000 A 
ENDBRANCH  12  13
ENDBRANCH   7  12
ENDBRANCH   1   8
BRANCH   4  19
ATOM     19  C   UNL     1       0.939   6.467  20.542  0.00  0.00    +0.000 C 
BRANCH  19  20
ATOM     20  N   UNL     1       1.133   7.871  20.820  0.00  0.00    +0.000 N 
ATOM     21  C   UNL     1       0.184   8.637  21.460  0.00  0.00    +0.000 C 
ATOM     22  O   UNL     1      -0.865   8.177  21.908  0.00  0.00    +0.000 OA
ATOM     23  H   UNL     1       1.931   8.382  20.448  0.00  0.00    +0.000 HD
BRANCH  21  24
ATOM     24  C   UNL     1       0.522  10.133  21.565  0.00  0.00    +0.000 C 
ATOM     25  C   UNL     1      -0.719  10.867  22.104  0.00  0.00    +0.000 C 
ATOM     26  C   UNL     1      -0.484  12.352  22.062  0.00  0.00    +0.000 A 
ATOM     27  C   UNL     1      -0.906  13.209  23.079  0.00  0.00    +0.000 A 
ATOM     28  C   UNL     1      -0.664  14.578  22.973  0.00  0.00    +0.000 A 
ATOM     29  C   UNL     1      -0.011  15.089  21.850  0.00  0.00    +0.000 A 
ATOM     30  C   UNL     1       0.397  14.235  20.823  0.00  0.00    +0.000 A 
ATOM     31  C   UNL     1       0.165  12.861  20.926  0.00  0.00    +0.000 A 
ATOM     32  C   UNL     1       0.497  11.896  19.818  0.00  0.00    +0.000 C 
ATOM     33  N   UNL     1       1.112  10.645  20.284  0.00  0.00    +0.000 NA
ATOM     34  H   UNL     1       2.095  10.841  20.477  0.00  0.00    +0.000 HD
ENDBRANCH  21  24
ENDBRANCH  19  20
ENDBRANCH   4  19
TORSDOF 6
ENDMDL
MODEL 9
REMARK VINA RESULT:      -7.8      2.595      3.546
REMARK  Name = 
REMARK  7 active torsions:
REMARK  status: ('A' for Active; 'I' for Inactive)
REMARK    1  A    between atoms: C_1  and  C_2
REMARK    2  A    between atoms: C_2  and  N_3
REMARK    3  A    between atoms: C_2  and  C_26
REMARK    4  A    between atoms: C_4  and  C_6
REMARK    5  A    between atoms: C_9  and  C_10
REMARK    6  A    between atoms: C_10  and  N_11
REMARK    7  A    between atoms: C_12  and  C_14
REMARK                            x       y       z     vdW  Elec       q    Type
REMARK                         _______ _______ _______ _____ _____    ______ ____
ROOT
ATOM      1  C   UNL     1      -0.021  12.034  21.191  0.00  0.00    +0.000 C 
ATOM      2  C   UNL     1      -0.563  11.103  22.289  0.00  0.00    +0.000 C 
ATOM      3  C   UNL     1      -0.948   9.689  21.841  0.00  0.00    +0.000 C 
ATOM      4  C   UNL     1       0.036   9.015  20.871  0.00  0.00    +0.000 C 
ATOM      5  C   UNL     1       0.351   9.980  19.721  0.00  0.00    +0.000 C 
ATOM      6  C   UNL     1       0.919  11.308  20.222  0.00  0.00    +0.000 C 
ENDROOT
BRANCH   1   8
ATOM      7  N   UNL     1      -2.341  12.797  21.088  0.00  0.00    +0.000 N 
ATOM      8  C   UNL     1      -1.122  12.818  20.449  0.00  0.00    +0.000 C 
ATOM      9  O   UNL     1      -0.930  13.435  19.407  0.00  0.00    +0.000 OA
ATOM     10  H   UNL     1      -2.416  12.320  21.976  0.00  0.00    +0.000 HD
BRANCH   7  12
ATOM     11  C   UNL     1      -4.114  14.413  21.708  0.00  0.00    +0.000 C 
ATOM     12  C   UNL     1      -3.507  13.530  20.613  0.00  0.00    +0.000 C 
BRANCH  12  13
ATOM     13  C   UNL     1      -4.544  12.561  20.074  0.00  0.00    +0.000 A 
ATOM     14  C   UNL     1      -4.325  11.911  18.852  0.00  0.00    +0.000 A 
ATOM     15  C   UNL     1      -5.289  11.052  18.319  0.00  0.00    +0.000 A 
ATOM     16  C   UNL     1      -6.479  10.826  19.007  0.00  0.00    +0.000 A 
ATOM     17  C   UNL     1      -6.704  11.449  20.232  0.00  0.00    +0.000 A 
ATOM     18  C   UNL     1      -5.742  12.308  20.765  0.00  0.00    +0.000 A 
ENDBRANCH  12  13
ENDBRANCH   7  12
ENDBRANCH   1   8
BRANCH   4  19
ATOM     19  C   UNL     1       1.335   8.508  21.525  0.00  0.00    +0.000 C 
BRANCH  19  20
ATOM     20  N   UNL     1       2.179   7.767  20.618  0.00  0.00    +0.000 N 
ATOM     21  C   UNL     1       2.083   6.403  20.463  0.00  0.00    +0.000 C 
ATOM     22  O   UNL     1       1.229   5.718  21.026  0.00  0.00    +0.000 OA
ATOM     23  H   UNL     1       2.963   8.208  20.141  0.00  0.00    +0.000 HD
BRANCH  21  24
ATOM     24  C   UNL     1       3.140   5.779  19.538  0.00  0.00    +0.000 C 
ATOM     25  C   UNL     1       3.204   6.618  18.249  0.00  0.00    +0.000 C 
ATOM     26  C   UNL     1       4.104   5.943  17.251  0.00  0.00    +0.000 A 
ATOM     27  C   UNL     1       4.988   6.651  16.436  0.00  0.00    +0.000 A 
ATOM     28  C   UNL     1       5.789   5.963  15.525  0.00  0.00    +0.000 A 
ATOM     29  C   UNL     1       5.698   4.574  15.423  0.00  0.00    +0.000 A 
ATOM     30  C   UNL     1       4.802   3.866  16.226  0.00  0.00    +0.000 A 
ATOM     31  C   UNL     1       4.002   4.547  17.146  0.00  0.00    +0.000 A 
ATOM     32  C   UNL     1       2.953   3.857  17.978  0.00  0.00    +0.000 C 
ATOM     33  N   UNL     1       2.914   4.304  19.377  0.00  0.00    +0.000 NA
ATOM     34  H   UNL     1       3.681   3.840  19.867  0.00  0.00    +0.000 HD
ENDBRANCH  21  24
ENDBRANCH  19  20
ENDBRANCH   4  19
TORSDOF 6
ENDMDL
