MODEL 1
REMARK VINA RESULT:      -8.7      0.000      0.000
REMARK  Name = 
REMARK  14 active torsions:
REMARK  status: ('A' for Active; 'I' for Inactive)
REMARK    1  A    between atoms: C_1  and  C_2
REMARK    2  A    between atoms: C_2  and  C_3
REMARK    3  A    between atoms: C_2  and  C_4
REMARK    4  A    between atoms: C_4  and  C_5
REMARK    5  A    between atoms: C_8  and  C_9
REMARK    6  A    between atoms: C_9  and  C_10
REMARK    7  A    between atoms: C_9  and  C_11
REMARK    8  A    between atoms: C_11  and  O_13
REMARK    9  A    between atoms: O_13  and  C_14
REMARK   10  A    between atoms: C_17  and  N_18
REMARK   11  A    between atoms: C_19  and  C_20
REMARK   12  A    between atoms: C_23  and  N_24
REMARK   13  A    between atoms: N_24  and  C_25
REMARK   14  A    between atoms: N_24  and  C_26
REMARK                            x       y       z     vdW  Elec       q    Type
REMARK                         _______ _______ _______ _____ _____    ______ ____
ROOT
ATOM      1  C   UNL     1       5.855   4.920  17.408  0.00  0.00    +0.000 A 
ATOM      2  C   UNL     1       5.475   5.993  16.604  0.00  0.00    +0.000 A 
ATOM      3  C   UNL     1       6.210   7.173  16.641  0.00  0.00    +0.000 A 
ATOM      4  C   UNL     1       7.302   7.314  17.498  0.00  0.00    +0.000 A 
ATOM      5  C   UNL     1       7.680   6.224  18.296  0.00  0.00    +0.000 A 
ATOM      6  C   UNL     1       6.950   5.027  18.263  0.00  0.00    +0.000 A 
ENDROOT
BRANCH   4   7
ATOM      7  N   UNL     1       7.962   8.550  17.473  0.00  0.00    +0.000 NA
ATOM      8  C   UNL     1       8.453   9.042  18.565  0.00  0.00    +0.000 C 
BRANCH   8   9
ATOM      9  C   UNL     1       9.050  10.392  18.587  0.00  0.00    +0.000 A 
ATOM     10  C   UNL     1       8.594  11.388  17.730  0.00  0.00    +0.000 A 
ATOM     11  C   UNL     1       9.168  12.665  17.770  0.00  0.00    +0.000 A 
ATOM     12  C   UNL     1      10.200  13.000  18.665  0.00  0.00    +0.000 A 
ATOM     13  C   UNL     1      10.624  11.972  19.522  0.00  0.00    +0.000 A 
ATOM     14  C   UNL     1      10.062  10.682  19.496  0.00  0.00    +0.000 A 
BRANCH  12  15
ATOM     15  N   UNL     1      10.801  14.254  18.640  0.00  0.00    +0.000 N 
ATOM     16  C   UNL     1      11.777  14.600  17.606  0.00  0.00    +0.000 C 
ATOM     17  C   UNL     1      10.200  15.411  19.301  0.00  0.00    +0.000 C 
ENDBRANCH  12  15
ENDBRANCH   8   9
ENDBRANCH   4   7
BRANCH   1  18
ATOM     18  O   UNL     1       5.068   3.759  17.462  0.00  0.00    +0.000 OA
BRANCH  18  19
ATOM     19  C   UNL     1       4.427   3.515  18.680  0.00  0.00    +0.000 C 
ATOM     20  O   UNL     1       4.968   3.140  19.715  0.00  0.00    +0.000 OA
BRANCH  19  21
ATOM     21  C   UNL     1       2.934   3.766  18.528  0.00  0.00    +0.000 C 
ATOM     22  C   UNL     1       2.552   3.694  17.047  0.00  0.00    +0.000 C 
BRANCH  21  26
ATOM     23  C   UNL     1       1.804   7.593  20.271  0.00  0.00    +0.000 A 
ATOM     24  C   UNL     1       2.290   7.511  18.961  0.00  0.00    +0.000 A 
ATOM     25  C   UNL     1       2.624   6.276  18.397  0.00  0.00    +0.000 A 
ATOM     26  C   UNL     1       2.497   5.092  19.135  0.00  0.00    +0.000 A 
ATOM     27  C   UNL     1       2.004   5.175  20.449  0.00  0.00    +0.000 A 
ATOM     28  C   UNL     1       1.665   6.412  21.009  0.00  0.00    +0.000 A 
BRANCH  23  29
ATOM     29  C   UNL     1       1.412   8.927  20.868  0.00  0.00    +0.000 C 
BRANCH  29  31
ATOM     30  C   UNL     1      -0.466   9.197  22.562  0.00  0.00    +0.000 C 
ATOM     31  C   UNL     1      -0.109   9.084  21.078  0.00  0.00    +0.000 C 
ATOM     32  C   UNL     1      -0.633  10.308  20.324  0.00  0.00    +0.000 C 
ENDBRANCH  29  31
ENDBRANCH  23  29
ENDBRANCH  21  26
ENDBRANCH  19  21
ENDBRANCH  18  19
ENDBRANCH   1  18
TORSDOF 9
ENDMDL
MODEL 2
REMARK VINA RESULT:      -8.5      0.860      1.867
REMARK  Name = 
REMARK  14 active torsions:
REMARK  status: ('A' for Active; 'I' for Inactive)
REMARK    1  A    between atoms: C_1  and  C_2
REMARK    2  A    between atoms: C_2  and  C_3
REMARK    3  A    between atoms: C_2  and  C_4
REMARK    4  A    between atoms: C_4  and  C_5
REMARK    5  A    between atoms: C_8  and  C_9
REMARK    6  A    between atoms: C_9  and  C_10
REMARK    7  A    between atoms: C_9  and  C_11
REMARK    8  A    between atoms: C_11  and  O_13
REMARK    9  A    between atoms: O_13  and  C_14
REMARK   10  A    between atoms: C_17  and  N_18
REMARK   11  A    between atoms: C_19  and  C_20
REMARK   12  A    between atoms: C_23  and  N_24
REMARK   13  A    between atoms: N_24  and  C_25
REMARK   14  A    between atoms: N_24  and  C_26
REMARK                            x       y       z     vdW  Elec       q    Type
REMARK                         _______ _______ _______ _____ _____    ______ ____
ROOT
ATOM      1  C   UNL     1       5.933   5.048  17.663  0.00  0.00    +0.000 A 
ATOM      2  C   UNL     1       6.974   5.318  18.549  0.00  0.00    +0.000 A 
ATOM      3  C   UNL     1       7.682   6.510  18.433  0.00  0.00    +0.000 A 
ATOM      4  C   UNL     1       7.390   7.425  17.422  0.00  0.00    +0.000 A 
ATOM      5  C   UNL     1       6.334   7.146  16.541  0.00  0.00    +0.000 A 
ATOM      6  C   UNL     1       5.610   5.950  16.651  0.00  0.00    +0.000 A 
ENDROOT
BRANCH   4   7
ATOM      7  N   UNL     1       8.176   8.585  17.381  0.00  0.00    +0.000 NA
ATOM      8  C   UNL     1       8.366   9.275  18.460  0.00  0.00    +0.000 C 
BRANCH   8   9
ATOM      9  C   UNL     1       9.093  10.559  18.419  0.00  0.00    +0.000 A 
ATOM     10  C   UNL     1      10.325  10.702  19.047  0.00  0.00    +0.000 A 
ATOM     11  C   UNL     1      11.003  11.926  18.992  0.00  0.00    +0.000 A 
ATOM     12  C   UNL     1      10.491  13.042  18.305  0.00  0.00    +0.000 A 
ATOM     13  C   UNL     1       9.251  12.854  17.674  0.00  0.00    +0.000 A 
ATOM     14  C   UNL     1       8.553  11.633  17.720  0.00  0.00    +0.000 A 
BRANCH  12  15
ATOM     15  N   UNL     1      11.149  14.266  18.322  0.00  0.00    +0.000 N 
ATOM     16  C   UNL     1      12.062  14.615  19.411  0.00  0.00    +0.000 C 
ATOM     17  C   UNL     1      11.349  15.052  17.106  0.00  0.00    +0.000 C 
ENDBRANCH  12  15
ENDBRANCH   8   9
ENDBRANCH   4   7
BRANCH   1  18
ATOM     18  O   UNL     1       5.275   3.808  17.696  0.00  0.00    +0.000 OA
BRANCH  18  19
ATOM     19  C   UNL     1       4.572   3.525  18.871  0.00  0.00    +0.000 C 
ATOM     20  O   UNL     1       5.060   3.126  19.923  0.00  0.00    +0.000 OA
BRANCH  19  21
ATOM     21  C   UNL     1       3.087   3.768  18.646  0.00  0.00    +0.000 C 
ATOM     22  C   UNL     1       2.731   3.445  17.192  0.00  0.00    +0.000 C 
BRANCH  21  26
ATOM     23  C   UNL     1       1.755   7.785  19.672  0.00  0.00    +0.000 A 
ATOM     24  C   UNL     1       1.716   6.749  20.612  0.00  0.00    +0.000 A 
ATOM     25  C   UNL     1       2.173   5.468  20.286  0.00  0.00    +0.000 A 
ATOM     26  C   UNL     1       2.663   5.186  19.003  0.00  0.00    +0.000 A 
ATOM     27  C   UNL     1       2.706   6.228  18.062  0.00  0.00    +0.000 A 
ATOM     28  C   UNL     1       2.253   7.511  18.393  0.00  0.00    +0.000 A 
BRANCH  23  29
ATOM     29  C   UNL     1       1.291   9.178  20.037  0.00  0.00    +0.000 C 
BRANCH  29  31
ATOM     30  C   UNL     1      -0.723  10.222  18.885  0.00  0.00    +0.000 C 
ATOM     31  C   UNL     1       0.791   9.996  18.828  0.00  0.00    +0.000 C 
ATOM     32  C   UNL     1       1.514  11.343  18.752  0.00  0.00    +0.000 C 
ENDBRANCH  29  31
ENDBRANCH  23  29
ENDBRANCH  21  26
ENDBRANCH  19  21
ENDBRANCH  18  19
ENDBRANCH   1  18
TORSDOF 9
ENDMDL
MODEL 3
REMARK VINA RESULT:      -8.0      1.150      2.096
REMARK  Name = 
REMARK  14 active torsions:
REMARK  status: ('A' for Active; 'I' for Inactive)
REMARK    1  A    between atoms: C_1  and  C_2
REMARK    2  A    between atoms: C_2  and  C_3
REMARK    3  A    between atoms: C_2  and  C_4
REMARK    4  A    between atoms: C_4  and  C_5
REMARK    5  A    between atoms: C_8  and  C_9
REMARK    6  A    between atoms: C_9  and  C_10
REMARK    7  A    between atoms: C_9  and  C_11
REMARK    8  A    between atoms: C_11  and  O_13
REMARK    9  A    between atoms: O_13  and  C_14
REMARK   10  A    between atoms: C_17  and  N_18
REMARK   11  A    between atoms: C_19  and  C_20
REMARK   12  A    between atoms: C_23  and  N_24
REMARK   13  A    between atoms: N_24  and  C_25
REMARK   14  A    between atoms: N_24  and  C_26
REMARK                            x       y       z     vdW  Elec       q    Type
REMARK                         _______ _______ _______ _____ _____    ______ ____
ROOT
ATOM      1  C   UNL     1       5.260   5.048  17.376  0.00  0.00    +0.000 A 
ATOM      2  C   UNL     1       5.004   6.171  16.593  0.00  0.00    +0.000 A 
ATOM      3  C   UNL     1       5.905   7.231  16.596  0.00  0.00    +0.000 A 
ATOM      4  C   UNL     1       7.045   7.203  17.400  0.00  0.00    +0.000 A 
ATOM      5  C   UNL     1       7.297   6.064  18.177  0.00  0.00    +0.000 A 
ATOM      6  C   UNL     1       6.399   4.987  18.178  0.00  0.00    +0.000 A 
ENDROOT
BRANCH   4   7
ATOM      7  N   UNL     1       7.877   8.330  17.345  0.00  0.00    +0.000 NA
ATOM      8  C   UNL     1       8.071   9.042  18.408  0.00  0.00    +0.000 C 
BRANCH   8   9
ATOM      9  C   UNL     1       8.849  10.295  18.349  0.00  0.00    +0.000 A 
ATOM     10  C   UNL     1      10.103  10.385  18.944  0.00  0.00    +0.000 A 
ATOM     11  C   UNL     1      10.829  11.581  18.871  0.00  0.00    +0.000 A 
ATOM     12  C   UNL     1      10.346  12.718  18.199  0.00  0.00    +0.000 A 
ATOM     13  C   UNL     1       9.083  12.583  17.601  0.00  0.00    +0.000 A 
ATOM     14  C   UNL     1       8.336  11.392  17.665  0.00  0.00    +0.000 A 
BRANCH  12  15
ATOM     15  N   UNL     1      11.055  13.914  18.198  0.00  0.00    +0.000 N 
ATOM     16  C   UNL     1      11.886  14.297  19.341  0.00  0.00    +0.000 C 
ATOM     17  C   UNL     1      11.392  14.611  16.959  0.00  0.00    +0.000 C 
ENDBRANCH  12  15
ENDBRANCH   8   9
ENDBRANCH   4   7
BRANCH   1  18
ATOM     18  O   UNL     1       4.315   4.014  17.467  0.00  0.00    +0.000 OA
BRANCH  18  19
ATOM     19  C   UNL     1       3.066   4.375  17.981  0.00  0.00    +0.000 C 
ATOM     20  O   UNL     1       1.992   4.278  17.397  0.00  0.00    +0.000 OA
BRANCH  19  21
ATOM     21  C   UNL     1       3.238   4.937  19.384  0.00  0.00    +0.000 C 
ATOM     22  C   UNL     1       2.690   3.937  20.406  0.00  0.00    +0.000 C 
BRANCH  21  26
ATOM     23  C   UNL     1       1.242   8.778  19.860  0.00  0.00    +0.000 A 
ATOM     24  C   UNL     1       1.169   7.798  20.856  0.00  0.00    +0.000 A 
ATOM     25  C   UNL     1       1.836   6.577  20.711  0.00  0.00    +0.000 A 
ATOM     26  C   UNL     1       2.580   6.299  19.556  0.00  0.00    +0.000 A 
ATOM     27  C   UNL     1       2.656   7.286  18.558  0.00  0.00    +0.000 A 
ATOM     28  C   UNL     1       1.992   8.509  18.709  0.00  0.00    +0.000 A 
BRANCH  23  29
ATOM     29  C   UNL     1       0.547  10.111  20.034  0.00  0.00    +0.000 C 
BRANCH  29  31
ATOM     30  C   UNL     1      -1.280  10.393  18.287  0.00  0.00    +0.000 C 
ATOM     31  C   UNL     1       0.145  10.773  18.699  0.00  0.00    +0.000 C 
ATOM     32  C   UNL     1       0.268  12.295  18.794  0.00  0.00    +0.000 C 
ENDBRANCH  29  31
ENDBRANCH  23  29
ENDBRANCH  21  26
ENDBRANCH  19  21
ENDBRANCH  18  19
ENDBRANCH   1  18
TORSDOF 9
ENDMDL
MODEL 4
REMARK VINA RESULT:      -7.8      0.998      1.496
REMARK  Name = 
REMARK  14 active torsions:
REMARK  status: ('A' for Active; 'I' for Inactive)
REMARK    1  A    between atoms: C_1  and  C_2
REMARK    2  A    between atoms: C_2  and  C_3
REMARK    3  A    between atoms: C_2  and  C_4
REMARK    4  A    between atoms: C_4  and  C_5
REMARK    5  A    between atoms: C_8  and  C_9
REMARK    6  A    between atoms: C_9  and  C_10
REMARK    7  A    between atoms: C_9  and  C_11
REMARK    8  A    between atoms: C_11  and  O_13
REMARK    9  A    between atoms: O_13  and  C_14
REMARK   10  A    between atoms: C_17  and  N_18
REMARK   11  A    between atoms: C_19  and  C_20
REMARK   12  A    between atoms: C_23  and  N_24
REMARK   13  A    between atoms: N_24  and  C_25
REMARK   14  A    between atoms: N_24  and  C_26
REMARK                            x       y       z     vdW  Elec       q    Type
REMARK                         _______ _______ _______ _____ _____    ______ ____
ROOT
ATOM      1  C   UNL     1       6.907   5.407  17.952  0.00  0.00    +0.000 A 
ATOM      2  C   UNL     1       6.666   6.274  16.889  0.00  0.00    +0.000 A 
ATOM      3  C   UNL     1       7.242   7.540  16.892  0.00  0.00    +0.000 A 
ATOM      4  C   UNL     1       8.029   7.970  17.961  0.00  0.00    +0.000 A 
ATOM      5  C   UNL     1       8.272   7.085  19.021  0.00  0.00    +0.000 A 
ATOM      6  C   UNL     1       7.701   5.804  19.027  0.00  0.00    +0.000 A 
ENDROOT
BRANCH   4   7
ATOM      7  N   UNL     1       8.545   9.271  17.875  0.00  0.00    +0.000 NA
ATOM      8  C   UNL     1       9.222   9.763  18.862  0.00  0.00    +0.000 C 
BRANCH   8   9
ATOM      9  C   UNL     1       9.676  11.168  18.843  0.00  0.00    +0.000 A 
ATOM     10  C   UNL     1       9.125  12.084  17.953  0.00  0.00    +0.000 A 
ATOM     11  C   UNL     1       9.565  13.414  17.955  0.00  0.00    +0.000 A 
ATOM     12  C   UNL     1      10.552  13.882  18.842  0.00  0.00    +0.000 A 
ATOM     13  C   UNL     1      11.073  12.930  19.732  0.00  0.00    +0.000 A 
ATOM     14  C   UNL     1      10.647  11.589  19.745  0.00  0.00    +0.000 A 
BRANCH  12  15
ATOM     15  N   UNL     1      11.019  15.189  18.779  0.00  0.00    +0.000 N 
ATOM     16  C   UNL     1      11.348  15.931  19.998  0.00  0.00    +0.000 C 
ATOM     17  C   UNL     1      11.636  15.731  17.570  0.00  0.00    +0.000 C 
ENDBRANCH  12  15
ENDBRANCH   8   9
ENDBRANCH   4   7
BRANCH   1  18
ATOM     18  O   UNL     1       6.254   4.165  18.018  0.00  0.00    +0.000 OA
BRANCH  18  19
ATOM     19  C   UNL     1       5.299   4.035  19.031  0.00  0.00    +0.000 C 
ATOM     20  O   UNL     1       5.532   3.824  20.216  0.00  0.00    +0.000 OA
BRANCH  19  21
ATOM     21  C   UNL     1       3.906   4.171  18.436  0.00  0.00    +0.000 C 
ATOM     22  C   UNL     1       3.982   4.014  16.915  0.00  0.00    +0.000 C 
BRANCH  21  26
ATOM     23  C   UNL     1       1.873   7.878  19.482  0.00  0.00    +0.000 A 
ATOM     24  C   UNL     1       1.791   6.752  20.308  0.00  0.00    +0.000 A 
ATOM     25  C   UNL     1       2.470   5.573  19.982  0.00  0.00    +0.000 A 
ATOM     26  C   UNL     1       3.234   5.486  18.811  0.00  0.00    +0.000 A 
ATOM     27  C   UNL     1       3.319   6.619  17.984  0.00  0.00    +0.000 A 
ATOM     28  C   UNL     1       2.643   7.799  18.316  0.00  0.00    +0.000 A 
BRANCH  23  29
ATOM     29  C   UNL     1       1.165   9.162  19.853  0.00  0.00    +0.000 C 
BRANCH  29  31
ATOM     30  C   UNL     1       1.420   9.162  22.384  0.00  0.00    +0.000 C 
ATOM     31  C   UNL     1       0.437   9.091  21.212  0.00  0.00    +0.000 C 
ATOM     32  C   UNL     1      -0.593  10.217  21.331  0.00  0.00    +0.000 C 
ENDBRANCH  29  31
ENDBRANCH  23  29
ENDBRANCH  21  26
ENDBRANCH  19  21
ENDBRANCH  18  19
ENDBRANCH   1  18
TORSDOF 9
ENDMDL
MODEL 5
REMARK VINA RESULT:      -7.7      4.291      9.142
REMARK  Name = 
REMARK  14 active torsions:
REMARK  status: ('A' for Active; 'I' for Inactive)
REMARK    1  A    between atoms: C_1  and  C_2
REMARK    2  A    between atoms: C_2  and  C_3
REMARK    3  A    between atoms: C_2  and  C_4
REMARK    4  A    between atoms: C_4  and  C_5
REMARK    5  A    between atoms: C_8  and  C_9
REMARK    6  A    between atoms: C_9  and  C_10
REMARK    7  A    between atoms: C_9  and  C_11
REMARK    8  A    between atoms: C_11  and  O_13
REMARK    9  A    between atoms: O_13  and  C_14
REMARK   10  A    between atoms: C_17  and  N_18
REMARK   11  A    between atoms: C_19  and  C_20
REMARK   12  A    between atoms: C_23  and  N_24
REMARK   13  A    between atoms: N_24  and  C_25
REMARK   14  A    between atoms: N_24  and  C_26
REMARK                            x       y       z     vdW  Elec       q    Type
REMARK                         _______ _______ _______ _____ _____    ______ ____
ROOT
ATOM      1  C   UNL     1       3.511   6.249  18.211  0.00  0.00    +0.000 A 
ATOM      2  C   UNL     1       2.739   6.142  19.365  0.00  0.00    +0.000 A 
ATOM      3  C   UNL     1       1.914   7.198  19.740  0.00  0.00    +0.000 A 
ATOM      4  C   UNL     1       1.874   8.378  18.997  0.00  0.00    +0.000 A 
ATOM      5  C   UNL     1       2.650   8.470  17.832  0.00  0.00    +0.000 A 
ATOM      6  C   UNL     1       3.481   7.411  17.442  0.00  0.00    +0.000 A 
ENDROOT
BRANCH   4   7
ATOM      7  N   UNL     1       1.025   9.388  19.472  0.00  0.00    +0.000 NA
ATOM      8  C   UNL     1       0.830   9.523  20.744  0.00  0.00    +0.000 C 
BRANCH   8   9
ATOM      9  C   UNL     1      -0.145  10.503  21.261  0.00  0.00    +0.000 A 
ATOM     10  C   UNL     1      -0.664  11.496  20.437  0.00  0.00    +0.000 A 
ATOM     11  C   UNL     1      -1.594  12.413  20.944  0.00  0.00    +0.000 A 
ATOM     12  C   UNL     1      -2.050  12.367  22.275  0.00  0.00    +0.000 A 
ATOM     13  C   UNL     1      -1.513  11.342  23.069  0.00  0.00    +0.000 A 
ATOM     14  C   UNL     1      -0.576  10.414  22.580  0.00  0.00    +0.000 A 
BRANCH  12  15
ATOM     15  N   UNL     1      -2.922  13.328  22.773  0.00  0.00    +0.000 N 
ATOM     16  C   UNL     1      -3.090  13.517  24.215  0.00  0.00    +0.000 C 
ATOM     17  C   UNL     1      -3.351  14.472  21.971  0.00  0.00    +0.000 C 
ENDBRANCH  12  15
ENDBRANCH   8   9
ENDBRANCH   4   7
BRANCH   1  18
ATOM     18  O   UNL     1       4.426   5.239  17.872  0.00  0.00    +0.000 OA
BRANCH  18  19
ATOM     19  C   UNL     1       5.498   5.069  18.753  0.00  0.00    +0.000 C 
ATOM     20  O   UNL     1       5.411   4.822  19.952  0.00  0.00    +0.000 OA
BRANCH  19  21
ATOM     21  C   UNL     1       6.807   5.259  18.004  0.00  0.00    +0.000 C 
ATOM     22  C   UNL     1       7.254   6.720  18.117  0.00  0.00    +0.000 C 
BRANCH  21  26
ATOM     23  C   UNL     1       6.481   4.149  13.806  0.00  0.00    +0.000 A 
ATOM     24  C   UNL     1       7.303   5.206  14.211  0.00  0.00    +0.000 A 
ATOM     25  C   UNL     1       7.427   5.540  15.564  0.00  0.00    +0.000 A 
ATOM     26  C   UNL     1       6.716   4.834  16.545  0.00  0.00    +0.000 A 
ATOM     27  C   UNL     1       5.895   3.770  16.136  0.00  0.00    +0.000 A 
ATOM     28  C   UNL     1       5.777   3.435  14.782  0.00  0.00    +0.000 A 
BRANCH  23  29
ATOM     29  C   UNL     1       6.374   3.769  12.345  0.00  0.00    +0.000 C 
BRANCH  29  31
ATOM     30  C   UNL     1       4.123   3.271  11.271  0.00  0.00    +0.000 C 
ATOM     31  C   UNL     1       5.299   2.697  12.066  0.00  0.00    +0.000 C 
ATOM     32  C   UNL     1       5.904   1.510  11.313  0.00  0.00    +0.000 C 
ENDBRANCH  29  31
ENDBRANCH  23  29
ENDBRANCH  21  26
ENDBRANCH  19  21
ENDBRANCH  18  19
ENDBRANCH   1  18
TORSDOF 9
ENDMDL
MODEL 6
REMARK VINA RESULT:      -7.6      4.854      8.234
REMARK  Name = 
REMARK  14 active torsions:
REMARK  status: ('A' for Active; 'I' for Inactive)
REMARK    1  A    between atoms: C_1  and  C_2
REMARK    2  A    between atoms: C_2  and  C_3
REMARK    3  A    between atoms: C_2  and  C_4
REMARK    4  A    between atoms: C_4  and  C_5
REMARK    5  A    between atoms: C_8  and  C_9
REMARK    6  A    between atoms: C_9  and  C_10
REMARK    7  A    between atoms: C_9  and  C_11
REMARK    8  A    between atoms: C_11  and  O_13
REMARK    9  A    between atoms: O_13  and  C_14
REMARK   10  A    between atoms: C_17  and  N_18
REMARK   11  A    between atoms: C_19  and  C_20
REMARK   12  A    between atoms: C_23  and  N_24
REMARK   13  A    between atoms: N_24  and  C_25
REMARK   14  A    between atoms: N_24  and  C_26
REMARK                            x       y       z     vdW  Elec       q    Type
REMARK                         _______ _______ _______ _____ _____    ______ ____
ROOT
ATOM      1  C   UNL     1       3.446   7.625  17.560  0.00  0.00    +0.000 A 
ATOM      2  C   UNL     1       2.843   8.847  17.273  0.00  0.00    +0.000 A 
ATOM      3  C   UNL     1       1.935   9.393  18.174  0.00  0.00    +0.000 A 
ATOM      4  C   UNL     1       1.590   8.719  19.346  0.00  0.00    +0.000 A 
ATOM      5  C   UNL     1       2.210   7.493  19.628  0.00  0.00    +0.000 A 
ATOM      6  C   UNL     1       3.131   6.935  18.730  0.00  0.00    +0.000 A 
ENDROOT
BRANCH   4   7
ATOM      7  N   UNL     1       0.650   9.346  20.176  0.00  0.00    +0.000 NA
ATOM      8  C   UNL     1       0.549  10.636  20.177  0.00  0.00    +0.000 C 
BRANCH   8   9
ATOM      9  C   UNL     1      -0.351  11.325  21.124  0.00  0.00    +0.000 A 
ATOM     10  C   UNL     1      -0.761  10.704  22.299  0.00  0.00    +0.000 A 
ATOM     11  C   UNL     1      -1.609  11.376  23.188  0.00  0.00    +0.000 A 
ATOM     12  C   UNL     1      -2.067  12.684  22.950  0.00  0.00    +0.000 A 
ATOM     13  C   UNL     1      -1.621  13.281  21.761  0.00  0.00    +0.000 A 
ATOM     14  C   UNL     1      -0.770  12.623  20.853  0.00  0.00    +0.000 A 
BRANCH  12  15
ATOM     15  N   UNL     1      -2.962  13.305  23.814  0.00  0.00    +0.000 N 
ATOM     16  C   UNL     1      -4.001  12.536  24.502  0.00  0.00    +0.000 C 
ATOM     17  C   UNL     1      -2.666  14.593  24.438  0.00  0.00    +0.000 C 
ENDBRANCH  12  15
ENDBRANCH   8   9
ENDBRANCH   4   7
BRANCH   1  18
ATOM     18  O   UNL     1       4.285   7.008  16.618  0.00  0.00    +0.000 OA
BRANCH  18  19
ATOM     19  C   UNL     1       5.593   6.757  17.043  0.00  0.00    +0.000 C 
ATOM     20  O   UNL     1       6.390   7.594  17.451  0.00  0.00    +0.000 OA
BRANCH  19  21
ATOM     21  C   UNL     1       5.897   5.273  16.903  0.00  0.00    +0.000 C 
ATOM     22  C   UNL     1       6.017   4.913  15.419  0.00  0.00    +0.000 C 
BRANCH  21  26
ATOM     23  C   UNL     1       3.016   2.667  18.872  0.00  0.00    +0.000 A 
ATOM     24  C   UNL     1       4.097   3.210  19.575  0.00  0.00    +0.000 A 
ATOM     25  C   UNL     1       5.003   4.070  18.945  0.00  0.00    +0.000 A 
ATOM     26  C   UNL     1       4.860   4.394  17.589  0.00  0.00    +0.000 A 
ATOM     27  C   UNL     1       3.771   3.852  16.886  0.00  0.00    +0.000 A 
ATOM     28  C   UNL     1       2.863   2.996  17.521  0.00  0.00    +0.000 A 
BRANCH  23  29
ATOM     29  C   UNL     1       2.019   1.764  19.565  0.00  0.00    +0.000 C 
BRANCH  29  31
ATOM     30  C   UNL     1       1.768   2.554  21.970  0.00  0.00    +0.000 C 
ATOM     31  C   UNL     1       1.124   2.503  20.581  0.00  0.00    +0.000 C 
ATOM     32  C   UNL     1       0.819   3.923  20.099  0.00  0.00    +0.000 C 
ENDBRANCH  29  31
ENDBRANCH  23  29
ENDBRANCH  21  26
ENDBRANCH  19  21
ENDBRANCH  18  19
ENDBRANCH   1  18
TORSDOF 9
ENDMDL
MODEL 7
REMARK VINA RESULT:      -7.5      4.868      8.341
REMARK  Name = 
REMARK  14 active torsions:
REMARK  status: ('A' for Active; 'I' for Inactive)
REMARK    1  A    between atoms: C_1  and  C_2
REMARK    2  A    between atoms: C_2  and  C_3
REMARK    3  A    between atoms: C_2  and  C_4
REMARK    4  A    between atoms: C_4  and  C_5
REMARK    5  A    between atoms: C_8  and  C_9
REMARK    6  A    between atoms: C_9  and  C_10
REMARK    7  A    between atoms: C_9  and  C_11
REMARK    8  A    between atoms: C_11  and  O_13
REMARK    9  A    between atoms: O_13  and  C_14
REMARK   10  A    between atoms: C_17  and  N_18
REMARK   11  A    between atoms: C_19  and  C_20
REMARK   12  A    between atoms: C_23  and  N_24
REMARK   13  A    between atoms: N_24  and  C_25
REMARK   14  A    between atoms: N_24  and  C_26
REMARK                            x       y       z     vdW  Elec       q    Type
REMARK                         _______ _______ _______ _____ _____    ______ ____
ROOT
ATOM      1  C   UNL     1       3.562   7.529  17.457  0.00  0.00    +0.000 A 
ATOM      2  C   UNL     1       2.930   8.717  17.099  0.00  0.00    +0.000 A 
ATOM      3  C   UNL     1       1.971   9.266  17.944  0.00  0.00    +0.000 A 
ATOM      4  C   UNL     1       1.606   8.628  19.129  0.00  0.00    +0.000 A 
ATOM      5  C   UNL     1       2.256   7.437  19.483  0.00  0.00    +0.000 A 
ATOM      6  C   UNL     1       3.227   6.876  18.643  0.00  0.00    +0.000 A 
ENDROOT
BRANCH   4   7
ATOM      7  N   UNL     1       0.615   9.255  19.898  0.00  0.00    +0.000 NA
ATOM      8  C   UNL     1       0.133  10.396  19.525  0.00  0.00    +0.000 C 
BRANCH   8   9
ATOM      9  C   UNL     1      -0.825  11.128  20.376  0.00  0.00    +0.000 A 
ATOM     10  C   UNL     1      -0.696  11.127  21.761  0.00  0.00    +0.000 A 
ATOM     11  C   UNL     1      -1.612  11.834  22.551  0.00  0.00    +0.000 A 
ATOM     12  C   UNL     1      -2.673  12.573  21.998  0.00  0.00    +0.000 A 
ATOM     13  C   UNL     1      -2.761  12.560  20.597  0.00  0.00    +0.000 A 
ATOM     14  C   UNL     1      -1.854  11.855  19.785  0.00  0.00    +0.000 A 
BRANCH  12  15
ATOM     15  N   UNL     1      -3.608  13.211  22.805  0.00  0.00    +0.000 N 
ATOM     16  C   UNL     1      -5.028  13.216  22.452  0.00  0.00    +0.000 C 
ATOM     17  C   UNL     1      -3.345  13.494  24.214  0.00  0.00    +0.000 C 
ENDBRANCH  12  15
ENDBRANCH   8   9
ENDBRANCH   4   7
BRANCH   1  18
ATOM     18  O   UNL     1       4.456   6.904  16.572  0.00  0.00    +0.000 OA
BRANCH  18  19
ATOM     19  C   UNL     1       5.715   6.599  17.096  0.00  0.00    +0.000 C 
ATOM     20  O   UNL     1       6.491   7.395  17.613  0.00  0.00    +0.000 OA
BRANCH  19  21
ATOM     21  C   UNL     1       5.999   5.116  16.908  0.00  0.00    +0.000 C 
ATOM     22  C   UNL     1       6.052   4.791  15.413  0.00  0.00    +0.000 C 
BRANCH  21  26
ATOM     23  C   UNL     1       3.010   2.676  18.927  0.00  0.00    +0.000 A 
ATOM     24  C   UNL     1       2.904   2.964  17.562  0.00  0.00    +0.000 A 
ATOM     25  C   UNL     1       3.882   3.724  16.912  0.00  0.00    +0.000 A 
ATOM     26  C   UNL     1       4.983   4.230  17.617  0.00  0.00    +0.000 A 
ATOM     27  C   UNL     1       5.090   3.936  18.987  0.00  0.00    +0.000 A 
ATOM     28  C   UNL     1       4.112   3.170  19.633  0.00  0.00    +0.000 A 
BRANCH  23  29
ATOM     29  C   UNL     1       1.968   1.826  19.620  0.00  0.00    +0.000 C 
BRANCH  29  31
ATOM     30  C   UNL     1       1.861   2.655  22.022  0.00  0.00    +0.000 C 
ATOM     31  C   UNL     1       1.143   2.600  20.671  0.00  0.00    +0.000 C 
ATOM     32  C   UNL     1       0.846   4.019  20.184  0.00  0.00    +0.000 C 
ENDBRANCH  29  31
ENDBRANCH  23  29
ENDBRANCH  21  26
ENDBRANCH  19  21
ENDBRANCH  18  19
ENDBRANCH   1  18
TORSDOF 9
ENDMDL
MODEL 8
REMARK VINA RESULT:      -7.5      4.834      8.303
REMARK  Name = 
REMARK  14 active torsions:
REMARK  status: ('A' for Active; 'I' for Inactive)
REMARK    1  A    between atoms: C_1  and  C_2
REMARK    2  A    between atoms: C_2  and  C_3
REMARK    3  A    between atoms: C_2  and  C_4
REMARK    4  A    between atoms: C_4  and  C_5
REMARK    5  A    between atoms: C_8  and  C_9
REMARK    6  A    between atoms: C_9  and  C_10
REMARK    7  A    between atoms: C_9  and  C_11
REMARK    8  A    between atoms: C_11  and  O_13
REMARK    9  A    between atoms: O_13  and  C_14
REMARK   10  A    between atoms: C_17  and  N_18
REMARK   11  A    between atoms: C_19  and  C_20
REMARK   12  A    between atoms: C_23  and  N_24
REMARK   13  A    between atoms: N_24  and  C_25
REMARK   14  A    between atoms: N_24  and  C_26
REMARK                            x       y       z     vdW  Elec       q    Type
REMARK                         _______ _______ _______ _____ _____    ______ ____
ROOT
ATOM      1  C   UNL     1       3.364   7.561  17.393  0.00  0.00    +0.000 A 
ATOM      2  C   UNL     1       3.031   6.951  18.601  0.00  0.00    +0.000 A 
ATOM      3  C   UNL     1       2.162   7.593  19.477  0.00  0.00    +0.000 A 
ATOM      4  C   UNL     1       1.645   8.854  19.183  0.00  0.00    +0.000 A 
ATOM      5  C   UNL     1       1.980   9.454  17.960  0.00  0.00    +0.000 A 
ATOM      6  C   UNL     1       2.851   8.815  17.066  0.00  0.00    +0.000 A 
ENDROOT
BRANCH   4   7
ATOM      7  N   UNL     1       0.794   9.422  20.142  0.00  0.00    +0.000 NA
ATOM      8  C   UNL     1       0.032  10.417  19.820  0.00  0.00    +0.000 C 
BRANCH   8   9
ATOM      9  C   UNL     1      -0.786  11.104  20.839  0.00  0.00    +0.000 A 
ATOM     10  C   UNL     1      -1.768  12.018  20.469  0.00  0.00    +0.000 A 
ATOM     11  C   UNL     1      -2.539  12.654  21.450  0.00  0.00    +0.000 A 
ATOM     12  C   UNL     1      -2.373  12.399  22.823  0.00  0.00    +0.000 A 
ATOM     13  C   UNL     1      -1.382  11.462  23.155  0.00  0.00    +0.000 A 
ATOM     14  C   UNL     1      -0.595  10.813  22.185  0.00  0.00    +0.000 A 
BRANCH  12  15
ATOM     15  N   UNL     1      -3.103  13.093  23.781  0.00  0.00    +0.000 N 
ATOM     16  C   UNL     1      -4.204  12.450  24.501  0.00  0.00    +0.000 C 
ATOM     17  C   UNL     1      -2.571  14.279  24.449  0.00  0.00    +0.000 C 
ENDBRANCH  12  15
ENDBRANCH   8   9
ENDBRANCH   4   7
BRANCH   1  18
ATOM     18  O   UNL     1       4.318   6.979  16.543  0.00  0.00    +0.000 OA
BRANCH  18  19
ATOM     19  C   UNL     1       5.576   6.749  17.108  0.00  0.00    +0.000 C 
ATOM     20  O   UNL     1       6.295   7.594  17.631  0.00  0.00    +0.000 OA
BRANCH  19  21
ATOM     21  C   UNL     1       5.939   5.280  16.957  0.00  0.00    +0.000 C 
ATOM     22  C   UNL     1       6.081   4.937  15.471  0.00  0.00    +0.000 C 
BRANCH  21  26
ATOM     23  C   UNL     1       2.981   2.725  18.877  0.00  0.00    +0.000 A 
ATOM     24  C   UNL     1       2.892   3.036  17.516  0.00  0.00    +0.000 A 
ATOM     25  C   UNL     1       3.861   3.833  16.898  0.00  0.00    +0.000 A 
ATOM     26  C   UNL     1       4.935   4.355  17.631  0.00  0.00    +0.000 A 
ATOM     27  C   UNL     1       5.026   4.037  18.997  0.00  0.00    +0.000 A 
ATOM     28  C   UNL     1       4.058   3.234  19.612  0.00  0.00    +0.000 A 
BRANCH  23  29
ATOM     29  C   UNL     1       1.950   1.835  19.535  0.00  0.00    +0.000 C 
BRANCH  29  31
ATOM     30  C   UNL     1       1.794   2.538  21.975  0.00  0.00    +0.000 C 
ATOM     31  C   UNL     1       1.107   2.560  20.607  0.00  0.00    +0.000 C 
ATOM     32  C   UNL     1       0.832   4.006  20.188  0.00  0.00    +0.000 C 
ENDBRANCH  29  31
ENDBRANCH  23  29
ENDBRANCH  21  26
ENDBRANCH  19  21
ENDBRANCH  18  19
ENDBRANCH   1  18
TORSDOF 9
ENDMDL
MODEL 9
REMARK VINA RESULT:      -7.5      1.045      1.976
REMARK  Name = 
REMARK  14 active torsions:
REMARK  status: ('A' for Active; 'I' for Inactive)
REMARK    1  A    between atoms: C_1  and  C_2
REMARK    2  A    between atoms: C_2  and  C_3
REMARK    3  A    between atoms: C_2  and  C_4
REMARK    4  A    between atoms: C_4  and  C_5
REMARK    5  A    between atoms: C_8  and  C_9
REMARK    6  A    between atoms: C_9  and  C_10
REMARK    7  A    between atoms: C_9  and  C_11
REMARK    8  A    between atoms: C_11  and  O_13
REMARK    9  A    between atoms: O_13  and  C_14
REMARK   10  A    between atoms: C_17  and  N_18
REMARK   11  A    between atoms: C_19  and  C_20
REMARK   12  A    between atoms: C_23  and  N_24
REMARK   13  A    between atoms: N_24  and  C_25
REMARK   14  A    between atoms: N_24  and  C_26
REMARK                            x       y       z     vdW  Elec       q    Type
REMARK                         _______ _______ _______ _____ _____    ______ ____
ROOT
ATOM      1  C   UNL     1       6.447   5.148  17.791  0.00  0.00    +0.000 A 
ATOM      2  C   UNL     1       7.528   5.454  18.613  0.00  0.00    +0.000 A 
ATOM      3  C   UNL     1       8.118   6.712  18.533  0.00  0.00    +0.000 A 
ATOM      4  C   UNL     1       7.666   7.661  17.615  0.00  0.00    +0.000 A 
ATOM      5  C   UNL     1       6.570   7.344  16.799  0.00  0.00    +0.000 A 
ATOM      6  C   UNL     1       5.964   6.081  16.875  0.00  0.00    +0.000 A 
ENDROOT
BRANCH   4   7
ATOM      7  N   UNL     1       8.341   8.889  17.601  0.00  0.00    +0.000 NA
ATOM      8  C   UNL     1       8.679   9.454  18.715  0.00  0.00    +0.000 C 
BRANCH   8   9
ATOM      9  C   UNL     1       9.288  10.798  18.729  0.00  0.00    +0.000 A 
ATOM     10  C   UNL     1      10.440  11.053  19.464  0.00  0.00    +0.000 A 
ATOM     11  C   UNL     1      11.007  12.334  19.459  0.00  0.00    +0.000 A 
ATOM     12  C   UNL     1      10.461  13.397  18.718  0.00  0.00    +0.000 A 
ATOM     13  C   UNL     1       9.306  13.097  17.979  0.00  0.00    +0.000 A 
ATOM     14  C   UNL     1       8.719  11.818  17.973  0.00  0.00    +0.000 A 
BRANCH  12  15
ATOM     15  N   UNL     1      11.002  14.676  18.782  0.00  0.00    +0.000 N 
ATOM     16  C   UNL     1      11.749  15.120  19.961  0.00  0.00    +0.000 C 
ATOM     17  C   UNL     1      11.271  15.462  17.580  0.00  0.00    +0.000 C 
ENDBRANCH  12  15
ENDBRANCH   8   9
ENDBRANCH   4   7
BRANCH   1  18
ATOM     18  O   UNL     1       5.904   3.853  17.783  0.00  0.00    +0.000 OA
BRANCH  18  19
ATOM     19  C   UNL     1       4.521   3.772  17.973  0.00  0.00    +0.000 C 
ATOM     20  O   UNL     1       3.678   3.687  17.087  0.00  0.00    +0.000 OA
BRANCH  19  21
ATOM     21  C   UNL     1       4.208   3.829  19.460  0.00  0.00    +0.000 C 
ATOM     22  C   UNL     1       3.604   2.495  19.907  0.00  0.00    +0.000 C 
BRANCH  21  26
ATOM     23  C   UNL     1       1.484   7.085  20.431  0.00  0.00    +0.000 A 
ATOM     24  C   UNL     1       1.331   5.819  21.008  0.00  0.00    +0.000 A 
ATOM     25  C   UNL     1       2.226   4.785  20.715  0.00  0.00    +0.000 A 
ATOM     26  C   UNL     1       3.288   4.987  19.823  0.00  0.00    +0.000 A 
ATOM     27  C   UNL     1       3.442   6.260  19.248  0.00  0.00    +0.000 A 
ATOM     28  C   UNL     1       2.548   7.294  19.547  0.00  0.00    +0.000 A 
BRANCH  23  29
ATOM     29  C   UNL     1       0.533   8.211  20.775  0.00  0.00    +0.000 C 
BRANCH  29  31
ATOM     30  C   UNL     1       1.815   9.718  22.375  0.00  0.00    +0.000 C 
ATOM     31  C   UNL     1       0.672   8.709  22.230  0.00  0.00    +0.000 C 
ATOM     32  C   UNL     1      -0.638   9.337  22.711  0.00  0.00    +0.000 C 
ENDBRANCH  29  31
ENDBRANCH  23  29
ENDBRANCH  21  26
ENDBRANCH  19  21
ENDBRANCH  18  19
ENDBRANCH   1  18
TORSDOF 9
ENDMDL
