MODEL 1
REMARK VINA RESULT:      -9.1      0.000      0.000
REMARK  Name = 
REMARK  5 active torsions:
REMARK  status: ('A' for Active; 'I' for Inactive)
REMARK    1  A    between atoms: S_2  and  N_4
REMARK    2  A    between atoms: S_2  and  C_10
REMARK    3  A    between atoms: C_14  and  O_15
REMARK    4  A    between atoms: O_15  and  C_16
REMARK    5  A    between atoms: C_21  and  C_22
REMARK                            x       y       z     vdW  Elec       q    Type
REMARK                         _______ _______ _______ _____ _____    ______ ____
ROOT
ATOM      1  C   UNL     1       1.230   9.260  20.002  0.00  0.00    +0.000 A 
ATOM      2  C   UNL     1       1.715   9.285  18.694  0.00  0.00    +0.000 A 
ATOM      3  C   UNL     1       2.236   8.122  18.137  0.00  0.00    +0.000 A 
ATOM      4  F   UNL     1       2.634   8.190  16.860  0.00  0.00    +0.000 F 
ATOM      5  C   UNL     1       2.292   6.931  18.868  0.00  0.00    +0.000 A 
ATOM      6  C   UNL     1       1.799   6.926  20.179  0.00  0.00    +0.000 A 
ATOM      7  C   UNL     1       1.278   8.091  20.745  0.00  0.00    +0.000 A 
ATOM      8  F   UNL     1       0.809   8.045  21.998  0.00  0.00    +0.000 F 
ENDROOT
BRANCH   1  10
ATOM      9  O   UNL     1       1.607  11.352  21.481  0.00  0.00    +0.000 OA
ATOM     10  S   UNL     1       0.557  10.724  20.706  0.00  0.00    +0.000 S 
ATOM     11  O   UNL     1      -0.704  10.368  21.325  0.00  0.00    +0.000 OA
BRANCH  10  12
ATOM     12  N   UNL     1       0.186  11.668  19.353  0.00  0.00    +0.000 N 
ATOM     13  C   UNL     1      -1.188  11.592  19.030  0.00  0.00    +0.000 A 
ATOM     14  N   UNL     1      -1.609  10.825  18.056  0.00  0.00    +0.000 NA
ATOM     15  C   UNL     1      -2.992  10.937  18.027  0.00  0.00    +0.000 A 
ATOM     16  N   UNL     1      -3.622  11.816  18.807  0.00  0.00    +0.000 NA
ATOM     17  S   UNL     1      -2.431  12.523  19.751  0.00  0.00    +0.000 S 
ATOM     18  H   UNL     1       0.754  11.300  18.587  0.00  0.00    +0.000 HD
ENDBRANCH  10  12
ENDBRANCH   1  10
BRANCH   5  19
ATOM     19  O   UNL     1       2.738   5.717  18.420  0.00  0.00    +0.000 OA
BRANCH  19  20
ATOM     20  C   UNL     1       3.397   4.865  19.371  0.00  0.00    +0.000 C 
ATOM     21  O   UNL     1       2.499   3.810  19.770  0.00  0.00    +0.000 OA
ATOM     22  C   UNL     1       3.156   2.884  20.641  0.00  0.00    +0.000 C 
ATOM     23  C   UNL     1       4.339   2.218  19.931  0.00  0.00    +0.000 C 
ATOM     24  N   UNL     1       5.337   3.209  19.514  0.00  0.00    +0.000 NA
ATOM     25  C   UNL     1       4.685   4.259  18.689  0.00  0.00    +0.000 C 
ATOM     26  H   UNL     1       6.067   2.761  18.959  0.00  0.00    +0.000 HD
BRANCH  25  27
ATOM     27  C   UNL     1       5.712   5.338  18.366  0.00  0.00    +0.000 A 
ATOM     28  C   UNL     1       5.493   6.232  17.304  0.00  0.00    +0.000 A 
ATOM     29  C   UNL     1       6.432   7.221  17.004  0.00  0.00    +0.000 A 
ATOM     30  C   UNL     1       7.591   7.321  17.765  0.00  0.00    +0.000 A 
ATOM     31  F   UNL     1       8.490   8.272  17.475  0.00  0.00    +0.000 F 
ATOM     32  C   UNL     1       7.834   6.448  18.817  0.00  0.00    +0.000 A 
ATOM     33  C   UNL     1       6.899   5.456  19.115  0.00  0.00    +0.000 A 
ENDBRANCH  25  27
ENDBRANCH  19  20
ENDBRANCH   5  19
TORSDOF 5
ENDMDL
MODEL 2
REMARK VINA RESULT:      -8.8      1.718      2.469
REMARK  Name = 
REMARK  5 active torsions:
REMARK  status: ('A' for Active; 'I' for Inactive)
REMARK    1  A    between atoms: S_2  and  N_4
REMARK    2  A    between atoms: S_2  and  C_10
REMARK    3  A    between atoms: C_14  and  O_15
REMARK    4  A    between atoms: O_15  and  C_16
REMARK    5  A    between atoms: C_21  and  C_22
REMARK                            x       y       z     vdW  Elec       q    Type
REMARK                         _______ _______ _______ _____ _____    ______ ____
ROOT
ATOM      1  C   UNL     1       1.259   9.408  19.725  0.00  0.00    +0.000 A 
ATOM      2  C   UNL     1       1.207   8.332  20.611  0.00  0.00    +0.000 A 
ATOM      3  C   UNL     1       1.691   7.093  20.209  0.00  0.00    +0.000 A 
ATOM      4  F   UNL     1       1.670   6.111  21.121  0.00  0.00    +0.000 F 
ATOM      5  C   UNL     1       2.219   6.902  18.929  0.00  0.00    +0.000 A 
ATOM      6  C   UNL     1       2.263   7.995  18.053  0.00  0.00    +0.000 A 
ATOM      7  C   UNL     1       1.775   9.241  18.450  0.00  0.00    +0.000 A 
ATOM      8  F   UNL     1       1.842  10.263  17.588  0.00  0.00    +0.000 F 
ENDROOT
BRANCH   1  10
ATOM      9  O   UNL     1       0.041  11.601  19.080  0.00  0.00    +0.000 OA
ATOM     10  S   UNL     1       0.661  10.982  20.233  0.00  0.00    +0.000 S 
ATOM     11  O   UNL     1       1.737  11.649  20.938  0.00  0.00    +0.000 OA
BRANCH  10  12
ATOM     12  N   UNL     1      -0.512  10.595  21.388  0.00  0.00    +0.000 N 
ATOM     13  C   UNL     1      -1.096  11.756  21.943  0.00  0.00    +0.000 A 
ATOM     14  N   UNL     1      -0.726  12.200  23.117  0.00  0.00    +0.000 NA
ATOM     15  C   UNL     1      -1.444  13.366  23.349  0.00  0.00    +0.000 A 
ATOM     16  N   UNL     1      -2.405  13.753  22.510  0.00  0.00    +0.000 NA
ATOM     17  S   UNL     1      -2.384  12.648  21.251  0.00  0.00    +0.000 S 
ATOM     18  H   UNL     1      -0.030  10.057  22.111  0.00  0.00    +0.000 HD
ENDBRANCH  10  12
ENDBRANCH   1  10
BRANCH   5  19
ATOM     19  O   UNL     1       2.764   5.749  18.431  0.00  0.00    +0.000 OA
BRANCH  19  20
ATOM     20  C   UNL     1       3.418   4.873  19.363  0.00  0.00    +0.000 C 
ATOM     21  O   UNL     1       2.515   3.813  19.737  0.00  0.00    +0.000 OA
ATOM     22  C   UNL     1       3.168   2.865  20.587  0.00  0.00    +0.000 C 
ATOM     23  C   UNL     1       4.350   2.210  19.863  0.00  0.00    +0.000 C 
ATOM     24  N   UNL     1       5.352   3.207  19.469  0.00  0.00    +0.000 NA
ATOM     25  C   UNL     1       4.704   4.277  18.668  0.00  0.00    +0.000 C 
ATOM     26  H   UNL     1       6.080   2.768  18.905  0.00  0.00    +0.000 HD
BRANCH  25  27
ATOM     27  C   UNL     1       5.736   5.360  18.370  0.00  0.00    +0.000 A 
ATOM     28  C   UNL     1       5.521   6.278  17.328  0.00  0.00    +0.000 A 
ATOM     29  C   UNL     1       6.464   7.270  17.052  0.00  0.00    +0.000 A 
ATOM     30  C   UNL     1       7.623   7.348  17.816  0.00  0.00    +0.000 A 
ATOM     31  F   UNL     1       8.526   8.301  17.548  0.00  0.00    +0.000 F 
ATOM     32  C   UNL     1       7.862   6.450  18.848  0.00  0.00    +0.000 A 
ATOM     33  C   UNL     1       6.923   5.455  19.123  0.00  0.00    +0.000 A 
ENDBRANCH  25  27
ENDBRANCH  19  20
ENDBRANCH   5  19
TORSDOF 5
ENDMDL
MODEL 3
REMARK VINA RESULT:      -8.8      3.243      8.265
REMARK  Name = 
REMARK  5 active torsions:
REMARK  status: ('A' for Active; 'I' for Inactive)
REMARK    1  A    between atoms: S_2  and  N_4
REMARK    2  A    between atoms: S_2  and  C_10
REMARK    3  A    between atoms: C_14  and  O_15
REMARK    4  A    between atoms: O_15  and  C_16
REMARK    5  A    between atoms: C_21  and  C_22
REMARK                            x       y       z     vdW  Elec       q    Type
REMARK                         _______ _______ _______ _____ _____    ______ ____
ROOT
ATOM      1  C   UNL     1       2.678   6.614  19.262  0.00  0.00    +0.000 A 
ATOM      2  C   UNL     1       1.994   6.832  20.459  0.00  0.00    +0.000 A 
ATOM      3  C   UNL     1       1.292   8.019  20.637  0.00  0.00    +0.000 A 
ATOM      4  F   UNL     1       0.607   8.149  21.781  0.00  0.00    +0.000 F 
ATOM      5  C   UNL     1       1.266   9.001  19.642  0.00  0.00    +0.000 A 
ATOM      6  C   UNL     1       1.958   8.763  18.447  0.00  0.00    +0.000 A 
ATOM      7  C   UNL     1       2.668   7.576  18.264  0.00  0.00    +0.000 A 
ATOM      8  F   UNL     1       3.310   7.380  17.105  0.00  0.00    +0.000 F 
ENDROOT
BRANCH   1  10
ATOM      9  O   UNL     1       3.499   4.793  17.614  0.00  0.00    +0.000 OA
ATOM     10  S   UNL     1       3.556   5.109  19.026  0.00  0.00    +0.000 S 
ATOM     11  O   UNL     1       3.074   4.164  20.013  0.00  0.00    +0.000 OA
BRANCH  10  12
ATOM     12  N   UNL     1       5.138   5.511  19.470  0.00  0.00    +0.000 N 
ATOM     13  C   UNL     1       6.019   5.444  18.367  0.00  0.00    +0.000 A 
ATOM     14  N   UNL     1       6.804   4.411  18.196  0.00  0.00    +0.000 NA
ATOM     15  C   UNL     1       7.498   4.626  17.013  0.00  0.00    +0.000 A 
ATOM     16  N   UNL     1       7.391   5.786  16.362  0.00  0.00    +0.000 NA
ATOM     17  S   UNL     1       6.259   6.683  17.211  0.00  0.00    +0.000 S 
ATOM     18  H   UNL     1       5.410   4.836  20.188  0.00  0.00    +0.000 HD
ENDBRANCH  10  12
ENDBRANCH   1  10
BRANCH   5  19
ATOM     19  O   UNL     1       0.579  10.185  19.679  0.00  0.00    +0.000 OA
BRANCH  19  20
ATOM     20  C   UNL     1      -0.101  10.591  18.480  0.00  0.00    +0.000 C 
ATOM     21  O   UNL     1      -1.260   9.757  18.283  0.00  0.00    +0.000 OA
ATOM     22  C   UNL     1      -2.018  10.199  17.152  0.00  0.00    +0.000 C 
ATOM     23  C   UNL     1      -2.527  11.628  17.365  0.00  0.00    +0.000 C 
ATOM     24  N   UNL     1      -1.415  12.569  17.540  0.00  0.00    +0.000 NA
ATOM     25  C   UNL     1      -0.532  12.101  18.639  0.00  0.00    +0.000 C 
ATOM     26  H   UNL     1      -1.772  13.494  17.777  0.00  0.00    +0.000 HD
BRANCH  25  27
ATOM     27  C   UNL     1       0.677  13.026  18.725  0.00  0.00    +0.000 A 
ATOM     28  C   UNL     1       0.555  14.302  19.301  0.00  0.00    +0.000 A 
ATOM     29  C   UNL     1       1.659  15.152  19.380  0.00  0.00    +0.000 A 
ATOM     30  C   UNL     1       2.888  14.731  18.886  0.00  0.00    +0.000 A 
ATOM     31  F   UNL     1       3.946  15.549  18.965  0.00  0.00    +0.000 F 
ATOM     32  C   UNL     1       3.035  13.477  18.308  0.00  0.00    +0.000 A 
ATOM     33  C   UNL     1       1.932  12.627  18.223  0.00  0.00    +0.000 A 
ENDBRANCH  25  27
ENDBRANCH  19  20
ENDBRANCH   5  19
TORSDOF 5
ENDMDL
MODEL 4
REMARK VINA RESULT:      -8.8      0.948      1.068
REMARK  Name = 
REMARK  5 active torsions:
REMARK  status: ('A' for Active; 'I' for Inactive)
REMARK    1  A    between atoms: S_2  and  N_4
REMARK    2  A    between atoms: S_2  and  C_10
REMARK    3  A    between atoms: C_14  and  O_15
REMARK    4  A    between atoms: O_15  and  C_16
REMARK    5  A    between atoms: C_21  and  C_22
REMARK                            x       y       z     vdW  Elec       q    Type
REMARK                         _______ _______ _______ _____ _____    ______ ____
ROOT
ATOM      1  C   UNL     1       1.405   9.162  19.799  0.00  0.00    +0.000 A 
ATOM      2  C   UNL     1       1.935   9.106  18.510  0.00  0.00    +0.000 A 
ATOM      3  C   UNL     1       2.383   7.890  18.007  0.00  0.00    +0.000 A 
ATOM      4  F   UNL     1       2.827   7.885  16.744  0.00  0.00    +0.000 F 
ATOM      5  C   UNL     1       2.322   6.723  18.776  0.00  0.00    +0.000 A 
ATOM      6  C   UNL     1       1.787   6.799  20.068  0.00  0.00    +0.000 A 
ATOM      7  C   UNL     1       1.338   8.018  20.579  0.00  0.00    +0.000 A 
ATOM      8  F   UNL     1       0.825   8.049  21.815  0.00  0.00    +0.000 F 
ENDROOT
BRANCH   1  10
ATOM      9  O   UNL     1       1.143  11.715  19.457  0.00  0.00    +0.000 OA
ATOM     10  S   UNL     1       0.823  10.695  20.434  0.00  0.00    +0.000 S 
ATOM     11  O   UNL     1       1.295  10.808  21.799  0.00  0.00    +0.000 OA
BRANCH  10  12
ATOM     12  N   UNL     1      -0.851  10.469  20.514  0.00  0.00    +0.000 N 
ATOM     13  C   UNL     1      -1.482  10.839  19.305  0.00  0.00    +0.000 A 
ATOM     14  N   UNL     1      -2.092  11.991  19.190  0.00  0.00    +0.000 NA
ATOM     15  C   UNL     1      -2.559  12.069  17.885  0.00  0.00    +0.000 A 
ATOM     16  N   UNL     1      -2.462  11.023  17.063  0.00  0.00    +0.000 NA
ATOM     17  S   UNL     1      -1.633   9.845  17.919  0.00  0.00    +0.000 S 
ATOM     18  H   UNL     1      -1.179  11.057  21.284  0.00  0.00    +0.000 HD
ENDBRANCH  10  12
ENDBRANCH   1  10
BRANCH   5  19
ATOM     19  O   UNL     1       2.689   5.464  18.382  0.00  0.00    +0.000 OA
BRANCH  19  20
ATOM     20  C   UNL     1       3.372   4.644  19.344  0.00  0.00    +0.000 C 
ATOM     21  O   UNL     1       2.501   3.575  19.765  0.00  0.00    +0.000 OA
ATOM     22  C   UNL     1       3.184   2.680  20.648  0.00  0.00    +0.000 C 
ATOM     23  C   UNL     1       4.381   2.031  19.944  0.00  0.00    +0.000 C 
ATOM     24  N   UNL     1       5.353   3.040  19.506  0.00  0.00    +0.000 NA
ATOM     25  C   UNL     1       4.671   4.059  18.667  0.00  0.00    +0.000 C 
ATOM     26  H   UNL     1       6.091   2.601  18.956  0.00  0.00    +0.000 HD
BRANCH  25  27
ATOM     27  C   UNL     1       5.670   5.158  18.322  0.00  0.00    +0.000 A 
ATOM     28  C   UNL     1       5.489   5.948  17.174  0.00  0.00    +0.000 A 
ATOM     29  C   UNL     1       6.402   6.954  16.854  0.00  0.00    +0.000 A 
ATOM     30  C   UNL     1       7.499   7.175  17.679  0.00  0.00    +0.000 A 
ATOM     31  F   UNL     1       8.373   8.142  17.370  0.00  0.00    +0.000 F 
ATOM     32  C   UNL     1       7.704   6.405  18.817  0.00  0.00    +0.000 A 
ATOM     33  C   UNL     1       6.795   5.396  19.136  0.00  0.00    +0.000 A 
ENDBRANCH  25  27
ENDBRANCH  19  20
ENDBRANCH   5  19
TORSDOF 5
ENDMDL
MODEL 5
REMARK VINA RESULT:      -8.8      1.492      1.734
REMARK  Name = 
REMARK  5 active torsions:
REMARK  status: ('A' for Active; 'I' for Inactive)
REMARK    1  A    between atoms: S_2  and  N_4
REMARK    2  A    between atoms: S_2  and  C_10
REMARK    3  A    between atoms: C_14  and  O_15
REMARK    4  A    between atoms: O_15  and  C_16
REMARK    5  A    between atoms: C_21  and  C_22
REMARK                            x       y       z     vdW  Elec       q    Type
REMARK                         _______ _______ _______ _____ _____    ______ ____
ROOT
ATOM      1  C   UNL     1       1.397   9.351  19.741  0.00  0.00    +0.000 A 
ATOM      2  C   UNL     1       1.904   9.259  18.444  0.00  0.00    +0.000 A 
ATOM      3  C   UNL     1       2.347   8.030  17.970  0.00  0.00    +0.000 A 
ATOM      4  F   UNL     1       2.770   7.989  16.700  0.00  0.00    +0.000 F 
ATOM      5  C   UNL     1       2.303   6.886  18.773  0.00  0.00    +0.000 A 
ATOM      6  C   UNL     1       1.789   6.998  20.072  0.00  0.00    +0.000 A 
ATOM      7  C   UNL     1       1.346   8.230  20.554  0.00  0.00    +0.000 A 
ATOM      8  F   UNL     1       0.854   8.296  21.797  0.00  0.00    +0.000 F 
ENDROOT
BRANCH   1  10
ATOM      9  O   UNL     1       0.966  11.860  19.265  0.00  0.00    +0.000 OA
ATOM     10  S   UNL     1       0.822  10.901  20.341  0.00  0.00    +0.000 S 
ATOM     11  O   UNL     1       1.453  11.131  21.624  0.00  0.00    +0.000 OA
BRANCH  10  12
ATOM     12  N   UNL     1      -0.816  10.612  20.649  0.00  0.00    +0.000 N 
ATOM     13  C   UNL     1      -1.386  11.645  21.426  0.00  0.00    +0.000 A 
ATOM     14  N   UNL     1      -1.576  11.493  22.712  0.00  0.00    +0.000 NA
ATOM     15  C   UNL     1      -2.100  12.688  23.185  0.00  0.00    +0.000 A 
ATOM     16  N   UNL     1      -2.436  13.665  22.342  0.00  0.00    +0.000 NA
ATOM     17  S   UNL     1      -1.986  13.130  20.819  0.00  0.00    +0.000 S 
ATOM     18  H   UNL     1      -0.856   9.722  21.151  0.00  0.00    +0.000 HD
ENDBRANCH  10  12
ENDBRANCH   1  10
BRANCH   5  19
ATOM     19  O   UNL     1       2.666   5.616  18.409  0.00  0.00    +0.000 OA
BRANCH  19  20
ATOM     20  C   UNL     1       3.339   4.815  19.394  0.00  0.00    +0.000 C 
ATOM     21  O   UNL     1       2.453   3.773  19.849  0.00  0.00    +0.000 OA
ATOM     22  C   UNL     1       3.126   2.894  20.756  0.00  0.00    +0.000 C 
ATOM     23  C   UNL     1       4.309   2.206  20.069  0.00  0.00    +0.000 C 
ATOM     24  N   UNL     1       5.295   3.185  19.598  0.00  0.00    +0.000 NA
ATOM     25  C   UNL     1       4.627   4.189  18.730  0.00  0.00    +0.000 C 
ATOM     26  H   UNL     1       6.024   2.718  19.059  0.00  0.00    +0.000 HD
BRANCH  25  27
ATOM     27  C   UNL     1       5.642   5.261  18.349  0.00  0.00    +0.000 A 
ATOM     28  C   UNL     1       5.428   6.074  17.223  0.00  0.00    +0.000 A 
ATOM     29  C   UNL     1       6.356   7.055  16.870  0.00  0.00    +0.000 A 
ATOM     30  C   UNL     1       7.499   7.229  17.641  0.00  0.00    +0.000 A 
ATOM     31  F   UNL     1       8.387   8.173  17.300  0.00  0.00    +0.000 F 
ATOM     32  C   UNL     1       7.737   6.437  18.756  0.00  0.00    +0.000 A 
ATOM     33  C   UNL     1       6.814   5.452  19.108  0.00  0.00    +0.000 A 
ENDBRANCH  25  27
ENDBRANCH  19  20
ENDBRANCH   5  19
TORSDOF 5
ENDMDL
MODEL 6
REMARK VINA RESULT:      -8.8      1.585      1.728
REMARK  Name = 
REMARK  5 active torsions:
REMARK  status: ('A' for Active; 'I' for Inactive)
REMARK    1  A    between atoms: S_2  and  N_4
REMARK    2  A    between atoms: S_2  and  C_10
REMARK    3  A    between atoms: C_14  and  O_15
REMARK    4  A    between atoms: O_15  and  C_16
REMARK    5  A    between atoms: C_21  and  C_22
REMARK                            x       y       z     vdW  Elec       q    Type
REMARK                         _______ _______ _______ _____ _____    ______ ____
ROOT
ATOM      1  C   UNL     1       1.300   9.270  19.934  0.00  0.00    +0.000 A 
ATOM      2  C   UNL     1       1.817   9.258  18.639  0.00  0.00    +0.000 A 
ATOM      3  C   UNL     1       2.300   8.067  18.108  0.00  0.00    +0.000 A 
ATOM      4  F   UNL     1       2.731   8.102  16.840  0.00  0.00    +0.000 F 
ATOM      5  C   UNL     1       2.286   6.884  18.853  0.00  0.00    +0.000 A 
ATOM      6  C   UNL     1       1.762   6.916  20.152  0.00  0.00    +0.000 A 
ATOM      7  C   UNL     1       1.279   8.109  20.691  0.00  0.00    +0.000 A 
ATOM      8  F   UNL     1       0.778   8.099  21.933  0.00  0.00    +0.000 F 
ENDROOT
BRANCH   1  10
ATOM      9  O   UNL     1       1.045  10.803  22.005  0.00  0.00    +0.000 OA
ATOM     10  S   UNL     1       0.675  10.770  20.606  0.00  0.00    +0.000 S 
ATOM     11  O   UNL     1      -0.714  10.879  20.208  0.00  0.00    +0.000 OA
BRANCH  10  12
ATOM     12  N   UNL     1       1.521  11.958  19.750  0.00  0.00    +0.000 N 
ATOM     13  C   UNL     1       0.867  13.210  19.818  0.00  0.00    +0.000 A 
ATOM     14  N   UNL     1       0.138  13.643  18.822  0.00  0.00    +0.000 NA
ATOM     15  C   UNL     1      -0.397  14.862  19.216  0.00  0.00    +0.000 A 
ATOM     16  N   UNL     1      -0.024  15.430  20.364  0.00  0.00    +0.000 NA
ATOM     17  S   UNL     1       1.012  14.337  21.099  0.00  0.00    +0.000 S 
ATOM     18  H   UNL     1       1.567  11.631  18.783  0.00  0.00    +0.000 HD
ENDBRANCH  10  12
ENDBRANCH   1  10
BRANCH   5  19
ATOM     19  O   UNL     1       2.690   5.646  18.430  0.00  0.00    +0.000 OA
BRANCH  19  20
ATOM     20  C   UNL     1       3.369   4.812  19.382  0.00  0.00    +0.000 C 
ATOM     21  O   UNL     1       2.486   3.754  19.806  0.00  0.00    +0.000 OA
ATOM     22  C   UNL     1       3.164   2.845  20.679  0.00  0.00    +0.000 C 
ATOM     23  C   UNL     1       4.345   2.182  19.962  0.00  0.00    +0.000 C 
ATOM     24  N   UNL     1       5.327   3.178  19.520  0.00  0.00    +0.000 NA
ATOM     25  C   UNL     1       4.654   4.210  18.690  0.00  0.00    +0.000 C 
ATOM     26  H   UNL     1       6.053   2.730  18.961  0.00  0.00    +0.000 HD
BRANCH  25  27
ATOM     27  C   UNL     1       5.666   5.295  18.341  0.00  0.00    +0.000 A 
ATOM     28  C   UNL     1       5.431   6.164  17.261  0.00  0.00    +0.000 A 
ATOM     29  C   UNL     1       6.356   7.158  16.937  0.00  0.00    +0.000 A 
ATOM     30  C   UNL     1       7.517   7.289  17.690  0.00  0.00    +0.000 A 
ATOM     31  F   UNL     1       8.403   8.244  17.377  0.00  0.00    +0.000 F 
ATOM     32  C   UNL     1       7.775   6.441  18.759  0.00  0.00    +0.000 A 
ATOM     33  C   UNL     1       6.855   5.444  19.082  0.00  0.00    +0.000 A 
ENDBRANCH  25  27
ENDBRANCH  19  20
ENDBRANCH   5  19
TORSDOF 5
ENDMDL
MODEL 7
REMARK VINA RESULT:      -8.7      0.802      1.633
REMARK  Name = 
REMARK  5 active torsions:
REMARK  status: ('A' for Active; 'I' for Inactive)
REMARK    1  A    between atoms: S_2  and  N_4
REMARK    2  A    between atoms: S_2  and  C_10
REMARK    3  A    between atoms: C_14  and  O_15
REMARK    4  A    between atoms: O_15  and  C_16
REMARK    5  A    between atoms: C_21  and  C_22
REMARK                            x       y       z     vdW  Elec       q    Type
REMARK                         _______ _______ _______ _____ _____    ______ ____
ROOT
ATOM      1  C   UNL     1       1.259   9.424  19.486  0.00  0.00    +0.000 A 
ATOM      2  C   UNL     1       1.144   8.371  20.393  0.00  0.00    +0.000 A 
ATOM      3  C   UNL     1       1.622   7.113  20.044  0.00  0.00    +0.000 A 
ATOM      4  F   UNL     1       1.537   6.154  20.975  0.00  0.00    +0.000 F 
ATOM      5  C   UNL     1       2.207   6.883  18.795  0.00  0.00    +0.000 A 
ATOM      6  C   UNL     1       2.315   7.953  17.898  0.00  0.00    +0.000 A 
ATOM      7  C   UNL     1       1.834   9.217  18.242  0.00  0.00    +0.000 A 
ATOM      8  F   UNL     1       1.962  10.217  17.361  0.00  0.00    +0.000 F 
ENDROOT
BRANCH   1  10
ATOM      9  O   UNL     1       1.816  11.808  20.330  0.00  0.00    +0.000 OA
ATOM     10  S   UNL     1       0.669  11.021  19.928  0.00  0.00    +0.000 S 
ATOM     11  O   UNL     1      -0.451  10.836  20.829  0.00  0.00    +0.000 OA
BRANCH  10  12
ATOM     12  N   UNL     1       0.034  11.613  18.477  0.00  0.00    +0.000 N 
ATOM     13  C   UNL     1      -1.291  11.166  18.271  0.00  0.00    +0.000 A 
ATOM     14  N   UNL     1      -1.547  10.171  17.460  0.00  0.00    +0.000 NA
ATOM     15  C   UNL     1      -2.916   9.950  17.515  0.00  0.00    +0.000 A 
ATOM     16  N   UNL     1      -3.713  10.776  18.195  0.00  0.00    +0.000 NA
ATOM     17  S   UNL     1      -2.697  11.888  18.929  0.00  0.00    +0.000 S 
ATOM     18  H   UNL     1       0.648  11.265  17.737  0.00  0.00    +0.000 HD
ENDBRANCH  10  12
ENDBRANCH   1  10
BRANCH   5  19
ATOM     19  O   UNL     1       2.753   5.707  18.351  0.00  0.00    +0.000 OA
BRANCH  19  20
ATOM     20  C   UNL     1       3.395   4.869  19.325  0.00  0.00    +0.000 C 
ATOM     21  O   UNL     1       2.493   3.813  19.715  0.00  0.00    +0.000 OA
ATOM     22  C   UNL     1       3.137   2.899  20.608  0.00  0.00    +0.000 C 
ATOM     23  C   UNL     1       4.339   2.233  19.931  0.00  0.00    +0.000 C 
ATOM     24  N   UNL     1       5.340   3.226  19.527  0.00  0.00    +0.000 NA
ATOM     25  C   UNL     1       4.701   4.263  18.677  0.00  0.00    +0.000 C 
ATOM     26  H   UNL     1       6.084   2.777  18.993  0.00  0.00    +0.000 HD
BRANCH  25  27
ATOM     27  C   UNL     1       5.729   5.346  18.367  0.00  0.00    +0.000 A 
ATOM     28  C   UNL     1       5.520   6.238  17.301  0.00  0.00    +0.000 A 
ATOM     29  C   UNL     1       6.460   7.229  17.012  0.00  0.00    +0.000 A 
ATOM     30  C   UNL     1       7.609   7.333  17.787  0.00  0.00    +0.000 A 
ATOM     31  F   UNL     1       8.509   8.287  17.508  0.00  0.00    +0.000 F 
ATOM     32  C   UNL     1       7.842   6.462  18.843  0.00  0.00    +0.000 A 
ATOM     33  C   UNL     1       6.906   5.467  19.130  0.00  0.00    +0.000 A 
ENDBRANCH  25  27
ENDBRANCH  19  20
ENDBRANCH   5  19
TORSDOF 5
ENDMDL
MODEL 8
REMARK VINA RESULT:      -8.7      1.777      2.289
REMARK  Name = 
REMARK  5 active torsions:
REMARK  status: ('A' for Active; 'I' for Inactive)
REMARK    1  A    between atoms: S_2  and  N_4
REMARK    2  A    between atoms: S_2  and  C_10
REMARK    3  A    between atoms: C_14  and  O_15
REMARK    4  A    between atoms: O_15  and  C_16
REMARK    5  A    between atoms: C_21  and  C_22
REMARK                            x       y       z     vdW  Elec       q    Type
REMARK                         _______ _______ _______ _____ _____    ______ ____
ROOT
ATOM      1  C   UNL     1       1.174   9.364  20.249  0.00  0.00    +0.000 A 
ATOM      2  C   UNL     1       1.440   8.126  20.835  0.00  0.00    +0.000 A 
ATOM      3  C   UNL     1       1.909   7.083  20.044  0.00  0.00    +0.000 A 
ATOM      4  F   UNL     1       2.203   5.936  20.670  0.00  0.00    +0.000 F 
ATOM      5  C   UNL     1       2.109   7.250  18.670  0.00  0.00    +0.000 A 
ATOM      6  C   UNL     1       1.836   8.501  18.100  0.00  0.00    +0.000 A 
ATOM      7  C   UNL     1       1.362   9.550  18.888  0.00  0.00    +0.000 A 
ATOM      8  F   UNL     1       1.121  10.733  18.309  0.00  0.00    +0.000 F 
ENDROOT
BRANCH   1  10
ATOM      9  O   UNL     1       1.499  11.804  21.052  0.00  0.00    +0.000 OA
ATOM     10  S   UNL     1       0.594  10.691  21.247  0.00  0.00    +0.000 S 
ATOM     11  O   UNL     1       0.350  10.162  22.574  0.00  0.00    +0.000 OA
BRANCH  10  12
ATOM     12  N   UNL     1      -0.919  11.044  20.578  0.00  0.00    +0.000 N 
ATOM     13  C   UNL     1      -1.161  12.437  20.553  0.00  0.00    +0.000 A 
ATOM     14  N   UNL     1      -1.923  13.003  21.454  0.00  0.00    +0.000 NA
ATOM     15  C   UNL     1      -1.921  14.364  21.183  0.00  0.00    +0.000 A 
ATOM     16  N   UNL     1      -1.330  14.840  20.085  0.00  0.00    +0.000 NA
ATOM     17  S   UNL     1      -0.615  13.518  19.343  0.00  0.00    +0.000 S 
ATOM     18  H   UNL     1      -1.606  10.572  21.169  0.00  0.00    +0.000 HD
ENDBRANCH  10  12
ENDBRANCH   1  10
BRANCH   5  19
ATOM     19  O   UNL     1       2.605   6.320  17.797  0.00  0.00    +0.000 OA
BRANCH  19  20
ATOM     20  C   UNL     1       2.881   5.009  18.315  0.00  0.00    +0.000 C 
ATOM     21  O   UNL     1       1.742   4.155  18.087  0.00  0.00    +0.000 OA
ATOM     22  C   UNL     1       2.020   2.814  18.500  0.00  0.00    +0.000 C 
ATOM     23  C   UNL     1       3.186   2.228  17.696  0.00  0.00    +0.000 C 
ATOM     24  N   UNL     1       4.413   3.009  17.891  0.00  0.00    +0.000 NA
ATOM     25  C   UNL     1       4.152   4.437  17.574  0.00  0.00    +0.000 C 
ATOM     26  H   UNL     1       5.149   2.665  17.275  0.00  0.00    +0.000 HD
BRANCH  25  27
ATOM     27  C   UNL     1       5.403   5.247  17.896  0.00  0.00    +0.000 A 
ATOM     28  C   UNL     1       5.833   6.264  17.026  0.00  0.00    +0.000 A 
ATOM     29  C   UNL     1       6.979   7.007  17.316  0.00  0.00    +0.000 A 
ATOM     30  C   UNL     1       7.698   6.738  18.475  0.00  0.00    +0.000 A 
ATOM     31  F   UNL     1       8.797   7.453  18.751  0.00  0.00    +0.000 F 
ATOM     32  C   UNL     1       7.296   5.736  19.349  0.00  0.00    +0.000 A 
ATOM     33  C   UNL     1       6.155   4.989  19.059  0.00  0.00    +0.000 A 
ENDBRANCH  25  27
ENDBRANCH  19  20
ENDBRANCH   5  19
TORSDOF 5
ENDMDL
MODEL 9
REMARK VINA RESULT:      -8.7      1.126      2.079
REMARK  Name = 
REMARK  5 active torsions:
REMARK  status: ('A' for Active; 'I' for Inactive)
REMARK    1  A    between atoms: S_2  and  N_4
REMARK    2  A    between atoms: S_2  and  C_10
REMARK    3  A    between atoms: C_14  and  O_15
REMARK    4  A    between atoms: O_15  and  C_16
REMARK    5  A    between atoms: C_21  and  C_22
REMARK                            x       y       z     vdW  Elec       q    Type
REMARK                         _______ _______ _______ _____ _____    ______ ____
ROOT
ATOM      1  C   UNL     1       1.371   9.278  19.702  0.00  0.00    +0.000 A 
ATOM      2  C   UNL     1       1.312   8.224  20.613  0.00  0.00    +0.000 A 
ATOM      3  C   UNL     1       1.735   6.958  20.221  0.00  0.00    +0.000 A 
ATOM      4  F   UNL     1       1.711   5.997  21.154  0.00  0.00    +0.000 F 
ATOM      5  C   UNL     1       2.209   6.722  18.927  0.00  0.00    +0.000 A 
ATOM      6  C   UNL     1       2.261   7.794  18.026  0.00  0.00    +0.000 A 
ATOM      7  C   UNL     1       1.835   9.065  18.413  0.00  0.00    +0.000 A 
ATOM      8  F   UNL     1       1.908  10.067  17.527  0.00  0.00    +0.000 F 
ENDROOT
BRANCH   1  10
ATOM      9  O   UNL     1       1.225  11.802  19.141  0.00  0.00    +0.000 OA
ATOM     10  S   UNL     1       0.851  10.884  20.196  0.00  0.00    +0.000 S 
ATOM     11  O   UNL     1       1.314  11.092  21.553  0.00  0.00    +0.000 OA
BRANCH  10  12
ATOM     12  N   UNL     1      -0.832  10.737  20.273  0.00  0.00    +0.000 N 
ATOM     13  C   UNL     1      -1.426  10.910  19.002  0.00  0.00    +0.000 A 
ATOM     14  N   UNL     1      -1.986  12.045  18.670  0.00  0.00    +0.000 NA
ATOM     15  C   UNL     1      -2.425  11.908  17.360  0.00  0.00    +0.000 A 
ATOM     16  N   UNL     1      -2.356  10.730  16.738  0.00  0.00    +0.000 NA
ATOM     17  S   UNL     1      -1.591   9.693  17.809  0.00  0.00    +0.000 S 
ATOM     18  H   UNL     1      -1.150  11.464  20.918  0.00  0.00    +0.000 HD
ENDBRANCH  10  12
ENDBRANCH   1  10
BRANCH   5  19
ATOM     19  O   UNL     1       2.692   5.539  18.436  0.00  0.00    +0.000 OA
BRANCH  19  20
ATOM     20  C   UNL     1       3.393   4.681  19.351  0.00  0.00    +0.000 C 
ATOM     21  O   UNL     1       2.523   3.608  19.761  0.00  0.00    +0.000 OA
ATOM     22  C   UNL     1       3.221   2.678  20.595  0.00  0.00    +0.000 C 
ATOM     23  C   UNL     1       4.390   2.040  19.837  0.00  0.00    +0.000 C 
ATOM     24  N   UNL     1       5.360   3.053  19.404  0.00  0.00    +0.000 NA
ATOM     25  C   UNL     1       4.667   4.105  18.618  0.00  0.00    +0.000 C 
ATOM     26  H   UNL     1       6.077   2.624  18.820  0.00  0.00    +0.000 HD
BRANCH  25  27
ATOM     27  C   UNL     1       5.667   5.205  18.281  0.00  0.00    +0.000 A 
ATOM     28  C   UNL     1       6.809   5.395  19.078  0.00  0.00    +0.000 A 
ATOM     29  C   UNL     1       7.727   6.402  18.774  0.00  0.00    +0.000 A 
ATOM     30  C   UNL     1       7.509   7.221  17.671  0.00  0.00    +0.000 A 
ATOM     31  F   UNL     1       8.392   8.186  17.381  0.00  0.00    +0.000 F 
ATOM     32  C   UNL     1       6.386   7.057  16.870  0.00  0.00    +0.000 A 
ATOM     33  C   UNL     1       5.465   6.055  17.175  0.00  0.00    +0.000 A 
ENDBRANCH  25  27
ENDBRANCH  19  20
ENDBRANCH   5  19
TORSDOF 5
ENDMDL
