MODEL 1
REMARK VINA RESULT:      -7.2      0.000      0.000
REMARK  Name = 
REMARK  6 active torsions:
REMARK  status: ('A' for Active; 'I' for Inactive)
REMARK    1  A    between atoms: O_1  and  N_2
REMARK    2  A    between atoms: C_3  and  C_4
REMARK    3  A    between atoms: C_3  and  C_16
REMARK    4  A    between atoms: C_4  and  S_5
REMARK    5  A    between atoms: S_5  and  C_6
REMARK    6  A    between atoms: C_11  and  C_12
REMARK                            x       y       z     vdW  Elec       q    Type
REMARK                         _______ _______ _______ _____ _____    ______ ____
ROOT
ATOM      1  C   UNL     1       3.948   2.809  17.664  0.00  0.00    +0.000 C 
ENDROOT
BRANCH   1   3
ATOM      2  N   UNL     1       5.405   3.516  19.620  0.00  0.00    +0.000 NA
ATOM      3  C   UNL     1       4.999   3.649  18.387  0.00  0.00    +0.000 C 
BRANCH   3   4
ATOM      4  C   UNL     1       5.757   4.686  17.657  0.00  0.00    +0.000 A 
ATOM      5  C   UNL     1       6.320   5.865  18.283  0.00  0.00    +0.000 A 
ATOM      6  C   UNL     1       7.031   6.638  17.404  0.00  0.00    +0.000 A 
ATOM      7 CL   UNL     1       7.860   8.098  17.755  0.00  0.00    +0.000 Cl
ATOM      8  S   UNL     1       7.054   6.011  15.839  0.00  0.00    +0.000 S 
ATOM      9  C   UNL     1       6.129   4.666  16.324  0.00  0.00    +0.000 A 
ATOM     10 CL   UNL     1       5.861   3.455  15.124  0.00  0.00    +0.000 Cl
ENDBRANCH   3   4
BRANCH   2  11
ATOM     11  O   UNL     1       4.819   2.444  20.290  0.00  0.00    +0.000 OA
ATOM     12  H   UNL     1       5.466   1.727  20.151  0.00  0.00    +0.000 HD
ENDBRANCH   2  11
ENDBRANCH   1   3
BRANCH   1  13
ATOM     13  S   UNL     1       2.454   3.708  17.130  0.00  0.00    +0.000 S 
BRANCH  13  14
ATOM     14  C   UNL     1       2.208   4.746  18.567  0.00  0.00    +0.000 A 
ATOM     15  C   UNL     1       2.593   6.089  18.464  0.00  0.00    +0.000 A 
ATOM     16  C   UNL     1       2.387   6.932  19.542  0.00  0.00    +0.000 A 
ATOM     17  N   UNL     1       1.830   6.530  20.698  0.00  0.00    +0.000 NA
ATOM     18  C   UNL     1       1.460   5.234  20.776  0.00  0.00    +0.000 A 
ATOM     19  C   UNL     1       1.623   4.297  19.756  0.00  0.00    +0.000 A 
BRANCH  19  20
ATOM     20  C   UNL     1       1.153   2.904  20.050  0.00  0.00    +0.000 C 
ATOM     21  F   UNL     1       2.063   1.911  19.888  0.00  0.00    +0.000 F 
ATOM     22  F   UNL     1       0.733   2.790  21.345  0.00  0.00    +0.000 F 
ATOM     23  F   UNL     1       0.080   2.551  19.290  0.00  0.00    +0.000 F 
ENDBRANCH  19  20
ENDBRANCH  13  14
ENDBRANCH   1  13
TORSDOF 6
ENDMDL
MODEL 2
REMARK VINA RESULT:      -7.1      4.254      6.062
REMARK  Name = 
REMARK  6 active torsions:
REMARK  status: ('A' for Active; 'I' for Inactive)
REMARK    1  A    between atoms: O_1  and  N_2
REMARK    2  A    between atoms: C_3  and  C_4
REMARK    3  A    between atoms: C_3  and  C_16
REMARK    4  A    between atoms: C_4  and  S_5
REMARK    5  A    between atoms: S_5  and  C_6
REMARK    6  A    between atoms: C_11  and  C_12
REMARK                            x       y       z     vdW  Elec       q    Type
REMARK                         _______ _______ _______ _____ _____    ______ ____
ROOT
ATOM      1  C   UNL     1       4.210   3.168  18.243  0.00  0.00    +0.000 C 
ENDROOT
BRANCH   1   3
ATOM      2  N   UNL     1       1.719   3.234  17.756  0.00  0.00    +0.000 NA
ATOM      3  C   UNL     1       2.825   3.804  18.148  0.00  0.00    +0.000 C 
BRANCH   3   4
ATOM      4  C   UNL     1       2.605   5.186  18.625  0.00  0.00    +0.000 A 
ATOM      5  C   UNL     1       2.573   6.343  17.753  0.00  0.00    +0.000 A 
ATOM      6  C   UNL     1       2.290   7.501  18.429  0.00  0.00    +0.000 A 
ATOM      7 CL   UNL     1       2.145   9.074  17.760  0.00  0.00    +0.000 Cl
ATOM      8  S   UNL     1       2.061   7.264  20.082  0.00  0.00    +0.000 S 
ATOM      9  C   UNL     1       2.309   5.588  19.916  0.00  0.00    +0.000 A 
ATOM     10 CL   UNL     1       2.083   4.639  21.339  0.00  0.00    +0.000 Cl
ENDBRANCH   3   4
BRANCH   2  11
ATOM     11  O   UNL     1       1.863   1.883  17.447  0.00  0.00    +0.000 OA
ATOM     12  H   UNL     1       1.172   1.465  17.995  0.00  0.00    +0.000 HD
ENDBRANCH   2  11
ENDBRANCH   1   3
BRANCH   1  13
ATOM     13  S   UNL     1       5.579   4.314  18.613  0.00  0.00    +0.000 S 
BRANCH  13  14
ATOM     14  C   UNL     1       6.153   4.631  16.948  0.00  0.00    +0.000 A 
ATOM     15  C   UNL     1       5.827   3.689  15.965  0.00  0.00    +0.000 A 
ATOM     16  C   UNL     1       6.224   3.916  14.658  0.00  0.00    +0.000 A 
ATOM     17  N   UNL     1       6.913   5.005  14.275  0.00  0.00    +0.000 NA
ATOM     18  C   UNL     1       7.213   5.905  15.236  0.00  0.00    +0.000 A 
ATOM     19  C   UNL     1       6.868   5.777  16.581  0.00  0.00    +0.000 A 
BRANCH  19  20
ATOM     20  C   UNL     1       7.305   6.887  17.489  0.00  0.00    +0.000 C 
ATOM     21  F   UNL     1       7.982   6.523  18.608  0.00  0.00    +0.000 F 
ATOM     22  F   UNL     1       8.137   7.754  16.840  0.00  0.00    +0.000 F 
ATOM     23  F   UNL     1       6.259   7.644  17.920  0.00  0.00    +0.000 F 
ENDBRANCH  19  20
ENDBRANCH  13  14
ENDBRANCH   1  13
TORSDOF 6
ENDMDL
MODEL 3
REMARK VINA RESULT:      -7.1      1.222      2.331
REMARK  Name = 
REMARK  6 active torsions:
REMARK  status: ('A' for Active; 'I' for Inactive)
REMARK    1  A    between atoms: O_1  and  N_2
REMARK    2  A    between atoms: C_3  and  C_4
REMARK    3  A    between atoms: C_3  and  C_16
REMARK    4  A    between atoms: C_4  and  S_5
REMARK    5  A    between atoms: S_5  and  C_6
REMARK    6  A    between atoms: C_11  and  C_12
REMARK                            x       y       z     vdW  Elec       q    Type
REMARK                         _______ _______ _______ _____ _____    ______ ____
ROOT
ATOM      1  C   UNL     1       3.992   2.984  17.529  0.00  0.00    +0.000 C 
ENDROOT
BRANCH   1   3
ATOM      2  N   UNL     1       5.915   4.327  18.501  0.00  0.00    +0.000 NA
ATOM      3  C   UNL     1       5.243   3.859  17.485  0.00  0.00    +0.000 C 
BRANCH   3   4
ATOM      4  C   UNL     1       5.886   4.177  16.193  0.00  0.00    +0.000 A 
ATOM      5  C   UNL     1       5.650   3.434  14.971  0.00  0.00    +0.000 A 
ATOM      6  C   UNL     1       6.315   3.966  13.898  0.00  0.00    +0.000 A 
ATOM      7 CL   UNL     1       6.283   3.393  12.281  0.00  0.00    +0.000 Cl
ATOM      8  S   UNL     1       7.223   5.331  14.291  0.00  0.00    +0.000 S 
ATOM      9  C   UNL     1       6.713   5.251  15.913  0.00  0.00    +0.000 A 
ATOM     10 CL   UNL     1       7.230   6.539  16.938  0.00  0.00    +0.000 Cl
ENDBRANCH   3   4
BRANCH   2  11
ATOM     11  O   UNL     1       5.424   3.914  19.737  0.00  0.00    +0.000 OA
ATOM     12  H   UNL     1       4.891   3.130  19.503  0.00  0.00    +0.000 HD
ENDBRANCH   2  11
ENDBRANCH   1   3
BRANCH   1  13
ATOM     13  S   UNL     1       2.435   3.817  17.075  0.00  0.00    +0.000 S 
BRANCH  13  14
ATOM     14  C   UNL     1       2.251   4.889  18.496  0.00  0.00    +0.000 A 
ATOM     15  C   UNL     1       2.560   6.244  18.324  0.00  0.00    +0.000 A 
ATOM     16  C   UNL     1       2.397   7.111  19.390  0.00  0.00    +0.000 A 
ATOM     17  N   UNL     1       1.952   6.722  20.597  0.00  0.00    +0.000 NA
ATOM     18  C   UNL     1       1.653   5.413  20.741  0.00  0.00    +0.000 A 
ATOM     19  C   UNL     1       1.782   4.452  19.740  0.00  0.00    +0.000 A 
BRANCH  19  20
ATOM     20  C   UNL     1       1.404   3.049  20.110  0.00  0.00    +0.000 C 
ATOM     21  F   UNL     1       2.415   2.145  20.168  0.00  0.00    +0.000 F 
ATOM     22  F   UNL     1       0.823   3.006  21.346  0.00  0.00    +0.000 F 
ATOM     23  F   UNL     1       0.483   2.521  19.258  0.00  0.00    +0.000 F 
ENDBRANCH  19  20
ENDBRANCH  13  14
ENDBRANCH   1  13
TORSDOF 6
ENDMDL
MODEL 4
REMARK VINA RESULT:      -7.0      2.494      3.085
REMARK  Name = 
REMARK  6 active torsions:
REMARK  status: ('A' for Active; 'I' for Inactive)
REMARK    1  A    between atoms: O_1  and  N_2
REMARK    2  A    between atoms: C_3  and  C_4
REMARK    3  A    between atoms: C_3  and  C_16
REMARK    4  A    between atoms: C_4  and  S_5
REMARK    5  A    between atoms: S_5  and  C_6
REMARK    6  A    between atoms: C_11  and  C_12
REMARK                            x       y       z     vdW  Elec       q    Type
REMARK                         _______ _______ _______ _____ _____    ______ ____
ROOT
ATOM      1  C   UNL     1       5.404   4.906  19.816  0.00  0.00    +0.000 C 
ENDROOT
BRANCH   1   3
ATOM      2  N   UNL     1       7.771   5.582  19.197  0.00  0.00    +0.000 NA
ATOM      3  C   UNL     1       6.526   5.355  18.882  0.00  0.00    +0.000 C 
BRANCH   3   4
ATOM      4  C   UNL     1       6.284   5.476  17.429  0.00  0.00    +0.000 A 
ATOM      5  C   UNL     1       7.006   4.719  16.426  0.00  0.00    +0.000 A 
ATOM      6  C   UNL     1       6.553   4.965  15.157  0.00  0.00    +0.000 A 
ATOM      7 CL   UNL     1       7.130   4.259  13.704  0.00  0.00    +0.000 Cl
ATOM      8  S   UNL     1       5.287   6.077  15.109  0.00  0.00    +0.000 S 
ATOM      9  C   UNL     1       5.304   6.227  16.805  0.00  0.00    +0.000 A 
ATOM     10 CL   UNL     1       4.069   7.217  17.494  0.00  0.00    +0.000 Cl
ENDBRANCH   3   4
BRANCH   2  11
ATOM     11  O   UNL     1       8.068   5.326  20.534  0.00  0.00    +0.000 OA
ATOM     12  H   UNL     1       7.345   4.726  20.801  0.00  0.00    +0.000 HD
ENDBRANCH   2  11
ENDBRANCH   1   3
BRANCH   1  13
ATOM     13  S   UNL     1       4.960   3.140  19.719  0.00  0.00    +0.000 S 
BRANCH  13  14
ATOM     14  C   UNL     1       3.283   3.293  19.111  0.00  0.00    +0.000 A 
ATOM     15  C   UNL     1       3.113   3.473  17.732  0.00  0.00    +0.000 A 
ATOM     16  C   UNL     1       1.831   3.560  17.219  0.00  0.00    +0.000 A 
ATOM     17  N   UNL     1       0.725   3.480  17.979  0.00  0.00    +0.000 NA
ATOM     18  C   UNL     1       0.909   3.300  19.304  0.00  0.00    +0.000 A 
ATOM     19  C   UNL     1       2.152   3.202  19.928  0.00  0.00    +0.000 A 
BRANCH  19  20
ATOM     20  C   UNL     1       2.137   3.013  21.415  0.00  0.00    +0.000 C 
ATOM     21  F   UNL     1       3.017   2.111  21.920  0.00  0.00    +0.000 F 
ATOM     22  F   UNL     1       2.419   4.182  22.064  0.00  0.00    +0.000 F 
ATOM     23  F   UNL     1       0.913   2.632  21.875  0.00  0.00    +0.000 F 
ENDBRANCH  19  20
ENDBRANCH  13  14
ENDBRANCH   1  13
TORSDOF 6
ENDMDL
MODEL 5
REMARK VINA RESULT:      -7.0      2.762      3.754
REMARK  Name = 
REMARK  6 active torsions:
REMARK  status: ('A' for Active; 'I' for Inactive)
REMARK    1  A    between atoms: O_1  and  N_2
REMARK    2  A    between atoms: C_3  and  C_4
REMARK    3  A    between atoms: C_3  and  C_16
REMARK    4  A    between atoms: C_4  and  S_5
REMARK    5  A    between atoms: S_5  and  C_6
REMARK    6  A    between atoms: C_11  and  C_12
REMARK                            x       y       z     vdW  Elec       q    Type
REMARK                         _______ _______ _______ _____ _____    ______ ____
ROOT
ATOM      1  C   UNL     1       2.803   6.393  18.557  0.00  0.00    +0.000 C 
ENDROOT
BRANCH   1   3
ATOM      2  N   UNL     1       3.632   8.100  16.871  0.00  0.00    +0.000 NA
ATOM      3  C   UNL     1       3.701   6.931  17.445  0.00  0.00    +0.000 C 
BRANCH   3   4
ATOM      4  C   UNL     1       4.858   6.142  16.974  0.00  0.00    +0.000 A 
ATOM      5  C   UNL     1       5.266   6.059  15.585  0.00  0.00    +0.000 A 
ATOM      6  C   UNL     1       6.405   5.317  15.417  0.00  0.00    +0.000 A 
ATOM      7 CL   UNL     1       7.215   4.996  13.939  0.00  0.00    +0.000 Cl
ATOM      8  S   UNL     1       7.018   4.705  16.864  0.00  0.00    +0.000 S 
ATOM      9  C   UNL     1       5.773   5.454  17.752  0.00  0.00    +0.000 A 
ATOM     10 CL   UNL     1       5.874   5.316  19.469  0.00  0.00    +0.000 Cl
ENDBRANCH   3   4
BRANCH   2  11
ATOM     11  O   UNL     1       2.646   8.929  17.402  0.00  0.00    +0.000 OA
ATOM     12  H   UNL     1       2.197   9.264  16.603  0.00  0.00    +0.000 HD
ENDBRANCH   2  11
ENDBRANCH   1   3
BRANCH   1  13
ATOM     13  S   UNL     1       1.855   4.891  18.145  0.00  0.00    +0.000 S 
BRANCH  13  14
ATOM     14  C   UNL     1       2.273   3.883  19.564  0.00  0.00    +0.000 A 
ATOM     15  C   UNL     1       1.907   4.367  20.827  0.00  0.00    +0.000 A 
ATOM     16  C   UNL     1       2.182   3.601  21.946  0.00  0.00    +0.000 A 
ATOM     17  N   UNL     1       2.787   2.402  21.889  0.00  0.00    +0.000 NA
ATOM     18  C   UNL     1       3.126   1.950  20.663  0.00  0.00    +0.000 A 
ATOM     19  C   UNL     1       2.902   2.637  19.471  0.00  0.00    +0.000 A 
BRANCH  19  20
ATOM     20  C   UNL     1       3.364   1.961  18.216  0.00  0.00    +0.000 C 
ATOM     21  F   UNL     1       3.935   0.738  18.361  0.00  0.00    +0.000 F 
ATOM     22  F   UNL     1       2.325   1.765  17.350  0.00  0.00    +0.000 F 
ATOM     23  F   UNL     1       4.269   2.712  17.529  0.00  0.00    +0.000 F 
ENDBRANCH  19  20
ENDBRANCH  13  14
ENDBRANCH   1  13
TORSDOF 6
ENDMDL
MODEL 6
REMARK VINA RESULT:      -6.8      2.957      3.967
REMARK  Name = 
REMARK  6 active torsions:
REMARK  status: ('A' for Active; 'I' for Inactive)
REMARK    1  A    between atoms: O_1  and  N_2
REMARK    2  A    between atoms: C_3  and  C_4
REMARK    3  A    between atoms: C_3  and  C_16
REMARK    4  A    between atoms: C_4  and  S_5
REMARK    5  A    between atoms: S_5  and  C_6
REMARK    6  A    between atoms: C_11  and  C_12
REMARK                            x       y       z     vdW  Elec       q    Type
REMARK                         _______ _______ _______ _____ _____    ______ ____
ROOT
ATOM      1  C   UNL     1       2.519   4.541  19.075  0.00  0.00    +0.000 C 
ENDROOT
BRANCH   1   3
ATOM      2  N   UNL     1       4.297   2.905  19.854  0.00  0.00    +0.000 NA
ATOM      3  C   UNL     1       3.877   3.844  19.051  0.00  0.00    +0.000 C 
BRANCH   3   4
ATOM      4  C   UNL     1       4.846   4.135  17.975  0.00  0.00    +0.000 A 
ATOM      5  C   UNL     1       4.605   3.851  16.574  0.00  0.00    +0.000 A 
ATOM      6  C   UNL     1       5.630   4.272  15.769  0.00  0.00    +0.000 A 
ATOM      7 CL   UNL     1       5.719   4.138  14.061  0.00  0.00    +0.000 Cl
ATOM      8  S   UNL     1       6.888   4.999  16.624  0.00  0.00    +0.000 S 
ATOM      9  C   UNL     1       6.061   4.788  18.097  0.00  0.00    +0.000 A 
ATOM     10 CL   UNL     1       6.805   5.475  19.494  0.00  0.00    +0.000 Cl
ENDBRANCH   3   4
BRANCH   2  11
ATOM     11  O   UNL     1       3.345   2.498  20.786  0.00  0.00    +0.000 OA
ATOM     12  H   UNL     1       3.846   1.871  21.342  0.00  0.00    +0.000 HD
ENDBRANCH   2  11
ENDBRANCH   1   3
BRANCH   1  13
ATOM     13  S   UNL     1       2.279   5.749  20.420  0.00  0.00    +0.000 S 
BRANCH  13  14
ATOM     14  C   UNL     1       2.165   7.249  19.449  0.00  0.00    +0.000 A 
ATOM     15  C   UNL     1       2.770   7.245  18.186  0.00  0.00    +0.000 A 
ATOM     16  C   UNL     1       2.674   8.374  17.392  0.00  0.00    +0.000 A 
ATOM     17  N   UNL     1       2.023   9.488  17.768  0.00  0.00    +0.000 NA
ATOM     18  C   UNL     1       1.441   9.470  18.986  0.00  0.00    +0.000 A 
ATOM     19  C   UNL     1       1.478   8.392  19.870  0.00  0.00    +0.000 A 
BRANCH  19  20
ATOM     20  C   UNL     1       0.774   8.581  21.180  0.00  0.00    +0.000 C 
ATOM     21  F   UNL     1       1.546   8.533  22.295  0.00  0.00    +0.000 F 
ATOM     22  F   UNL     1       0.153   9.797  21.234  0.00  0.00    +0.000 F 
ATOM     23  F   UNL     1      -0.213   7.663  21.373  0.00  0.00    +0.000 F 
ENDBRANCH  19  20
ENDBRANCH  13  14
ENDBRANCH   1  13
TORSDOF 6
ENDMDL
MODEL 7
REMARK VINA RESULT:      -6.8      2.658      3.358
REMARK  Name = 
REMARK  6 active torsions:
REMARK  status: ('A' for Active; 'I' for Inactive)
REMARK    1  A    between atoms: O_1  and  N_2
REMARK    2  A    between atoms: C_3  and  C_4
REMARK    3  A    between atoms: C_3  and  C_16
REMARK    4  A    between atoms: C_4  and  S_5
REMARK    5  A    between atoms: S_5  and  C_6
REMARK    6  A    between atoms: C_11  and  C_12
REMARK                            x       y       z     vdW  Elec       q    Type
REMARK                         _______ _______ _______ _____ _____    ______ ____
ROOT
ATOM      1  C   UNL     1       5.360   4.774  19.741  0.00  0.00    +0.000 C 
ENDROOT
BRANCH   1   3
ATOM      2  N   UNL     1       7.682   5.701  19.299  0.00  0.00    +0.000 NA
ATOM      3  C   UNL     1       6.474   5.402  18.907  0.00  0.00    +0.000 C 
BRANCH   3   4
ATOM      4  C   UNL     1       6.279   5.643  17.462  0.00  0.00    +0.000 A 
ATOM      5  C   UNL     1       7.053   4.991  16.424  0.00  0.00    +0.000 A 
ATOM      6  C   UNL     1       6.637   5.335  15.165  0.00  0.00    +0.000 A 
ATOM      7 CL   UNL     1       7.281   4.769  13.679  0.00  0.00    +0.000 Cl
ATOM      8  S   UNL     1       5.347   6.420  15.167  0.00  0.00    +0.000 S 
ATOM      9  C   UNL     1       5.303   6.425  16.868  0.00  0.00    +0.000 A 
ATOM     10 CL   UNL     1       4.022   7.325  17.594  0.00  0.00    +0.000 Cl
ENDBRANCH   3   4
BRANCH   2  11
ATOM     11  O   UNL     1       7.947   5.342  20.619  0.00  0.00    +0.000 OA
ATOM     12  H   UNL     1       7.873   4.369  20.594  0.00  0.00    +0.000 HD
ENDBRANCH   2  11
ENDBRANCH   1   3
BRANCH   1  13
ATOM     13  S   UNL     1       4.917   3.062  19.299  0.00  0.00    +0.000 S 
BRANCH  13  14
ATOM     14  C   UNL     1       3.239   3.024  19.919  0.00  0.00    +0.000 A 
ATOM     15  C   UNL     1       3.062   2.750  21.281  0.00  0.00    +0.000 A 
ATOM     16  C   UNL     1       1.781   2.746  21.805  0.00  0.00    +0.000 A 
ATOM     17  N   UNL     1       0.682   2.995  21.071  0.00  0.00    +0.000 NA
ATOM     18  C   UNL     1       0.874   3.262  19.762  0.00  0.00    +0.000 A 
ATOM     19  C   UNL     1       2.115   3.289  19.128  0.00  0.00    +0.000 A 
BRANCH  19  20
ATOM     20  C   UNL     1       2.108   3.598  17.661  0.00  0.00    +0.000 C 
ATOM     21  F   UNL     1       3.141   4.344  17.194  0.00  0.00    +0.000 F 
ATOM     22  F   UNL     1       2.135   2.453  16.916  0.00  0.00    +0.000 F 
ATOM     23  F   UNL     1       0.976   4.252  17.278  0.00  0.00    +0.000 F 
ENDBRANCH  19  20
ENDBRANCH  13  14
ENDBRANCH   1  13
TORSDOF 6
ENDMDL
MODEL 8
REMARK VINA RESULT:      -6.8      2.715      3.689
REMARK  Name = 
REMARK  6 active torsions:
REMARK  status: ('A' for Active; 'I' for Inactive)
REMARK    1  A    between atoms: O_1  and  N_2
REMARK    2  A    between atoms: C_3  and  C_4
REMARK    3  A    between atoms: C_3  and  C_16
REMARK    4  A    between atoms: C_4  and  S_5
REMARK    5  A    between atoms: S_5  and  C_6
REMARK    6  A    between atoms: C_11  and  C_12
REMARK                            x       y       z     vdW  Elec       q    Type
REMARK                         _______ _______ _______ _____ _____    ______ ____
ROOT
ATOM      1  C   UNL     1       5.407   5.301  16.410  0.00  0.00    +0.000 C 
ENDROOT
BRANCH   1   3
ATOM      2  N   UNL     1       7.801   4.488  16.177  0.00  0.00    +0.000 NA
ATOM      3  C   UNL     1       6.633   4.771  15.669  0.00  0.00    +0.000 C 
BRANCH   3   4
ATOM      4  C   UNL     1       6.546   4.420  14.237  0.00  0.00    +0.000 A 
ATOM      5  C   UNL     1       5.463   3.648  13.660  0.00  0.00    +0.000 A 
ATOM      6  C   UNL     1       5.581   3.513  12.302  0.00  0.00    +0.000 A 
ATOM      7 CL   UNL     1       4.501   2.690  11.253  0.00  0.00    +0.000 Cl
ATOM      8  S   UNL     1       6.947   4.276  11.676  0.00  0.00    +0.000 S 
ATOM      9  C   UNL     1       7.394   4.831  13.222  0.00  0.00    +0.000 A 
ATOM     10 CL   UNL     1       8.769   5.870  13.291  0.00  0.00    +0.000 Cl
ENDBRANCH   3   4
BRANCH   2  11
ATOM     11  O   UNL     1       7.869   4.661  17.558  0.00  0.00    +0.000 OA
ATOM     12  H   UNL     1       8.671   5.207  17.665  0.00  0.00    +0.000 HD
ENDBRANCH   2  11
ENDBRANCH   1   3
BRANCH   1  13
ATOM     13  S   UNL     1       4.266   4.031  17.050  0.00  0.00    +0.000 S 
BRANCH  13  14
ATOM     14  C   UNL     1       3.429   4.995  18.304  0.00  0.00    +0.000 A 
ATOM     15  C   UNL     1       3.188   6.346  18.023  0.00  0.00    +0.000 A 
ATOM     16  C   UNL     1       2.513   7.117  18.953  0.00  0.00    +0.000 A 
ATOM     17  N   UNL     1       2.068   6.635  20.126  0.00  0.00    +0.000 NA
ATOM     18  C   UNL     1       2.304   5.330  20.377  0.00  0.00    +0.000 A 
ATOM     19  C   UNL     1       2.976   4.464  19.516  0.00  0.00    +0.000 A 
BRANCH  19  20
ATOM     20  C   UNL     1       3.142   3.051  19.990  0.00  0.00    +0.000 C 
ATOM     21  F   UNL     1       4.408   2.562  20.009  0.00  0.00    +0.000 F 
ATOM     22  F   UNL     1       2.688   2.904  21.270  0.00  0.00    +0.000 F 
ATOM     23  F   UNL     1       2.417   2.169  19.247  0.00  0.00    +0.000 F 
ENDBRANCH  19  20
ENDBRANCH  13  14
ENDBRANCH   1  13
TORSDOF 6
ENDMDL
MODEL 9
REMARK VINA RESULT:      -6.7      2.542      3.746
REMARK  Name = 
REMARK  6 active torsions:
REMARK  status: ('A' for Active; 'I' for Inactive)
REMARK    1  A    between atoms: O_1  and  N_2
REMARK    2  A    between atoms: C_3  and  C_4
REMARK    3  A    between atoms: C_3  and  C_16
REMARK    4  A    between atoms: C_4  and  S_5
REMARK    5  A    between atoms: S_5  and  C_6
REMARK    6  A    between atoms: C_11  and  C_12
REMARK                            x       y       z     vdW  Elec       q    Type
REMARK                         _______ _______ _______ _____ _____    ______ ____
ROOT
ATOM      1  C   UNL     1       2.752   6.339  18.581  0.00  0.00    +0.000 C 
ENDROOT
BRANCH   1   3
ATOM      2  N   UNL     1       3.613   8.072  16.938  0.00  0.00    +0.000 NA
ATOM      3  C   UNL     1       3.664   6.890  17.488  0.00  0.00    +0.000 C 
BRANCH   3   4
ATOM      4  C   UNL     1       4.818   6.100  17.011  0.00  0.00    +0.000 A 
ATOM      5  C   UNL     1       5.213   6.010  15.619  0.00  0.00    +0.000 A 
ATOM      6  C   UNL     1       6.351   5.268  15.445  0.00  0.00    +0.000 A 
ATOM      7 CL   UNL     1       7.148   4.940  13.961  0.00  0.00    +0.000 Cl
ATOM      8  S   UNL     1       6.978   4.664  16.889  0.00  0.00    +0.000 S 
ATOM      9  C   UNL     1       5.741   5.417  17.784  0.00  0.00    +0.000 A 
ATOM     10 CL   UNL     1       5.857   5.288  19.501  0.00  0.00    +0.000 Cl
ENDBRANCH   3   4
BRANCH   2  11
ATOM     11  O   UNL     1       2.630   8.900  17.478  0.00  0.00    +0.000 OA
ATOM     12  H   UNL     1       3.093   9.756  17.558  0.00  0.00    +0.000 HD
ENDBRANCH   2  11
ENDBRANCH   1   3
BRANCH   1  13
ATOM     13  S   UNL     1       1.531   5.100  18.035  0.00  0.00    +0.000 S 
BRANCH  13  14
ATOM     14  C   UNL     1       2.405   3.607  18.491  0.00  0.00    +0.000 A 
ATOM     15  C   UNL     1       3.083   2.923  17.474  0.00  0.00    +0.000 A 
ATOM     16  C   UNL     1       3.800   1.782  17.794  0.00  0.00    +0.000 A 
ATOM     17  N   UNL     1       3.883   1.288  19.041  0.00  0.00    +0.000 NA
ATOM     18  C   UNL     1       3.228   1.965  20.008  0.00  0.00    +0.000 A 
ATOM     19  C   UNL     1       2.474   3.119  19.800  0.00  0.00    +0.000 A 
BRANCH  19  20
ATOM     20  C   UNL     1       1.817   3.711  21.010  0.00  0.00    +0.000 C 
ATOM     21  F   UNL     1       2.401   4.818  21.537  0.00  0.00    +0.000 F 
ATOM     22  F   UNL     1       0.532   4.087  20.738  0.00  0.00    +0.000 F 
ATOM     23  F   UNL     1       1.723   2.819  22.035  0.00  0.00    +0.000 F 
ENDBRANCH  19  20
ENDBRANCH  13  14
ENDBRANCH   1  13
TORSDOF 6
ENDMDL
