MODEL 1
REMARK VINA RESULT:      -8.7      0.000      0.000
REMARK  Name = 
REMARK  9 active torsions:
REMARK  status: ('A' for Active; 'I' for Inactive)
REMARK    1  A    between atoms: C_1  and  C_2
REMARK    2  A    between atoms: C_5  and  C_6
REMARK    3  A    between atoms: C_7  and  C_8
REMARK    4  A    between atoms: C_8  and  N_9
REMARK    5  A    between atoms: C_12  and  C_13
REMARK    6  A    between atoms: C_13  and  N_14
REMARK    7  A    between atoms: N_17  and  C_18
REMARK    8  A    between atoms: C_21  and  C_22
REMARK    9  A    between atoms: C_23  and  C_24
REMARK                            x       y       z     vdW  Elec       q    Type
REMARK                         _______ _______ _______ _____ _____    ______ ____
ROOT
ATOM      1  N   UNL     1       4.715   5.495  17.659  0.00  0.00    +0.000 NA
ATOM      2  C   UNL     1       5.374   5.878  16.415  0.00  0.00    +0.000 C 
ATOM      3  C   UNL     1       6.866   5.558  16.365  0.00  0.00    +0.000 C 
ATOM      4  C   UNL     1       7.610   6.132  17.571  0.00  0.00    +0.000 C 
ATOM      5  C   UNL     1       6.928   5.579  18.833  0.00  0.00    +0.000 C 
ATOM      6  C   UNL     1       5.424   5.876  18.881  0.00  0.00    +0.000 C 
ENDROOT
BRANCH   1   7
ATOM      7  C   UNL     1       3.275   5.843  17.680  0.00  0.00    +0.000 C 
BRANCH   7  14
ATOM      8  C   UNL     1       0.714   1.623  18.664  0.00  0.00    +0.000 C 
ATOM      9  C   UNL     1       1.129   2.998  19.099  0.00  0.00    +0.000 A 
ATOM     10  C   UNL     1       0.714   3.522  20.322  0.00  0.00    +0.000 A 
ATOM     11  C   UNL     1       1.104   4.806  20.702  0.00  0.00    +0.000 A 
ATOM     12  C   UNL     1       1.918   5.598  19.873  0.00  0.00    +0.000 A 
ATOM     13  C   UNL     1       2.251   6.990  20.340  0.00  0.00    +0.000 C 
ATOM     14  C   UNL     1       2.374   5.071  18.641  0.00  0.00    +0.000 A 
ATOM     15  C   UNL     1       1.952   3.776  18.272  0.00  0.00    +0.000 A 
ENDBRANCH   7  14
ENDBRANCH   1   7
BRANCH   4  16
ATOM     16  C   UNL     1       7.653   7.676  17.582  0.00  0.00    +0.000 C 
BRANCH  16  17
ATOM     17  N   UNL     1       8.521   8.241  18.610  0.00  0.00    +0.000 N 
ATOM     18  C   UNL     1       8.774   9.595  18.631  0.00  0.00    +0.000 C 
ATOM     19  O   UNL     1       8.236  10.354  17.828  0.00  0.00    +0.000 OA
ATOM     20  N   UNL     1       9.713   9.948  19.587  0.00  0.00    +0.000 N 
ATOM     21  H   UNL     1       8.699   7.701  19.444  0.00  0.00    +0.000 HD
ATOM     22  H   UNL     1      10.263   9.193  19.958  0.00  0.00    +0.000 HD
BRANCH  20  23
ATOM     23  C   UNL     1      10.195  11.264  19.797  0.00  0.00    +0.000 A 
ATOM     24  C   UNL     1       9.844  12.021  20.909  0.00  0.00    +0.000 A 
ATOM     25  C   UNL     1      10.262  13.345  21.036  0.00  0.00    +0.000 A 
ATOM     26  C   UNL     1      11.057  13.952  20.059  0.00  0.00    +0.000 A 
ATOM     27  C   UNL     1      11.417  15.402  20.228  0.00  0.00    +0.000 C 
ATOM     28  C   UNL     1      11.471  13.186  18.951  0.00  0.00    +0.000 A 
ATOM     29  C   UNL     1      12.331  13.759  17.855  0.00  0.00    +0.000 C 
ATOM     30  C   UNL     1      11.047  11.839  18.841  0.00  0.00    +0.000 A 
ENDBRANCH  20  23
ENDBRANCH  16  17
ENDBRANCH   4  16
TORSDOF 5
ENDMDL
MODEL 2
REMARK VINA RESULT:      -8.6      0.449      1.414
REMARK  Name = 
REMARK  9 active torsions:
REMARK  status: ('A' for Active; 'I' for Inactive)
REMARK    1  A    between atoms: C_1  and  C_2
REMARK    2  A    between atoms: C_5  and  C_6
REMARK    3  A    between atoms: C_7  and  C_8
REMARK    4  A    between atoms: C_8  and  N_9
REMARK    5  A    between atoms: C_12  and  C_13
REMARK    6  A    between atoms: C_13  and  N_14
REMARK    7  A    between atoms: N_17  and  C_18
REMARK    8  A    between atoms: C_21  and  C_22
REMARK    9  A    between atoms: C_23  and  C_24
REMARK                            x       y       z     vdW  Elec       q    Type
REMARK                         _______ _______ _______ _____ _____    ______ ____
ROOT
ATOM      1  N   UNL     1       4.769   5.381  17.608  0.00  0.00    +0.000 NA
ATOM      2  C   UNL     1       5.458   5.703  16.363  0.00  0.00    +0.000 C 
ATOM      3  C   UNL     1       6.951   5.383  16.366  0.00  0.00    +0.000 C 
ATOM      4  C   UNL     1       7.666   6.017  17.559  0.00  0.00    +0.000 C 
ATOM      5  C   UNL     1       6.954   5.526  18.831  0.00  0.00    +0.000 C 
ATOM      6  C   UNL     1       5.449   5.823  18.826  0.00  0.00    +0.000 C 
ENDROOT
BRANCH   1   7
ATOM      7  C   UNL     1       3.329   5.728  17.577  0.00  0.00    +0.000 C 
BRANCH   7  14
ATOM      8  C   UNL     1       0.813   1.586  18.938  0.00  0.00    +0.000 C 
ATOM      9  C   UNL     1       1.192   3.008  19.234  0.00  0.00    +0.000 A 
ATOM     10  C   UNL     1       0.734   3.650  20.382  0.00  0.00    +0.000 A 
ATOM     11  C   UNL     1       1.090   4.975  20.633  0.00  0.00    +0.000 A 
ATOM     12  C   UNL     1       1.915   5.690  19.747  0.00  0.00    +0.000 A 
ATOM     13  C   UNL     1       2.210   7.130  20.071  0.00  0.00    +0.000 C 
ATOM     14  C   UNL     1       2.414   5.044  18.591  0.00  0.00    +0.000 A 
ATOM     15  C   UNL     1       2.026   3.709  18.351  0.00  0.00    +0.000 A 
ENDBRANCH   7  14
ENDBRANCH   1   7
BRANCH   4  16
ATOM     16  C   UNL     1       7.709   7.559  17.495  0.00  0.00    +0.000 C 
BRANCH  16  17
ATOM     17  N   UNL     1       8.496   8.179  18.554  0.00  0.00    +0.000 N 
ATOM     18  C   UNL     1       8.653   9.547  18.588  0.00  0.00    +0.000 C 
ATOM     19  O   UNL     1       8.092  10.270  17.767  0.00  0.00    +0.000 OA
ATOM     20  N   UNL     1       9.529   9.960  19.578  0.00  0.00    +0.000 N 
ATOM     21  H   UNL     1       8.681   7.649  19.394  0.00  0.00    +0.000 HD
ATOM     22  H   UNL     1      10.117   9.244  19.968  0.00  0.00    +0.000 HD
BRANCH  20  23
ATOM     23  C   UNL     1       9.910  11.306  19.808  0.00  0.00    +0.000 A 
ATOM     24  C   UNL     1      10.860  11.958  19.031  0.00  0.00    +0.000 A 
ATOM     25  C   UNL     1      11.279  13.251  19.343  0.00  0.00    +0.000 A 
ATOM     26  C   UNL     1      10.749  13.940  20.440  0.00  0.00    +0.000 A 
ATOM     27  C   UNL     1      11.293  15.305  20.757  0.00  0.00    +0.000 C 
ATOM     28  C   UNL     1       9.744  13.319  21.208  0.00  0.00    +0.000 A 
ATOM     29  C   UNL     1       9.117  13.990  22.402  0.00  0.00    +0.000 C 
ATOM     30  C   UNL     1       9.322  12.010  20.872  0.00  0.00    +0.000 A 
ENDBRANCH  20  23
ENDBRANCH  16  17
ENDBRANCH   4  16
TORSDOF 5
ENDMDL
MODEL 3
REMARK VINA RESULT:      -8.5      5.421      8.020
REMARK  Name = 
REMARK  9 active torsions:
REMARK  status: ('A' for Active; 'I' for Inactive)
REMARK    1  A    between atoms: C_1  and  C_2
REMARK    2  A    between atoms: C_5  and  C_6
REMARK    3  A    between atoms: C_7  and  C_8
REMARK    4  A    between atoms: C_8  and  N_9
REMARK    5  A    between atoms: C_12  and  C_13
REMARK    6  A    between atoms: C_13  and  N_14
REMARK    7  A    between atoms: N_17  and  C_18
REMARK    8  A    between atoms: C_21  and  C_22
REMARK    9  A    between atoms: C_23  and  C_24
REMARK                            x       y       z     vdW  Elec       q    Type
REMARK                         _______ _______ _______ _____ _____    ______ ____
ROOT
ATOM      1  N   UNL     1       3.939   3.605  17.803  0.00  0.00    +0.000 NA
ATOM      2  C   UNL     1       4.674   3.505  19.059  0.00  0.00    +0.000 C 
ATOM      3  C   UNL     1       4.394   2.234  19.857  0.00  0.00    +0.000 C 
ATOM      4  C   UNL     1       2.897   2.026  20.088  0.00  0.00    +0.000 C 
ATOM      5  C   UNL     1       2.219   2.019  18.708  0.00  0.00    +0.000 C 
ATOM      6  C   UNL     1       2.514   3.283  17.890  0.00  0.00    +0.000 C 
ENDROOT
BRANCH   1   7
ATOM      7  C   UNL     1       4.216   4.861  17.070  0.00  0.00    +0.000 C 
BRANCH   7  14
ATOM      8  C   UNL     1       5.678   3.359  12.493  0.00  0.00    +0.000 C 
ATOM      9  C   UNL     1       6.004   4.086  13.765  0.00  0.00    +0.000 A 
ATOM     10  C   UNL     1       7.239   4.704  13.944  0.00  0.00    +0.000 A 
ATOM     11  C   UNL     1       7.524   5.366  15.139  0.00  0.00    +0.000 A 
ATOM     12  C   UNL     1       6.583   5.429  16.182  0.00  0.00    +0.000 A 
ATOM     13  C   UNL     1       6.991   6.122  17.454  0.00  0.00    +0.000 C 
ATOM     14  C   UNL     1       5.311   4.832  16.006  0.00  0.00    +0.000 A 
ATOM     15  C   UNL     1       5.054   4.155  14.795  0.00  0.00    +0.000 A 
ENDBRANCH   7  14
ENDBRANCH   1   7
BRANCH   4  16
ATOM     16  C   UNL     1       2.271   3.086  21.020  0.00  0.00    +0.000 C 
BRANCH  16  17
ATOM     17  N   UNL     1       2.780   4.438  20.813  0.00  0.00    +0.000 N 
ATOM     18  C   UNL     1       1.912   5.463  20.508  0.00  0.00    +0.000 C 
ATOM     19  O   UNL     1       0.699   5.274  20.459  0.00  0.00    +0.000 OA
ATOM     20  N   UNL     1       2.567   6.649  20.219  0.00  0.00    +0.000 N 
ATOM     21  H   UNL     1       3.699   4.668  21.162  0.00  0.00    +0.000 HD
ATOM     22  H   UNL     1       3.550   6.569  20.021  0.00  0.00    +0.000 HD
BRANCH  20  23
ATOM     23  C   UNL     1       1.925   7.850  19.828  0.00  0.00    +0.000 A 
ATOM     24  C   UNL     1       1.994   8.349  18.532  0.00  0.00    +0.000 A 
ATOM     25  C   UNL     1       1.429   9.581  18.206  0.00  0.00    +0.000 A 
ATOM     26  C   UNL     1       0.764  10.351  19.166  0.00  0.00    +0.000 A 
ATOM     27  C   UNL     1       0.235  11.699  18.761  0.00  0.00    +0.000 C 
ATOM     28  C   UNL     1       0.633   9.839  20.472  0.00  0.00    +0.000 A 
ATOM     29  C   UNL     1      -0.071  10.600  21.565  0.00  0.00    +0.000 C 
ATOM     30  C   UNL     1       1.203   8.581  20.786  0.00  0.00    +0.000 A 
ENDBRANCH  20  23
ENDBRANCH  16  17
ENDBRANCH   4  16
TORSDOF 5
ENDMDL
MODEL 4
REMARK VINA RESULT:      -8.4      0.992      1.747
REMARK  Name = 
REMARK  9 active torsions:
REMARK  status: ('A' for Active; 'I' for Inactive)
REMARK    1  A    between atoms: C_1  and  C_2
REMARK    2  A    between atoms: C_5  and  C_6
REMARK    3  A    between atoms: C_7  and  C_8
REMARK    4  A    between atoms: C_8  and  N_9
REMARK    5  A    between atoms: C_12  and  C_13
REMARK    6  A    between atoms: C_13  and  N_14
REMARK    7  A    between atoms: N_17  and  C_18
REMARK    8  A    between atoms: C_21  and  C_22
REMARK    9  A    between atoms: C_23  and  C_24
REMARK                            x       y       z     vdW  Elec       q    Type
REMARK                         _______ _______ _______ _____ _____    ______ ____
ROOT
ATOM      1  N   UNL     1       5.092   4.857  17.281  0.00  0.00    +0.000 NA
ATOM      2  C   UNL     1       5.742   5.474  16.129  0.00  0.00    +0.000 C 
ATOM      3  C   UNL     1       7.268   5.431  16.167  0.00  0.00    +0.000 C 
ATOM      4  C   UNL     1       7.820   6.004  17.473  0.00  0.00    +0.000 C 
ATOM      5  C   UNL     1       7.178   5.214  18.625  0.00  0.00    +0.000 C 
ATOM      6  C   UNL     1       5.644   5.233  18.582  0.00  0.00    +0.000 C 
ENDROOT
BRANCH   1   7
ATOM      7  C   UNL     1       3.614   4.940  17.221  0.00  0.00    +0.000 C 
BRANCH   7  14
ATOM      8  C   UNL     1       1.406   3.039  21.326  0.00  0.00    +0.000 C 
ATOM      9  C   UNL     1       1.792   4.248  20.525  0.00  0.00    +0.000 A 
ATOM     10  C   UNL     1       1.487   5.532  20.969  0.00  0.00    +0.000 A 
ATOM     11  C   UNL     1       1.846   6.642  20.205  0.00  0.00    +0.000 A 
ATOM     12  C   UNL     1       2.522   6.497  18.979  0.00  0.00    +0.000 A 
ATOM     13  C   UNL     1       2.829   7.746  18.197  0.00  0.00    +0.000 C 
ATOM     14  C   UNL     1       2.866   5.201  18.527  0.00  0.00    +0.000 A 
ATOM     15  C   UNL     1       2.477   4.094  19.311  0.00  0.00    +0.000 A 
ENDBRANCH   7  14
ENDBRANCH   1   7
BRANCH   4  16
ATOM     16  C   UNL     1       7.578   7.521  17.623  0.00  0.00    +0.000 C 
BRANCH  16  17
ATOM     17  N   UNL     1       8.363   8.149  18.679  0.00  0.00    +0.000 N 
ATOM     18  C   UNL     1       8.625   9.501  18.634  0.00  0.00    +0.000 C 
ATOM     19  O   UNL     1       8.160  10.208  17.743  0.00  0.00    +0.000 OA
ATOM     20  N   UNL     1       9.486   9.912  19.639  0.00  0.00    +0.000 N 
ATOM     21  H   UNL     1       8.469   7.664  19.558  0.00  0.00    +0.000 HD
ATOM     22  H   UNL     1       9.998   9.181  20.102  0.00  0.00    +0.000 HD
BRANCH  20  23
ATOM     23  C   UNL     1       9.960  11.238  19.802  0.00  0.00    +0.000 A 
ATOM     24  C   UNL     1      11.159  11.676  19.254  0.00  0.00    +0.000 A 
ATOM     25  C   UNL     1      11.640  12.959  19.512  0.00  0.00    +0.000 A 
ATOM     26  C   UNL     1      10.929  13.851  20.322  0.00  0.00    +0.000 A 
ATOM     27  C   UNL     1      11.537  15.195  20.612  0.00  0.00    +0.000 C 
ATOM     28  C   UNL     1       9.684  13.447  20.842  0.00  0.00    +0.000 A 
ATOM     29  C   UNL     1       8.850  14.345  21.719  0.00  0.00    +0.000 C 
ATOM     30  C   UNL     1       9.203  12.145  20.562  0.00  0.00    +0.000 A 
ENDBRANCH  20  23
ENDBRANCH  16  17
ENDBRANCH   4  16
TORSDOF 5
ENDMDL
MODEL 5
REMARK VINA RESULT:      -8.3      0.922      2.374
REMARK  Name = 
REMARK  9 active torsions:
REMARK  status: ('A' for Active; 'I' for Inactive)
REMARK    1  A    between atoms: C_1  and  C_2
REMARK    2  A    between atoms: C_5  and  C_6
REMARK    3  A    between atoms: C_7  and  C_8
REMARK    4  A    between atoms: C_8  and  N_9
REMARK    5  A    between atoms: C_12  and  C_13
REMARK    6  A    between atoms: C_13  and  N_14
REMARK    7  A    between atoms: N_17  and  C_18
REMARK    8  A    between atoms: C_21  and  C_22
REMARK    9  A    between atoms: C_23  and  C_24
REMARK                            x       y       z     vdW  Elec       q    Type
REMARK                         _______ _______ _______ _____ _____    ______ ____
ROOT
ATOM      1  N   UNL     1       5.084   4.279  17.491  0.00  0.00    +0.000 NA
ATOM      2  C   UNL     1       5.821   4.806  16.347  0.00  0.00    +0.000 C 
ATOM      3  C   UNL     1       7.339   4.771  16.502  0.00  0.00    +0.000 C 
ATOM      4  C   UNL     1       7.794   5.446  17.796  0.00  0.00    +0.000 C 
ATOM      5  C   UNL     1       7.065   4.747  18.956  0.00  0.00    +0.000 C 
ATOM      6  C   UNL     1       5.539   4.758  18.797  0.00  0.00    +0.000 C 
ENDROOT
BRANCH   1   7
ATOM      7  C   UNL     1       3.615   4.353  17.315  0.00  0.00    +0.000 C 
BRANCH   7  14
ATOM      8  C   UNL     1       1.810   7.863  20.439  0.00  0.00    +0.000 C 
ATOM      9  C   UNL     1       1.901   6.414  20.059  0.00  0.00    +0.000 A 
ATOM     10  C   UNL     1       1.236   5.435  20.793  0.00  0.00    +0.000 A 
ATOM     11  C   UNL     1       1.342   4.093  20.427  0.00  0.00    +0.000 A 
ATOM     12  C   UNL     1       2.112   3.696  19.320  0.00  0.00    +0.000 A 
ATOM     13  C   UNL     1       2.210   2.223  19.026  0.00  0.00    +0.000 C 
ATOM     14  C   UNL     1       2.771   4.680  18.545  0.00  0.00    +0.000 A 
ATOM     15  C   UNL     1       2.661   6.029  18.945  0.00  0.00    +0.000 A 
ENDBRANCH   7  14
ENDBRANCH   1   7
BRANCH   4  16
ATOM     16  C   UNL     1       7.545   6.970  17.809  0.00  0.00    +0.000 C 
BRANCH  16  17
ATOM     17  N   UNL     1       8.426   7.711  18.704  0.00  0.00    +0.000 N 
ATOM     18  C   UNL     1       8.539   9.079  18.586  0.00  0.00    +0.000 C 
ATOM     19  O   UNL     1       7.865   9.703  17.770  0.00  0.00    +0.000 OA
ATOM     20  N   UNL     1       9.507   9.609  19.423  0.00  0.00    +0.000 N 
ATOM     21  H   UNL     1       8.723   7.272  19.564  0.00  0.00    +0.000 HD
ATOM     22  H   UNL     1      10.160   8.949  19.810  0.00  0.00    +0.000 HD
BRANCH  20  23
ATOM     23  C   UNL     1       9.865  10.979  19.476  0.00  0.00    +0.000 A 
ATOM     24  C   UNL     1      10.821  11.536  18.633  0.00  0.00    +0.000 A 
ATOM     25  C   UNL     1      11.216  12.865  18.775  0.00  0.00    +0.000 A 
ATOM     26  C   UNL     1      10.658  13.687  19.759  0.00  0.00    +0.000 A 
ATOM     27  C   UNL     1      11.177  15.091  19.898  0.00  0.00    +0.000 C 
ATOM     28  C   UNL     1       9.647  13.160  20.587  0.00  0.00    +0.000 A 
ATOM     29  C   UNL     1       8.989  13.976  21.669  0.00  0.00    +0.000 C 
ATOM     30  C   UNL     1       9.248  11.811  20.424  0.00  0.00    +0.000 A 
ENDBRANCH  20  23
ENDBRANCH  16  17
ENDBRANCH   4  16
TORSDOF 5
ENDMDL
MODEL 6
REMARK VINA RESULT:      -8.1      1.521      2.392
REMARK  Name = 
REMARK  9 active torsions:
REMARK  status: ('A' for Active; 'I' for Inactive)
REMARK    1  A    between atoms: C_1  and  C_2
REMARK    2  A    between atoms: C_5  and  C_6
REMARK    3  A    between atoms: C_7  and  C_8
REMARK    4  A    between atoms: C_8  and  N_9
REMARK    5  A    between atoms: C_12  and  C_13
REMARK    6  A    between atoms: C_13  and  N_14
REMARK    7  A    between atoms: N_17  and  C_18
REMARK    8  A    between atoms: C_21  and  C_22
REMARK    9  A    between atoms: C_23  and  C_24
REMARK                            x       y       z     vdW  Elec       q    Type
REMARK                         _______ _______ _______ _____ _____    ______ ____
ROOT
ATOM      1  N   UNL     1       4.858   4.335  16.584  0.00  0.00    +0.000 NA
ATOM      2  C   UNL     1       5.040   5.575  15.837  0.00  0.00    +0.000 C 
ATOM      3  C   UNL     1       6.497   5.930  15.547  0.00  0.00    +0.000 C 
ATOM      4  C   UNL     1       7.344   5.935  16.820  0.00  0.00    +0.000 C 
ATOM      5  C   UNL     1       7.192   4.552  17.475  0.00  0.00    +0.000 C 
ATOM      6  C   UNL     1       5.730   4.177  17.749  0.00  0.00    +0.000 C 
ENDROOT
BRANCH   1   7
ATOM      7  C   UNL     1       3.435   4.036  16.868  0.00  0.00    +0.000 C 
BRANCH   7  14
ATOM      8  C   UNL     1       1.924   7.667  20.010  0.00  0.00    +0.000 C 
ATOM      9  C   UNL     1       2.161   6.206  19.763  0.00  0.00    +0.000 A 
ATOM     10  C   UNL     1       1.886   5.257  20.745  0.00  0.00    +0.000 A 
ATOM     11  C   UNL     1       2.123   3.905  20.499  0.00  0.00    +0.000 A 
ATOM     12  C   UNL     1       2.637   3.466  19.265  0.00  0.00    +0.000 A 
ATOM     13  C   UNL     1       2.907   1.994  19.102  0.00  0.00    +0.000 C 
ATOM     14  C   UNL     1       2.894   4.413  18.245  0.00  0.00    +0.000 A 
ATOM     15  C   UNL     1       2.661   5.777  18.526  0.00  0.00    +0.000 A 
ENDBRANCH   7  14
ENDBRANCH   1   7
BRANCH   4  16
ATOM     16  C   UNL     1       6.968   7.068  17.798  0.00  0.00    +0.000 C 
BRANCH  16  17
ATOM     17  N   UNL     1       7.348   8.401  17.342  0.00  0.00    +0.000 N 
ATOM     18  C   UNL     1       8.277   9.134  18.048  0.00  0.00    +0.000 C 
ATOM     19  O   UNL     1       8.838   8.663  19.034  0.00  0.00    +0.000 OA
ATOM     20  N   UNL     1       8.429  10.419  17.555  0.00  0.00    +0.000 N 
ATOM     21  H   UNL     1       7.150   8.660  16.386  0.00  0.00    +0.000 HD
ATOM     22  H   UNL     1       7.702  10.740  16.939  0.00  0.00    +0.000 HD
BRANCH  20  23
ATOM     23  C   UNL     1       9.281  11.402  18.116  0.00  0.00    +0.000 A 
ATOM     24  C   UNL     1      10.288  11.090  19.023  0.00  0.00    +0.000 A 
ATOM     25  C   UNL     1      11.047  12.093  19.626  0.00  0.00    +0.000 A 
ATOM     26  C   UNL     1      10.830  13.443  19.332  0.00  0.00    +0.000 A 
ATOM     27  C   UNL     1      11.640  14.475  20.067  0.00  0.00    +0.000 C 
ATOM     28  C   UNL     1       9.853  13.778  18.374  0.00  0.00    +0.000 A 
ATOM     29  C   UNL     1       9.558  15.206  17.994  0.00  0.00    +0.000 C 
ATOM     30  C   UNL     1       9.098  12.749  17.762  0.00  0.00    +0.000 A 
ENDBRANCH  20  23
ENDBRANCH  16  17
ENDBRANCH   4  16
TORSDOF 5
ENDMDL
MODEL 7
REMARK VINA RESULT:      -8.1      5.592      8.129
REMARK  Name = 
REMARK  9 active torsions:
REMARK  status: ('A' for Active; 'I' for Inactive)
REMARK    1  A    between atoms: C_1  and  C_2
REMARK    2  A    between atoms: C_5  and  C_6
REMARK    3  A    between atoms: C_7  and  C_8
REMARK    4  A    between atoms: C_8  and  N_9
REMARK    5  A    between atoms: C_12  and  C_13
REMARK    6  A    between atoms: C_13  and  N_14
REMARK    7  A    between atoms: N_17  and  C_18
REMARK    8  A    between atoms: C_21  and  C_22
REMARK    9  A    between atoms: C_23  and  C_24
REMARK                            x       y       z     vdW  Elec       q    Type
REMARK                         _______ _______ _______ _____ _____    ______ ____
ROOT
ATOM      1  N   UNL     1       4.526   3.457  17.642  0.00  0.00    +0.000 NA
ATOM      2  C   UNL     1       4.696   3.957  19.003  0.00  0.00    +0.000 C 
ATOM      3  C   UNL     1       4.796   2.868  20.068  0.00  0.00    +0.000 C 
ATOM      4  C   UNL     1       3.623   1.890  19.993  0.00  0.00    +0.000 C 
ATOM      5  C   UNL     1       3.596   1.320  18.565  0.00  0.00    +0.000 C 
ATOM      6  C   UNL     1       3.518   2.408  17.487  0.00  0.00    +0.000 C 
ENDROOT
BRANCH   1   7
ATOM      7  C   UNL     1       4.408   4.542  16.640  0.00  0.00    +0.000 C 
BRANCH   7  14
ATOM      8  C   UNL     1       5.708   3.066  12.006  0.00  0.00    +0.000 C 
ATOM      9  C   UNL     1       6.050   3.842  13.245  0.00  0.00    +0.000 A 
ATOM     10  C   UNL     1       7.240   4.559  13.338  0.00  0.00    +0.000 A 
ATOM     11  C   UNL     1       7.542   5.266  14.502  0.00  0.00    +0.000 A 
ATOM     12  C   UNL     1       6.663   5.276  15.600  0.00  0.00    +0.000 A 
ATOM     13  C   UNL     1       7.091   6.025  16.833  0.00  0.00    +0.000 C 
ATOM     14  C   UNL     1       5.436   4.577  15.511  0.00  0.00    +0.000 A 
ATOM     15  C   UNL     1       5.161   3.857  14.329  0.00  0.00    +0.000 A 
ENDBRANCH   7  14
ENDBRANCH   1   7
BRANCH   4  16
ATOM     16  C   UNL     1       2.270   2.531  20.372  0.00  0.00    +0.000 C 
BRANCH  16  17
ATOM     17  N   UNL     1       2.387   3.837  21.011  0.00  0.00    +0.000 N 
ATOM     18  C   UNL     1       1.736   4.928  20.478  0.00  0.00    +0.000 C 
ATOM     19  O   UNL     1       1.007   4.813  19.496  0.00  0.00    +0.000 OA
ATOM     20  N   UNL     1       2.053   6.109  21.129  0.00  0.00    +0.000 N 
ATOM     21  H   UNL     1       2.700   3.880  21.971  0.00  0.00    +0.000 HD
ATOM     22  H   UNL     1       2.870   6.080  21.714  0.00  0.00    +0.000 HD
BRANCH  20  23
ATOM     23  C   UNL     1       1.565   7.388  20.762  0.00  0.00    +0.000 A 
ATOM     24  C   UNL     1       0.679   8.107  21.556  0.00  0.00    +0.000 A 
ATOM     25  C   UNL     1       0.146   9.320  21.120  0.00  0.00    +0.000 A 
ATOM     26  C   UNL     1       0.494   9.860  19.878  0.00  0.00    +0.000 A 
ATOM     27  C   UNL     1      -0.167  11.138  19.443  0.00  0.00    +0.000 C 
ATOM     28  C   UNL     1       1.433   9.175  19.081  0.00  0.00    +0.000 A 
ATOM     29  C   UNL     1       1.866   9.688  17.732  0.00  0.00    +0.000 C 
ATOM     30  C   UNL     1       1.973   7.950  19.542  0.00  0.00    +0.000 A 
ENDBRANCH  20  23
ENDBRANCH  16  17
ENDBRANCH   4  16
TORSDOF 5
ENDMDL
MODEL 8
REMARK VINA RESULT:      -8.0      1.452      2.363
REMARK  Name = 
REMARK  9 active torsions:
REMARK  status: ('A' for Active; 'I' for Inactive)
REMARK    1  A    between atoms: C_1  and  C_2
REMARK    2  A    between atoms: C_5  and  C_6
REMARK    3  A    between atoms: C_7  and  C_8
REMARK    4  A    between atoms: C_8  and  N_9
REMARK    5  A    between atoms: C_12  and  C_13
REMARK    6  A    between atoms: C_13  and  N_14
REMARK    7  A    between atoms: N_17  and  C_18
REMARK    8  A    between atoms: C_21  and  C_22
REMARK    9  A    between atoms: C_23  and  C_24
REMARK                            x       y       z     vdW  Elec       q    Type
REMARK                         _______ _______ _______ _____ _____    ______ ____
ROOT
ATOM      1  N   UNL     1       4.752   4.495  17.129  0.00  0.00    +0.000 NA
ATOM      2  C   UNL     1       4.901   5.704  16.326  0.00  0.00    +0.000 C 
ATOM      3  C   UNL     1       6.317   5.949  15.810  0.00  0.00    +0.000 C 
ATOM      4  C   UNL     1       7.346   5.919  16.940  0.00  0.00    +0.000 C 
ATOM      5  C   UNL     1       7.203   4.564  17.652  0.00  0.00    +0.000 C 
ATOM      6  C   UNL     1       5.778   4.299  18.154  0.00  0.00    +0.000 C 
ENDROOT
BRANCH   1   7
ATOM      7  C   UNL     1       3.372   4.304  17.632  0.00  0.00    +0.000 C 
BRANCH   7  14
ATOM      8  C   UNL     1       1.957   9.101  18.197  0.00  0.00    +0.000 C 
ATOM      9  C   UNL     1       2.111   7.734  18.797  0.00  0.00    +0.000 A 
ATOM     10  C   UNL     1       1.733   7.480  20.113  0.00  0.00    +0.000 A 
ATOM     11  C   UNL     1       1.894   6.204  20.654  0.00  0.00    +0.000 A 
ATOM     12  C   UNL     1       2.434   5.151  19.893  0.00  0.00    +0.000 A 
ATOM     13  C   UNL     1       2.617   3.819  20.571  0.00  0.00    +0.000 C 
ATOM     14  C   UNL     1       2.795   5.384  18.545  0.00  0.00    +0.000 A 
ATOM     15  C   UNL     1       2.637   6.687  18.027  0.00  0.00    +0.000 A 
ENDBRANCH   7  14
ENDBRANCH   1   7
BRANCH   4  16
ATOM     16  C   UNL     1       7.200   7.096  17.929  0.00  0.00    +0.000 C 
BRANCH  16  17
ATOM     17  N   UNL     1       7.685   8.371  17.415  0.00  0.00    +0.000 N 
ATOM     18  C   UNL     1       8.509   9.160  18.188  0.00  0.00    +0.000 C 
ATOM     19  O   UNL     1       8.891   8.783  19.293  0.00  0.00    +0.000 OA
ATOM     20  N   UNL     1       8.773  10.388  17.605  0.00  0.00    +0.000 N 
ATOM     21  H   UNL     1       7.651   8.536  16.419  0.00  0.00    +0.000 HD
ATOM     22  H   UNL     1       8.164  10.655  16.851  0.00  0.00    +0.000 HD
BRANCH  20  23
ATOM     23  C   UNL     1       9.552  11.412  18.200  0.00  0.00    +0.000 A 
ATOM     24  C   UNL     1       9.339  11.853  19.501  0.00  0.00    +0.000 A 
ATOM     25  C   UNL     1      10.062  12.926  20.023  0.00  0.00    +0.000 A 
ATOM     26  C   UNL     1      11.032  13.586  19.261  0.00  0.00    +0.000 A 
ATOM     27  C   UNL     1      11.727  14.776  19.862  0.00  0.00    +0.000 C 
ATOM     28  C   UNL     1      11.303  13.119  17.959  0.00  0.00    +0.000 A 
ATOM     29  C   UNL     1      12.333  13.768  17.072  0.00  0.00    +0.000 C 
ATOM     30  C   UNL     1      10.568  12.022  17.447  0.00  0.00    +0.000 A 
ENDBRANCH  20  23
ENDBRANCH  16  17
ENDBRANCH   4  16
TORSDOF 5
ENDMDL
MODEL 9
REMARK VINA RESULT:      -8.0      6.027      8.025
REMARK  Name = 
REMARK  9 active torsions:
REMARK  status: ('A' for Active; 'I' for Inactive)
REMARK    1  A    between atoms: C_1  and  C_2
REMARK    2  A    between atoms: C_5  and  C_6
REMARK    3  A    between atoms: C_7  and  C_8
REMARK    4  A    between atoms: C_8  and  N_9
REMARK    5  A    between atoms: C_12  and  C_13
REMARK    6  A    between atoms: C_13  and  N_14
REMARK    7  A    between atoms: N_17  and  C_18
REMARK    8  A    between atoms: C_21  and  C_22
REMARK    9  A    between atoms: C_23  and  C_24
REMARK                            x       y       z     vdW  Elec       q    Type
REMARK                         _______ _______ _______ _____ _____    ______ ____
ROOT
ATOM      1  N   UNL     1       1.734   5.382  20.028  0.00  0.00    +0.000 NA
ATOM      2  C   UNL     1       1.655   4.652  18.767  0.00  0.00    +0.000 C 
ATOM      3  C   UNL     1       0.934   3.310  18.857  0.00  0.00    +0.000 C 
ATOM      4  C   UNL     1       1.517   2.425  19.960  0.00  0.00    +0.000 C 
ATOM      5  C   UNL     1       1.445   3.224  21.271  0.00  0.00    +0.000 C 
ATOM      6  C   UNL     1       2.148   4.585  21.183  0.00  0.00    +0.000 C 
ENDROOT
BRANCH   1   7
ATOM      7  C   UNL     1       2.461   6.667  19.907  0.00  0.00    +0.000 C 
BRANCH   7  14
ATOM      8  C   UNL     1      -0.179   9.485  23.136  0.00  0.00    +0.000 C 
ATOM      9  C   UNL     1       0.387   9.311  21.757  0.00  0.00    +0.000 A 
ATOM     10  C   UNL     1       0.206  10.284  20.776  0.00  0.00    +0.000 A 
ATOM     11  C   UNL     1       0.733  10.097  19.499  0.00  0.00    +0.000 A 
ATOM     12  C   UNL     1       1.456   8.937  19.168  0.00  0.00    +0.000 A 
ATOM     13  C   UNL     1       1.947   8.796  17.753  0.00  0.00    +0.000 C 
ATOM     14  C   UNL     1       1.675   7.951  20.161  0.00  0.00    +0.000 A 
ATOM     15  C   UNL     1       1.118   8.157  21.441  0.00  0.00    +0.000 A 
ENDBRANCH   7  14
ENDBRANCH   1   7
BRANCH   4  16
ATOM     16  C   UNL     1       2.956   1.951  19.663  0.00  0.00    +0.000 C 
BRANCH  16  17
ATOM     17  N   UNL     1       3.850   3.010  19.207  0.00  0.00    +0.000 N 
ATOM     18  C   UNL     1       4.300   3.019  17.904  0.00  0.00    +0.000 C 
ATOM     19  O   UNL     1       3.917   2.177  17.095  0.00  0.00    +0.000 OA
ATOM     20  N   UNL     1       5.236   4.013  17.670  0.00  0.00    +0.000 N 
ATOM     21  H   UNL     1       3.908   3.862  19.746  0.00  0.00    +0.000 HD
ATOM     22  H   UNL     1       5.651   4.424  18.488  0.00  0.00    +0.000 HD
BRANCH  20  23
ATOM     23  C   UNL     1       5.898   4.223  16.435  0.00  0.00    +0.000 A 
ATOM     24  C   UNL     1       7.140   4.840  16.346  0.00  0.00    +0.000 A 
ATOM     25  C   UNL     1       7.720   5.114  15.108  0.00  0.00    +0.000 A 
ATOM     26  C   UNL     1       7.078   4.767  13.914  0.00  0.00    +0.000 A 
ATOM     27  C   UNL     1       7.729   5.150  12.614  0.00  0.00    +0.000 C 
ATOM     28  C   UNL     1       5.844   4.090  13.981  0.00  0.00    +0.000 A 
ATOM     29  C   UNL     1       5.087   3.677  12.746  0.00  0.00    +0.000 C 
ATOM     30  C   UNL     1       5.273   3.809  15.247  0.00  0.00    +0.000 A 
ENDBRANCH  20  23
ENDBRANCH  16  17
ENDBRANCH   4  16
TORSDOF 5
ENDMDL
