MODEL 1
REMARK VINA RESULT:      -5.6      0.000      0.000
REMARK  Name = 
REMARK  3 active torsions:
REMARK  status: ('A' for Active; 'I' for Inactive)
REMARK    1  A    between atoms: C_1  and  C_2
REMARK    2  A    between atoms: C_2  and  C_3
REMARK    3  A    between atoms: C_2  and  N_11
REMARK                            x       y       z     vdW  Elec       q    Type
REMARK                         _______ _______ _______ _____ _____    ______ ____
ROOT
ATOM      1  N   UNL     1       2.061  14.474  20.021  0.00  0.00    +0.000 N 
ATOM      2  C   UNL     1       1.476  13.843  21.083  0.00  0.00    +0.000 C 
ATOM      3  O   UNL     1       1.263  14.323  22.188  0.00  0.00    +0.000 OA
ATOM      4  C   UNL     1       1.137  12.433  20.698  0.00  0.00    +0.000 C 
ATOM      5  C   UNL     1      -0.369  12.139  20.743  0.00  0.00    +0.000 C 
ATOM      6  C   UNL     1      -0.846  12.846  19.462  0.00  0.00    +0.000 C 
ATOM      7  C   UNL     1       0.101  12.056  18.553  0.00  0.00    +0.000 C 
ATOM      8  C   UNL     1      -0.326  10.603  18.881  0.00  0.00    +0.000 C 
ATOM      9 BR   UNL     1      -1.940  10.127  17.866  0.00  0.00    +0.000 Br
ATOM     10  C   UNL     1      -0.661  10.665  20.381  0.00  0.00    +0.000 C 
ATOM     11 BR   UNL     1       0.394   9.386  21.394  0.00  0.00    +0.000 Br
ATOM     12  C   UNL     1       1.479  12.335  19.209  0.00  0.00    +0.000 C 
ATOM     13  C   UNL     1       2.122  13.672  18.906  0.00  0.00    +0.000 C 
ATOM     14  O   UNL     1       2.613  13.959  17.829  0.00  0.00    +0.000 OA
ENDROOT
BRANCH   1  16
ATOM     15  C   UNL     1       4.326  15.378  20.331  0.00  0.00    +0.000 C 
ATOM     16  C   UNL     1       2.834  15.703  20.221  0.00  0.00    +0.000 C 
BRANCH  16  17
ATOM     17  C   UNL     1       2.536  16.787  19.163  0.00  0.00    +0.000 C 
ATOM     18  O   UNL     1       3.414  17.159  18.381  0.00  0.00    +0.000 OA
ATOM     19  N   UNL     1       1.262  17.328  19.119  0.00  0.00    +0.000 N 
ATOM     20  C   UNL     1       0.211  17.197  20.132  0.00  0.00    +0.000 C 
ATOM     21  C   UNL     1      -1.103  16.787  19.463  0.00  0.00    +0.000 C 
ATOM     22  O   UNL     1      -1.470  17.707  18.425  0.00  0.00    +0.000 OA
ATOM     23  C   UNL     1      -0.442  17.780  17.419  0.00  0.00    +0.000 C 
ATOM     24  C   UNL     1       0.894  18.231  18.025  0.00  0.00    +0.000 C 
ENDBRANCH  16  17
ENDBRANCH   1  16
TORSDOF 2
ENDMDL
MODEL 2
REMARK VINA RESULT:      -5.3      5.811      8.760
REMARK  Name = 
REMARK  3 active torsions:
REMARK  status: ('A' for Active; 'I' for Inactive)
REMARK    1  A    between atoms: C_1  and  C_2
REMARK    2  A    between atoms: C_2  and  C_3
REMARK    3  A    between atoms: C_2  and  N_11
REMARK                            x       y       z     vdW  Elec       q    Type
REMARK                         _______ _______ _______ _____ _____    ______ ____
ROOT
ATOM      1  N   UNL     1       8.168  15.832  18.344  0.00  0.00    +0.000 N 
ATOM      2  C   UNL     1       7.060  15.121  17.972  0.00  0.00    +0.000 C 
ATOM      3  O   UNL     1       7.046  14.013  17.455  0.00  0.00    +0.000 OA
ATOM      4  C   UNL     1       5.830  15.921  18.283  0.00  0.00    +0.000 C 
ATOM      5  C   UNL     1       4.912  15.246  19.311  0.00  0.00    +0.000 C 
ATOM      6  C   UNL     1       5.688  15.506  20.615  0.00  0.00    +0.000 C 
ATOM      7  C   UNL     1       5.699  17.026  20.423  0.00  0.00    +0.000 C 
ATOM      8  C   UNL     1       4.180  17.316  20.315  0.00  0.00    +0.000 C 
ATOM      9 BR   UNL     1       3.377  17.397  22.107  0.00  0.00    +0.000 Br
ATOM     10  C   UNL     1       3.641  16.087  19.564  0.00  0.00    +0.000 C 
ATOM     11 BR   UNL     1       2.710  16.605  17.938  0.00  0.00    +0.000 Br
ATOM     12  C   UNL     1       6.339  17.165  19.017  0.00  0.00    +0.000 C 
ATOM     13  C   UNL     1       7.845  17.031  18.935  0.00  0.00    +0.000 C 
ATOM     14  O   UNL     1       8.623  17.877  19.337  0.00  0.00    +0.000 OA
ENDROOT
BRANCH   1  16
ATOM     15  C   UNL     1      10.122  16.689  17.124  0.00  0.00    +0.000 C 
ATOM     16  C   UNL     1       9.489  15.479  17.815  0.00  0.00    +0.000 C 
BRANCH  16  17
ATOM     17  C   UNL     1      10.415  14.841  18.873  0.00  0.00    +0.000 C 
ATOM     18  O   UNL     1      11.011  15.546  19.691  0.00  0.00    +0.000 OA
ATOM     19  N   UNL     1      10.559  13.465  18.875  0.00  0.00    +0.000 N 
ATOM     20  C   UNL     1      10.147  12.532  17.822  0.00  0.00    +0.000 C 
ATOM     21  C   UNL     1       9.357  11.374  18.436  0.00  0.00    +0.000 C 
ATOM     22  O   UNL     1      10.107  10.720  19.470  0.00  0.00    +0.000 OA
ATOM     23  C   UNL     1      10.456  11.648  20.514  0.00  0.00    +0.000 C 
ATOM     24  C   UNL     1      11.291  12.812  19.963  0.00  0.00    +0.000 C 
ENDBRANCH  16  17
ENDBRANCH   1  16
TORSDOF 2
ENDMDL
MODEL 3
REMARK VINA RESULT:      -5.2      6.027      8.084
REMARK  Name = 
REMARK  3 active torsions:
REMARK  status: ('A' for Active; 'I' for Inactive)
REMARK    1  A    between atoms: C_1  and  C_2
REMARK    2  A    between atoms: C_2  and  C_3
REMARK    3  A    between atoms: C_2  and  N_11
REMARK                            x       y       z     vdW  Elec       q    Type
REMARK                         _______ _______ _______ _____ _____    ______ ____
ROOT
ATOM      1  N   UNL     1       9.005  13.645  21.476  0.00  0.00    +0.000 N 
ATOM      2  C   UNL     1       8.724  14.578  22.436  0.00  0.00    +0.000 C 
ATOM      3  O   UNL     1       8.636  15.786  22.272  0.00  0.00    +0.000 OA
ATOM      4  C   UNL     1       8.551  13.893  23.759  0.00  0.00    +0.000 C 
ATOM      5  C   UNL     1       7.143  14.060  24.347  0.00  0.00    +0.000 C 
ATOM      6  C   UNL     1       6.341  13.077  23.475  0.00  0.00    +0.000 C 
ATOM      7  C   UNL     1       7.226  11.879  23.835  0.00  0.00    +0.000 C 
ATOM      8  C   UNL     1       7.099  11.878  25.380  0.00  0.00    +0.000 C 
ATOM      9 BR   UNL     1       5.428  10.998  25.921  0.00  0.00    +0.000 Br
ATOM     10  C   UNL     1       7.029  13.374  25.728  0.00  0.00    +0.000 C 
ATOM     11 BR   UNL     1       8.437  13.878  26.970  0.00  0.00    +0.000 Br
ATOM     12  C   UNL     1       8.635  12.396  23.447  0.00  0.00    +0.000 C 
ATOM     13  C   UNL     1       8.994  12.363  21.976  0.00  0.00    +0.000 C 
ATOM     14  O   UNL     1       9.236  11.341  21.360  0.00  0.00    +0.000 OA
ENDROOT
BRANCH   1  16
ATOM     15  C   UNL     1      11.009  13.476  20.064  0.00  0.00    +0.000 C 
ATOM     16  C   UNL     1       9.596  14.048  20.198  0.00  0.00    +0.000 C 
BRANCH  16  17
ATOM     17  C   UNL     1       8.701  13.719  18.984  0.00  0.00    +0.000 C 
ATOM     18  O   UNL     1       8.819  12.645  18.390  0.00  0.00    +0.000 OA
ATOM     19  N   UNL     1       7.767  14.659  18.583  0.00  0.00    +0.000 N 
ATOM     20  C   UNL     1       7.691  16.062  19.000  0.00  0.00    +0.000 C 
ATOM     21  C   UNL     1       6.260  16.399  19.425  0.00  0.00    +0.000 C 
ATOM     22  O   UNL     1       5.321  16.096  18.383  0.00  0.00    +0.000 OA
ATOM     23  C   UNL     1       5.383  14.702  18.026  0.00  0.00    +0.000 C 
ATOM     24  C   UNL     1       6.789  14.316  17.547  0.00  0.00    +0.000 C 
ENDBRANCH  16  17
ENDBRANCH   1  16
TORSDOF 2
ENDMDL
MODEL 4
REMARK VINA RESULT:      -5.1      5.246      7.253
REMARK  Name = 
REMARK  3 active torsions:
REMARK  status: ('A' for Active; 'I' for Inactive)
REMARK    1  A    between atoms: C_1  and  C_2
REMARK    2  A    between atoms: C_2  and  C_3
REMARK    3  A    between atoms: C_2  and  N_11
REMARK                            x       y       z     vdW  Elec       q    Type
REMARK                         _______ _______ _______ _____ _____    ______ ____
ROOT
ATOM      1  N   UNL     1      -3.664  11.987  18.710  0.00  0.00    +0.000 N 
ATOM      2  C   UNL     1      -2.836  10.983  18.291  0.00  0.00    +0.000 C 
ATOM      3  O   UNL     1      -2.987  10.279  17.304  0.00  0.00    +0.000 OA
ATOM      4  C   UNL     1      -1.689  10.853  19.250  0.00  0.00    +0.000 C 
ATOM      5  C   UNL     1      -0.326  11.138  18.606  0.00  0.00    +0.000 C 
ATOM      6  C   UNL     1      -0.363  12.673  18.502  0.00  0.00    +0.000 C 
ATOM      7  C   UNL     1      -0.600  12.869  20.004  0.00  0.00    +0.000 C 
ATOM      8  C   UNL     1       0.629  12.127  20.590  0.00  0.00    +0.000 C 
ATOM      9 BR   UNL     1       2.211  13.292  20.535  0.00  0.00    +0.000 Br
ATOM     10  C   UNL     1       0.823  10.948  19.622  0.00  0.00    +0.000 C 
ATOM     11 BR   UNL     1       0.766   9.247  20.560  0.00  0.00    +0.000 Br
ATOM     12  C   UNL     1      -1.867  12.007  20.242  0.00  0.00    +0.000 C 
ATOM     13  C   UNL     1      -3.193  12.616  19.839  0.00  0.00    +0.000 C 
ATOM     14  O   UNL     1      -3.735  13.522  20.446  0.00  0.00    +0.000 OA
ENDROOT
BRANCH   1  16
ATOM     15  C   UNL     1      -5.072  11.736  16.711  0.00  0.00    +0.000 C 
ATOM     16  C   UNL     1      -5.036  12.078  18.202  0.00  0.00    +0.000 C 
BRANCH  16  17
ATOM     17  C   UNL     1      -6.045  11.253  19.029  0.00  0.00    +0.000 C 
ATOM     18  O   UNL     1      -6.088  10.025  18.924  0.00  0.00    +0.000 OA
ATOM     19  N   UNL     1      -6.898  11.927  19.887  0.00  0.00    +0.000 N 
ATOM     20  C   UNL     1      -7.157  13.369  19.922  0.00  0.00    +0.000 C 
ATOM     21  C   UNL     1      -7.045  13.880  21.360  0.00  0.00    +0.000 C 
ATOM     22  O   UNL     1      -7.916  13.156  22.240  0.00  0.00    +0.000 OA
ATOM     23  C   UNL     1      -7.609  11.749  22.223  0.00  0.00    +0.000 C 
ATOM     24  C   UNL     1      -7.749  11.170  20.809  0.00  0.00    +0.000 C 
ENDBRANCH  16  17
ENDBRANCH   1  16
TORSDOF 2
ENDMDL
MODEL 5
REMARK VINA RESULT:      -5.1      3.554      5.224
REMARK  Name = 
REMARK  3 active torsions:
REMARK  status: ('A' for Active; 'I' for Inactive)
REMARK    1  A    between atoms: C_1  and  C_2
REMARK    2  A    between atoms: C_2  and  C_3
REMARK    3  A    between atoms: C_2  and  N_11
REMARK                            x       y       z     vdW  Elec       q    Type
REMARK                         _______ _______ _______ _____ _____    ______ ____
ROOT
ATOM      1  N   UNL     1      -0.716  11.592  21.183  0.00  0.00    +0.000 N 
ATOM      2  C   UNL     1      -1.035  11.552  22.512  0.00  0.00    +0.000 C 
ATOM      3  O   UNL     1      -0.343  11.102  23.414  0.00  0.00    +0.000 OA
ATOM      4  C   UNL     1      -2.401  12.140  22.713  0.00  0.00    +0.000 C 
ATOM      5  C   UNL     1      -2.395  13.398  23.590  0.00  0.00    +0.000 C 
ATOM      6  C   UNL     1      -1.840  14.443  22.605  0.00  0.00    +0.000 C 
ATOM      7  C   UNL     1      -2.937  14.192  21.566  0.00  0.00    +0.000 C 
ATOM      8  C   UNL     1      -4.207  14.472  22.410  0.00  0.00    +0.000 C 
ATOM      9 BR   UNL     1      -4.537  16.407  22.514  0.00  0.00    +0.000 Br
ATOM     10  C   UNL     1      -3.827  13.939  23.802  0.00  0.00    +0.000 C 
ATOM     11 BR   UNL     1      -5.090  12.593  24.411  0.00  0.00    +0.000 Br
ATOM     12  C   UNL     1      -2.815  12.664  21.335  0.00  0.00    +0.000 C 
ATOM     13  C   UNL     1      -1.694  12.197  20.429  0.00  0.00    +0.000 C 
ATOM     14  O   UNL     1      -1.693  12.347  19.221  0.00  0.00    +0.000 OA
ENDROOT
BRANCH   1  16
ATOM     15  C   UNL     1      -0.166   9.349  20.341  0.00  0.00    +0.000 C 
ATOM     16  C   UNL     1       0.362  10.752  20.653  0.00  0.00    +0.000 C 
BRANCH  16  17
ATOM     17  C   UNL     1       1.098  11.393  19.457  0.00  0.00    +0.000 C 
ATOM     18  O   UNL     1       1.088  10.850  18.349  0.00  0.00    +0.000 OA
ATOM     19  N   UNL     1       1.767  12.587  19.662  0.00  0.00    +0.000 N 
ATOM     20  C   UNL     1       2.099  13.204  20.949  0.00  0.00    +0.000 C 
ATOM     21  C   UNL     1       1.687  14.678  20.938  0.00  0.00    +0.000 C 
ATOM     22  O   UNL     1       2.284  15.378  19.837  0.00  0.00    +0.000 OA
ATOM     23  C   UNL     1       1.903  14.781  18.583  0.00  0.00    +0.000 C 
ATOM     24  C   UNL     1       2.332  13.309  18.519  0.00  0.00    +0.000 C 
ENDBRANCH  16  17
ENDBRANCH   1  16
TORSDOF 2
ENDMDL
MODEL 6
REMARK VINA RESULT:      -5.1      7.248      9.399
REMARK  Name = 
REMARK  3 active torsions:
REMARK  status: ('A' for Active; 'I' for Inactive)
REMARK    1  A    between atoms: C_1  and  C_2
REMARK    2  A    between atoms: C_2  and  C_3
REMARK    3  A    between atoms: C_2  and  N_11
REMARK                            x       y       z     vdW  Elec       q    Type
REMARK                         _______ _______ _______ _____ _____    ______ ____
ROOT
ATOM      1  N   UNL     1       8.910  15.541  19.675  0.00  0.00    +0.000 N 
ATOM      2  C   UNL     1       7.587  15.461  20.011  0.00  0.00    +0.000 C 
ATOM      3  O   UNL     1       6.640  15.431  19.238  0.00  0.00    +0.000 OA
ATOM      4  C   UNL     1       7.455  15.431  21.505  0.00  0.00    +0.000 C 
ATOM      5  C   UNL     1       6.825  14.135  22.032  0.00  0.00    +0.000 C 
ATOM      6  C   UNL     1       8.003  13.154  21.887  0.00  0.00    +0.000 C 
ATOM      7  C   UNL     1       8.944  13.999  22.751  0.00  0.00    +0.000 C 
ATOM      8  C   UNL     1       8.126  14.093  24.065  0.00  0.00    +0.000 C 
ATOM      9 BR   UNL     1       8.369  12.459  25.131  0.00  0.00    +0.000 Br
ATOM     10  C   UNL     1       6.672  14.171  23.569  0.00  0.00    +0.000 C 
ATOM     11 BR   UNL     1       5.786  15.771  24.229  0.00  0.00    +0.000 Br
ATOM     12  C   UNL     1       8.893  15.371  22.030  0.00  0.00    +0.000 C 
ATOM     13  C   UNL     1       9.731  15.516  20.777  0.00  0.00    +0.000 C 
ATOM     14  O   UNL     1      10.946  15.600  20.781  0.00  0.00    +0.000 OA
ENDROOT
BRANCH   1  16
ATOM     15  C   UNL     1       9.556  17.482  18.312  0.00  0.00    +0.000 C 
ATOM     16  C   UNL     1       9.310  15.971  18.332  0.00  0.00    +0.000 C 
BRANCH  16  17
ATOM     17  C   UNL     1      10.498  15.165  17.765  0.00  0.00    +0.000 C 
ATOM     18  O   UNL     1      11.567  15.722  17.503  0.00  0.00    +0.000 OA
ATOM     19  N   UNL     1      10.331  13.806  17.560  0.00  0.00    +0.000 N 
ATOM     20  C   UNL     1       9.068  13.062  17.560  0.00  0.00    +0.000 C 
ATOM     21  C   UNL     1       9.199  11.821  18.445  0.00  0.00    +0.000 C 
ATOM     22  O   UNL     1      10.305  11.003  18.037  0.00  0.00    +0.000 OA
ATOM     23  C   UNL     1      11.538  11.744  18.092  0.00  0.00    +0.000 C 
ATOM     24  C   UNL     1      11.482  12.980  17.185  0.00  0.00    +0.000 C 
ENDBRANCH  16  17
ENDBRANCH   1  16
TORSDOF 2
ENDMDL
MODEL 7
REMARK VINA RESULT:      -5.1      1.937      3.138
REMARK  Name = 
REMARK  3 active torsions:
REMARK  status: ('A' for Active; 'I' for Inactive)
REMARK    1  A    between atoms: C_1  and  C_2
REMARK    2  A    between atoms: C_2  and  C_3
REMARK    3  A    between atoms: C_2  and  N_11
REMARK                            x       y       z     vdW  Elec       q    Type
REMARK                         _______ _______ _______ _____ _____    ______ ____
ROOT
ATOM      1  N   UNL     1       0.094  14.187  20.489  0.00  0.00    +0.000 N 
ATOM      2  C   UNL     1       0.410  12.906  20.849  0.00  0.00    +0.000 C 
ATOM      3  O   UNL     1       0.707  12.517  21.970  0.00  0.00    +0.000 OA
ATOM      4  C   UNL     1       0.354  12.022  19.639  0.00  0.00    +0.000 C 
ATOM      5  C   UNL     1      -0.709  10.920  19.742  0.00  0.00    +0.000 C 
ATOM      6  C   UNL     1      -1.996  11.727  19.495  0.00  0.00    +0.000 C 
ATOM      7  C   UNL     1      -1.521  12.260  18.140  0.00  0.00    +0.000 C 
ATOM      8  C   UNL     1      -1.241  10.934  17.388  0.00  0.00    +0.000 C 
ATOM      9 BR   UNL     1      -2.916  10.192  16.678  0.00  0.00    +0.000 Br
ATOM     10  C   UNL     1      -0.697  10.012  18.492  0.00  0.00    +0.000 C 
ATOM     11 BR   UNL     1       1.066   9.329  18.038  0.00  0.00    +0.000 Br
ATOM     12  C   UNL     1      -0.169  12.921  18.514  0.00  0.00    +0.000 C 
ATOM     13  C   UNL     1      -0.232  14.290  19.157  0.00  0.00    +0.000 C 
ATOM     14  O   UNL     1      -0.526  15.308  18.557  0.00  0.00    +0.000 OA
ENDROOT
BRANCH   1  16
ATOM     15  C   UNL     1      -0.300  15.193  22.697  0.00  0.00    +0.000 C 
ATOM     16  C   UNL     1       0.441  15.311  21.364  0.00  0.00    +0.000 C 
BRANCH  16  17
ATOM     17  C   UNL     1       1.964  15.495  21.540  0.00  0.00    +0.000 C 
ATOM     18  O   UNL     1       2.556  14.959  22.480  0.00  0.00    +0.000 OA
ATOM     19  N   UNL     1       2.642  16.274  20.619  0.00  0.00    +0.000 N 
ATOM     20  C   UNL     1       2.056  17.183  19.629  0.00  0.00    +0.000 C 
ATOM     21  C   UNL     1       2.677  16.920  18.254  0.00  0.00    +0.000 C 
ATOM     22  O   UNL     1       4.107  17.025  18.299  0.00  0.00    +0.000 OA
ATOM     23  C   UNL     1       4.660  16.089  19.244  0.00  0.00    +0.000 C 
ATOM     24  C   UNL     1       4.106  16.334  20.654  0.00  0.00    +0.000 C 
ENDBRANCH  16  17
ENDBRANCH   1  16
TORSDOF 2
ENDMDL
MODEL 8
REMARK VINA RESULT:      -5.1      6.144      9.282
REMARK  Name = 
REMARK  3 active torsions:
REMARK  status: ('A' for Active; 'I' for Inactive)
REMARK    1  A    between atoms: C_1  and  C_2
REMARK    2  A    between atoms: C_2  and  C_3
REMARK    3  A    between atoms: C_2  and  N_11
REMARK                            x       y       z     vdW  Elec       q    Type
REMARK                         _______ _______ _______ _____ _____    ______ ____
ROOT
ATOM      1  N   UNL     1       2.094   7.279  19.540  0.00  0.00    +0.000 N 
ATOM      2  C   UNL     1       2.532   8.133  18.566  0.00  0.00    +0.000 C 
ATOM      3  O   UNL     1       3.194   7.837  17.582  0.00  0.00    +0.000 OA
ATOM      4  C   UNL     1       2.086   9.528  18.892  0.00  0.00    +0.000 C 
ATOM      5  C   UNL     1       1.137  10.122  17.843  0.00  0.00    +0.000 C 
ATOM      6  C   UNL     1      -0.171   9.381  18.175  0.00  0.00    +0.000 C 
ATOM      7  C   UNL     1      -0.186   9.855  19.632  0.00  0.00    +0.000 C 
ATOM      8  C   UNL     1      -0.154  11.393  19.438  0.00  0.00    +0.000 C 
ATOM      9 BR   UNL     1      -1.959  12.062  19.044  0.00  0.00    +0.000 Br
ATOM     10  C   UNL     1       0.743  11.572  18.202  0.00  0.00    +0.000 C 
ATOM     11 BR   UNL     1       2.261  12.722  18.592  0.00  0.00    +0.000 Br
ATOM     12  C   UNL     1       1.203   9.383  20.135  0.00  0.00    +0.000 C 
ATOM     13  C   UNL     1       1.339   7.919  20.495  0.00  0.00    +0.000 C 
ATOM     14  O   UNL     1       0.845   7.417  21.488  0.00  0.00    +0.000 OA
ENDROOT
BRANCH   1  16
ATOM     15  C   UNL     1       2.023   5.190  20.833  0.00  0.00    +0.000 C 
ATOM     16  C   UNL     1       2.697   5.951  19.689  0.00  0.00    +0.000 C 
BRANCH  16  17
ATOM     17  C   UNL     1       2.728   5.147  18.372  0.00  0.00    +0.000 C 
ATOM     18  O   UNL     1       1.703   5.001  17.702  0.00  0.00    +0.000 OA
ATOM     19  N   UNL     1       3.932   4.598  17.967  0.00  0.00    +0.000 N 
ATOM     20  C   UNL     1       5.150   4.450  18.768  0.00  0.00    +0.000 C 
ATOM     21  C   UNL     1       6.354   4.972  17.981  0.00  0.00    +0.000 C 
ATOM     22  O   UNL     1       6.467   4.320  16.708  0.00  0.00    +0.000 OA
ATOM     23  C   UNL     1       5.277   4.522  15.922  0.00  0.00    +0.000 C 
ATOM     24  C   UNL     1       4.038   3.975  16.644  0.00  0.00    +0.000 C 
ENDBRANCH  16  17
ENDBRANCH   1  16
TORSDOF 2
ENDMDL
MODEL 9
REMARK VINA RESULT:      -5.1      1.942      3.269
REMARK  Name = 
REMARK  3 active torsions:
REMARK  status: ('A' for Active; 'I' for Inactive)
REMARK    1  A    between atoms: C_1  and  C_2
REMARK    2  A    between atoms: C_2  and  C_3
REMARK    3  A    between atoms: C_2  and  N_11
REMARK                            x       y       z     vdW  Elec       q    Type
REMARK                         _______ _______ _______ _____ _____    ______ ____
ROOT
ATOM      1  N   UNL     1       0.664  14.490  20.204  0.00  0.00    +0.000 N 
ATOM      2  C   UNL     1       1.149  13.265  20.570  0.00  0.00    +0.000 C 
ATOM      3  O   UNL     1       1.750  12.998  21.601  0.00  0.00    +0.000 OA
ATOM      4  C   UNL     1       0.845  12.268  19.491  0.00  0.00    +0.000 C 
ATOM      5  C   UNL     1      -0.077  11.133  19.958  0.00  0.00    +0.000 C 
ATOM      6  C   UNL     1      -1.437  11.853  19.992  0.00  0.00    +0.000 C 
ATOM      7  C   UNL     1      -1.363  12.276  18.522  0.00  0.00    +0.000 C 
ATOM      8  C   UNL     1      -1.195  10.899  17.831  0.00  0.00    +0.000 C 
ATOM      9 BR   UNL     1      -2.942  10.017  17.646  0.00  0.00    +0.000 Br
ATOM     10  C   UNL     1      -0.324  10.112  18.824  0.00  0.00    +0.000 C 
ATOM     11 BR   UNL     1       1.306   9.470  17.981  0.00  0.00    +0.000 Br
ATOM     12  C   UNL     1      -0.009  13.031  18.474  0.00  0.00    +0.000 C 
ATOM     13  C   UNL     1       0.001  14.450  19.000  0.00  0.00    +0.000 C 
ATOM     14  O   UNL     1      -0.506  15.392  18.418  0.00  0.00    +0.000 OA
ENDROOT
BRANCH   1  16
ATOM     15  C   UNL     1       0.420  15.909  22.196  0.00  0.00    +0.000 C 
ATOM     16  C   UNL     1       1.146  15.707  20.864  0.00  0.00    +0.000 C 
BRANCH  16  17
ATOM     17  C   UNL     1       2.682  15.751  21.008  0.00  0.00    +0.000 C 
ATOM     18  O   UNL     1       3.214  15.621  22.113  0.00  0.00    +0.000 OA
ATOM     19  N   UNL     1       3.443  15.943  19.867  0.00  0.00    +0.000 N 
ATOM     20  C   UNL     1       2.967  16.380  18.551  0.00  0.00    +0.000 C 
ATOM     21  C   UNL     1       3.522  15.454  17.466  0.00  0.00    +0.000 C 
ATOM     22  O   UNL     1       4.953  15.382  17.523  0.00  0.00    +0.000 OA
ATOM     23  C   UNL     1       5.392  14.904  18.809  0.00  0.00    +0.000 C 
ATOM     24  C   UNL     1       4.902  15.822  19.937  0.00  0.00    +0.000 C 
ENDBRANCH  16  17
ENDBRANCH   1  16
TORSDOF 2
ENDMDL
