MODEL 1
REMARK VINA RESULT:      -8.5      0.000      0.000
REMARK  Name = 
REMARK  9 active torsions:
REMARK  status: ('A' for Active; 'I' for Inactive)
REMARK    1  A    between atoms: C_2  and  C_5
REMARK    2  A    between atoms: N_3  and  O_4
REMARK    3  A    between atoms: C_8  and  C_9
REMARK    4  A    between atoms: N_11  and  C_12
REMARK    5  A    between atoms: C_14  and  C_15
REMARK    6  A    between atoms: C_15  and  O_17
REMARK    7  A    between atoms: N_18  and  C_19
REMARK    8  A    between atoms: C_19  and  C_20
REMARK    9  A    between atoms: C_20  and  C_21
REMARK                            x       y       z     vdW  Elec       q    Type
REMARK                         _______ _______ _______ _____ _____    ______ ____
ROOT
ATOM      1  C   UNL     1       1.060   9.388  19.527  0.00  0.00    +0.000 A 
ATOM      2  C   UNL     1       1.711   8.201  19.768  0.00  0.00    +0.000 A 
ATOM      3  N   UNL     1       2.214   7.859  18.549  0.00  0.00    +0.000 N 
ATOM      4  N   UNL     1       1.907   8.780  17.619  0.00  0.00    +0.000 NA
ATOM      5  N   UNL     1       1.182   9.718  18.205  0.00  0.00    +0.000 NA
ENDROOT
BRANCH   1   9
ATOM      6  C   UNL     1      -1.235  11.678  22.261  0.00  0.00    +0.000 A 
ATOM      7  C   UNL     1      -0.700  10.452  22.666  0.00  0.00    +0.000 A 
ATOM      8  C   UNL     1       0.060   9.694  21.772  0.00  0.00    +0.000 A 
ATOM      9  C   UNL     1       0.299  10.165  20.476  0.00  0.00    +0.000 A 
ATOM     10  C   UNL     1      -0.207  11.413  20.089  0.00  0.00    +0.000 A 
ATOM     11  C   UNL     1      -0.974  12.167  20.976  0.00  0.00    +0.000 A 
BRANCH   6  13
ATOM     12  O   UNL     1      -1.673  13.525  23.675  0.00  0.00    +0.000 OA
ATOM     13  C   UNL     1      -2.059  12.452  23.223  0.00  0.00    +0.000 C 
ATOM     14  N   UNL     1      -3.241  11.867  23.611  0.00  0.00    +0.000 N 
ATOM     15  H   UNL     1      -3.397  10.866  23.546  0.00  0.00    +0.000 HD
BRANCH  14  16
ATOM     16  O   UNL     1      -3.930  12.538  24.646  0.00  0.00    +0.000 OA
ATOM     17  H   UNL     1      -3.198  12.985  25.127  0.00  0.00    +0.000 HD
ENDBRANCH  14  16
ENDBRANCH   6  13
ENDBRANCH   1   9
BRANCH   3  18
ATOM     18  C   UNL     1       2.945   6.659  18.195  0.00  0.00    +0.000 C 
ATOM     19  C   UNL     1       2.033   5.494  17.841  0.00  0.00    +0.000 C 
ATOM     20  C   UNL     1       1.873   4.810  19.185  0.00  0.00    +0.000 C 
ATOM     21  N   UNL     1       3.244   4.821  19.800  0.00  0.00    +0.000 NA
ATOM     22  C   UNL     1       3.789   6.146  19.374  0.00  0.00    +0.000 C 
BRANCH  20  23
ATOM     23  C   UNL     1       1.183   3.457  19.155  0.00  0.00    +0.000 C 
ATOM     24  O   UNL     1       1.052   2.758  18.163  0.00  0.00    +0.000 OA
BRANCH  23  25
ATOM     25  O   UNL     1       0.647   3.140  20.362  0.00  0.00    +0.000 OA
ATOM     26  H   UNL     1       0.152   2.295  20.286  0.00  0.00    +0.000 HD
ENDBRANCH  23  25
ENDBRANCH  20  23
BRANCH  21  27
ATOM     27  C   UNL     1       4.138   3.734  19.337  0.00  0.00    +0.000 C 
BRANCH  27  28
ATOM     28  C   UNL     1       5.574   4.245  19.078  0.00  0.00    +0.000 C 
BRANCH  28  29
ATOM     29  C   UNL     1       5.866   4.336  17.603  0.00  0.00    +0.000 A 
ATOM     30  C   UNL     1       4.937   3.874  16.659  0.00  0.00    +0.000 A 
ATOM     31  C   UNL     1       5.239   3.917  15.297  0.00  0.00    +0.000 A 
ATOM     32  C   UNL     1       6.465   4.423  14.871  0.00  0.00    +0.000 A 
ATOM     33  C   UNL     1       7.387   4.896  15.802  0.00  0.00    +0.000 A 
ATOM     34  C   UNL     1       7.088   4.856  17.163  0.00  0.00    +0.000 A 
ENDBRANCH  28  29
ENDBRANCH  27  28
ENDBRANCH  21  27
ENDBRANCH   3  18
TORSDOF 9
ENDMDL
MODEL 2
REMARK VINA RESULT:      -8.4      0.171      1.360
REMARK  Name = 
REMARK  9 active torsions:
REMARK  status: ('A' for Active; 'I' for Inactive)
REMARK    1  A    between atoms: C_2  and  C_5
REMARK    2  A    between atoms: N_3  and  O_4
REMARK    3  A    between atoms: C_8  and  C_9
REMARK    4  A    between atoms: N_11  and  C_12
REMARK    5  A    between atoms: C_14  and  C_15
REMARK    6  A    between atoms: C_15  and  O_17
REMARK    7  A    between atoms: N_18  and  C_19
REMARK    8  A    between atoms: C_19  and  C_20
REMARK    9  A    between atoms: C_20  and  C_21
REMARK                            x       y       z     vdW  Elec       q    Type
REMARK                         _______ _______ _______ _____ _____    ______ ____
ROOT
ATOM      1  C   UNL     1       0.990   9.434  19.504  0.00  0.00    +0.000 A 
ATOM      2  C   UNL     1       1.647   8.250  19.749  0.00  0.00    +0.000 A 
ATOM      3  N   UNL     1       2.207   7.942  18.547  0.00  0.00    +0.000 N 
ATOM      4  N   UNL     1       1.929   8.879  17.623  0.00  0.00    +0.000 NA
ATOM      5  N   UNL     1       1.166   9.794  18.197  0.00  0.00    +0.000 NA
ENDROOT
BRANCH   1   9
ATOM      6  C   UNL     1      -1.333  11.633  22.289  0.00  0.00    +0.000 A 
ATOM      7  C   UNL     1      -1.298  12.034  20.951  0.00  0.00    +0.000 A 
ATOM      8  C   UNL     1      -0.538  11.311  20.027  0.00  0.00    +0.000 A 
ATOM      9  C   UNL     1       0.178  10.181  20.436  0.00  0.00    +0.000 A 
ATOM     10  C   UNL     1       0.108   9.762  21.771  0.00  0.00    +0.000 A 
ATOM     11  C   UNL     1      -0.642  10.486  22.697  0.00  0.00    +0.000 A 
BRANCH   6  13
ATOM     12  O   UNL     1      -1.708  13.491  23.707  0.00  0.00    +0.000 OA
ATOM     13  C   UNL     1      -2.129  12.432  23.255  0.00  0.00    +0.000 C 
ATOM     14  N   UNL     1      -3.328  11.884  23.645  0.00  0.00    +0.000 N 
ATOM     15  H   UNL     1      -3.516  10.888  23.579  0.00  0.00    +0.000 HD
BRANCH  14  16
ATOM     16  O   UNL     1      -3.993  12.575  24.683  0.00  0.00    +0.000 OA
ATOM     17  H   UNL     1      -3.551  13.454  24.663  0.00  0.00    +0.000 HD
ENDBRANCH  14  16
ENDBRANCH   6  13
ENDBRANCH   1   9
BRANCH   3  18
ATOM     18  C   UNL     1       2.970   6.759  18.200  0.00  0.00    +0.000 C 
ATOM     19  C   UNL     1       2.088   5.568  17.851  0.00  0.00    +0.000 C 
ATOM     20  C   UNL     1       1.944   4.888  19.199  0.00  0.00    +0.000 C 
ATOM     21  N   UNL     1       3.313   4.938  19.815  0.00  0.00    +0.000 NA
ATOM     22  C   UNL     1       3.825   6.274  19.383  0.00  0.00    +0.000 C 
BRANCH  20  23
ATOM     23  C   UNL     1       1.289   3.518  19.176  0.00  0.00    +0.000 C 
ATOM     24  O   UNL     1       0.934   2.894  20.164  0.00  0.00    +0.000 OA
BRANCH  23  25
ATOM     25  O   UNL     1       1.212   3.018  17.916  0.00  0.00    +0.000 OA
ATOM     26  H   UNL     1       0.604   2.247  17.909  0.00  0.00    +0.000 HD
ENDBRANCH  23  25
ENDBRANCH  20  23
BRANCH  21  27
ATOM     27  C   UNL     1       4.236   3.872  19.360  0.00  0.00    +0.000 C 
BRANCH  27  28
ATOM     28  C   UNL     1       5.640   4.431  19.033  0.00  0.00    +0.000 C 
BRANCH  28  29
ATOM     29  C   UNL     1       5.917   4.388  17.552  0.00  0.00    +0.000 A 
ATOM     30  C   UNL     1       7.134   4.857  17.037  0.00  0.00    +0.000 A 
ATOM     31  C   UNL     1       7.360   4.859  15.660  0.00  0.00    +0.000 A 
ATOM     32  C   UNL     1       6.376   4.391  14.792  0.00  0.00    +0.000 A 
ATOM     33  C   UNL     1       5.170   3.910  15.297  0.00  0.00    +0.000 A 
ATOM     34  C   UNL     1       4.942   3.906  16.673  0.00  0.00    +0.000 A 
ENDBRANCH  28  29
ENDBRANCH  27  28
ENDBRANCH  21  27
ENDBRANCH   3  18
TORSDOF 9
ENDMDL
MODEL 3
REMARK VINA RESULT:      -8.4      5.948      8.173
REMARK  Name = 
REMARK  9 active torsions:
REMARK  status: ('A' for Active; 'I' for Inactive)
REMARK    1  A    between atoms: C_2  and  C_5
REMARK    2  A    between atoms: N_3  and  O_4
REMARK    3  A    between atoms: C_8  and  C_9
REMARK    4  A    between atoms: N_11  and  C_12
REMARK    5  A    between atoms: C_14  and  C_15
REMARK    6  A    between atoms: C_15  and  O_17
REMARK    7  A    between atoms: N_18  and  C_19
REMARK    8  A    between atoms: C_19  and  C_20
REMARK    9  A    between atoms: C_20  and  C_21
REMARK                            x       y       z     vdW  Elec       q    Type
REMARK                         _______ _______ _______ _____ _____    ______ ____
ROOT
ATOM      1  C   UNL     1       8.287   8.892  18.324  0.00  0.00    +0.000 A 
ATOM      2  C   UNL     1       7.238   8.611  17.481  0.00  0.00    +0.000 A 
ATOM      3  N   UNL     1       7.074   7.266  17.613  0.00  0.00    +0.000 N 
ATOM      4  N   UNL     1       7.952   6.751  18.492  0.00  0.00    +0.000 NA
ATOM      5  N   UNL     1       8.716   7.740  18.923  0.00  0.00    +0.000 NA
ENDROOT
BRANCH   1   9
ATOM      6  C   UNL     1      10.051  12.703  18.922  0.00  0.00    +0.000 A 
ATOM      7  C   UNL     1      10.373  11.651  19.783  0.00  0.00    +0.000 A 
ATOM      8  C   UNL     1       9.798  10.392  19.590  0.00  0.00    +0.000 A 
ATOM      9  C   UNL     1       8.913  10.178  18.528  0.00  0.00    +0.000 A 
ATOM     10  C   UNL     1       8.625  11.226  17.644  0.00  0.00    +0.000 A 
ATOM     11  C   UNL     1       9.189  12.486  17.840  0.00  0.00    +0.000 A 
BRANCH   6  13
ATOM     12  O   UNL     1      11.255  14.287  20.204  0.00  0.00    +0.000 OA
ATOM     13  C   UNL     1      10.657  14.037  19.163  0.00  0.00    +0.000 C 
ATOM     14  N   UNL     1      10.457  14.976  18.179  0.00  0.00    +0.000 N 
ATOM     15  H   UNL     1       9.689  14.912  17.517  0.00  0.00    +0.000 HD
BRANCH  14  16
ATOM     16  O   UNL     1      10.897  16.281  18.498  0.00  0.00    +0.000 OA
ATOM     17  H   UNL     1      10.687  16.341  19.457  0.00  0.00    +0.000 HD
ENDBRANCH  14  16
ENDBRANCH   6  13
ENDBRANCH   1   9
BRANCH   3  18
ATOM     18  C   UNL     1       6.141   6.412  16.906  0.00  0.00    +0.000 C 
ATOM     19  C   UNL     1       4.690   6.827  17.105  0.00  0.00    +0.000 C 
ATOM     20  C   UNL     1       4.296   5.994  18.310  0.00  0.00    +0.000 C 
ATOM     21  N   UNL     1       4.896   4.638  18.067  0.00  0.00    +0.000 NA
ATOM     22  C   UNL     1       6.204   4.963  17.420  0.00  0.00    +0.000 C 
BRANCH  20  23
ATOM     23  C   UNL     1       2.817   6.000  18.657  0.00  0.00    +0.000 C 
ATOM     24  O   UNL     1       1.906   6.023  17.844  0.00  0.00    +0.000 OA
BRANCH  23  25
ATOM     25  O   UNL     1       2.616   6.056  19.998  0.00  0.00    +0.000 OA
ATOM     26  H   UNL     1       1.681   5.829  20.196  0.00  0.00    +0.000 HD
ENDBRANCH  23  25
ENDBRANCH  20  23
BRANCH  21  27
ATOM     27  C   UNL     1       4.098   3.759  17.180  0.00  0.00    +0.000 C 
BRANCH  27  28
ATOM     28  C   UNL     1       3.773   2.407  17.857  0.00  0.00    +0.000 C 
BRANCH  28  29
ATOM     29  C   UNL     1       2.889   2.596  19.063  0.00  0.00    +0.000 A 
ATOM     30  C   UNL     1       3.436   2.618  20.355  0.00  0.00    +0.000 A 
ATOM     31  C   UNL     1       2.603   2.743  21.467  0.00  0.00    +0.000 A 
ATOM     32  C   UNL     1       1.224   2.848  21.298  0.00  0.00    +0.000 A 
ATOM     33  C   UNL     1       0.675   2.841  20.017  0.00  0.00    +0.000 A 
ATOM     34  C   UNL     1       1.505   2.717  18.903  0.00  0.00    +0.000 A 
ENDBRANCH  28  29
ENDBRANCH  27  28
ENDBRANCH  21  27
ENDBRANCH   3  18
TORSDOF 9
ENDMDL
MODEL 4
REMARK VINA RESULT:      -8.4      3.671     10.078
REMARK  Name = 
REMARK  9 active torsions:
REMARK  status: ('A' for Active; 'I' for Inactive)
REMARK    1  A    between atoms: C_2  and  C_5
REMARK    2  A    between atoms: N_3  and  O_4
REMARK    3  A    between atoms: C_8  and  C_9
REMARK    4  A    between atoms: N_11  and  C_12
REMARK    5  A    between atoms: C_14  and  C_15
REMARK    6  A    between atoms: C_15  and  O_17
REMARK    7  A    between atoms: N_18  and  C_19
REMARK    8  A    between atoms: C_19  and  C_20
REMARK    9  A    between atoms: C_20  and  C_21
REMARK                            x       y       z     vdW  Elec       q    Type
REMARK                         _______ _______ _______ _____ _____    ______ ____
ROOT
ATOM      1  C   UNL     1       2.171   7.922  18.718  0.00  0.00    +0.000 A 
ATOM      2  C   UNL     1       1.576   8.653  19.720  0.00  0.00    +0.000 A 
ATOM      3  N   UNL     1       1.359   9.867  19.144  0.00  0.00    +0.000 N 
ATOM      4  N   UNL     1       1.777   9.884  17.866  0.00  0.00    +0.000 NA
ATOM      5  N   UNL     1       2.295   8.698  17.598  0.00  0.00    +0.000 NA
ENDROOT
BRANCH   1   9
ATOM      6  C   UNL     1       3.536   3.917  18.995  0.00  0.00    +0.000 A 
ATOM      7  C   UNL     1       3.949   4.714  17.925  0.00  0.00    +0.000 A 
ATOM      8  C   UNL     1       3.506   6.036  17.829  0.00  0.00    +0.000 A 
ATOM      9  C   UNL     1       2.661   6.568  18.809  0.00  0.00    +0.000 A 
ATOM     10  C   UNL     1       2.283   5.775  19.901  0.00  0.00    +0.000 A 
ATOM     11  C   UNL     1       2.715   4.453  19.995  0.00  0.00    +0.000 A 
BRANCH   6  13
ATOM     12  O   UNL     1       3.452   1.624  18.415  0.00  0.00    +0.000 OA
ATOM     13  C   UNL     1       4.002   2.509  19.061  0.00  0.00    +0.000 C 
ATOM     14  N   UNL     1       5.042   2.258  19.925  0.00  0.00    +0.000 N 
ATOM     15  H   UNL     1       5.255   2.868  20.708  0.00  0.00    +0.000 HD
BRANCH  14  16
ATOM     16  O   UNL     1       5.362   0.892  20.097  0.00  0.00    +0.000 OA
ATOM     17  H   UNL     1       5.939   0.715  19.320  0.00  0.00    +0.000 HD
ENDBRANCH  14  16
ENDBRANCH   6  13
ENDBRANCH   1   9
BRANCH   3  18
ATOM     18  C   UNL     1       0.808  11.057  19.762  0.00  0.00    +0.000 C 
ATOM     19  C   UNL     1      -0.707  11.001  19.903  0.00  0.00    +0.000 C 
ATOM     20  C   UNL     1      -1.160  11.653  18.611  0.00  0.00    +0.000 C 
ATOM     21  N   UNL     1      -0.242  12.827  18.417  0.00  0.00    +0.000 NA
ATOM     22  C   UNL     1       1.071  12.308  18.907  0.00  0.00    +0.000 C 
BRANCH  20  23
ATOM     23  C   UNL     1      -2.644  11.963  18.516  0.00  0.00    +0.000 C 
ATOM     24  O   UNL     1      -3.384  12.146  19.469  0.00  0.00    +0.000 OA
BRANCH  23  25
ATOM     25  O   UNL     1      -3.082  11.935  17.231  0.00  0.00    +0.000 OA
ATOM     26  H   UNL     1      -3.368  12.837  16.966  0.00  0.00    +0.000 HD
ENDBRANCH  23  25
ENDBRANCH  20  23
BRANCH  21  27
ATOM     27  C   UNL     1      -0.622  14.040  19.179  0.00  0.00    +0.000 C 
BRANCH  27  28
ATOM     28  C   UNL     1       0.604  14.931  19.484  0.00  0.00    +0.000 C 
BRANCH  28  29
ATOM     29  C   UNL     1       0.666  16.117  18.555  0.00  0.00    +0.000 A 
ATOM     30  C   UNL     1       1.895  16.569  18.053  0.00  0.00    +0.000 A 
ATOM     31  C   UNL     1       1.946  17.697  17.234  0.00  0.00    +0.000 A 
ATOM     32  C   UNL     1       0.774  18.378  16.911  0.00  0.00    +0.000 A 
ATOM     33  C   UNL     1      -0.452  17.926  17.395  0.00  0.00    +0.000 A 
ATOM     34  C   UNL     1      -0.506  16.798  18.213  0.00  0.00    +0.000 A 
ENDBRANCH  28  29
ENDBRANCH  27  28
ENDBRANCH  21  27
ENDBRANCH   3  18
TORSDOF 9
ENDMDL
MODEL 5
REMARK VINA RESULT:      -8.3      0.617      1.163
REMARK  Name = 
REMARK  9 active torsions:
REMARK  status: ('A' for Active; 'I' for Inactive)
REMARK    1  A    between atoms: C_2  and  C_5
REMARK    2  A    between atoms: N_3  and  O_4
REMARK    3  A    between atoms: C_8  and  C_9
REMARK    4  A    between atoms: N_11  and  C_12
REMARK    5  A    between atoms: C_14  and  C_15
REMARK    6  A    between atoms: C_15  and  O_17
REMARK    7  A    between atoms: N_18  and  C_19
REMARK    8  A    between atoms: C_19  and  C_20
REMARK    9  A    between atoms: C_20  and  C_21
REMARK                            x       y       z     vdW  Elec       q    Type
REMARK                         _______ _______ _______ _____ _____    ______ ____
ROOT
ATOM      1  C   UNL     1       1.132   9.424  19.506  0.00  0.00    +0.000 A 
ATOM      2  C   UNL     1       1.786   8.236  19.737  0.00  0.00    +0.000 A 
ATOM      3  N   UNL     1       2.250   7.882  18.507  0.00  0.00    +0.000 N 
ATOM      4  N   UNL     1       1.920   8.797  17.578  0.00  0.00    +0.000 NA
ATOM      5  N   UNL     1       1.217   9.742  18.178  0.00  0.00    +0.000 NA
ENDROOT
BRANCH   1   9
ATOM      6  C   UNL     1      -1.062  11.760  22.283  0.00  0.00    +0.000 A 
ATOM      7  C   UNL     1      -0.733  10.440  22.600  0.00  0.00    +0.000 A 
ATOM      8  C   UNL     1      -0.007   9.665  21.692  0.00  0.00    +0.000 A 
ATOM      9  C   UNL     1       0.404  10.212  20.471  0.00  0.00    +0.000 A 
ATOM     10  C   UNL     1       0.105  11.549  20.176  0.00  0.00    +0.000 A 
ATOM     11  C   UNL     1      -0.628  12.321  21.076  0.00  0.00    +0.000 A 
BRANCH   6  13
ATOM     12  O   UNL     1      -2.926  12.146  23.689  0.00  0.00    +0.000 OA
ATOM     13  C   UNL     1      -1.854  12.554  23.256  0.00  0.00    +0.000 C 
ATOM     14  N   UNL     1      -1.339  13.784  23.591  0.00  0.00    +0.000 N 
ATOM     15  H   UNL     1      -0.683  14.278  22.994  0.00  0.00    +0.000 HD
BRANCH  14  16
ATOM     16  O   UNL     1      -2.184  14.590  24.387  0.00  0.00    +0.000 OA
ATOM     17  H   UNL     1      -2.165  15.448  23.905  0.00  0.00    +0.000 HD
ENDBRANCH  14  16
ENDBRANCH   6  13
ENDBRANCH   1   9
BRANCH   3  18
ATOM     18  C   UNL     1       2.966   6.676  18.141  0.00  0.00    +0.000 C 
ATOM     19  C   UNL     1       2.038   5.515  17.812  0.00  0.00    +0.000 C 
ATOM     20  C   UNL     1       1.904   4.838  19.162  0.00  0.00    +0.000 C 
ATOM     21  N   UNL     1       3.288   4.842  19.746  0.00  0.00    +0.000 NA
ATOM     22  C   UNL     1       3.832   6.161  19.304  0.00  0.00    +0.000 C 
BRANCH  20  23
ATOM     23  C   UNL     1       1.204   3.489  19.153  0.00  0.00    +0.000 C 
ATOM     24  O   UNL     1       1.059   2.781  18.170  0.00  0.00    +0.000 OA
BRANCH  23  25
ATOM     25  O   UNL     1       0.678   3.188  20.368  0.00  0.00    +0.000 OA
ATOM     26  H   UNL     1       1.288   3.499  21.072  0.00  0.00    +0.000 HD
ENDBRANCH  23  25
ENDBRANCH  20  23
BRANCH  21  27
ATOM     27  C   UNL     1       4.164   3.747  19.268  0.00  0.00    +0.000 C 
BRANCH  27  28
ATOM     28  C   UNL     1       5.607   4.240  19.010  0.00  0.00    +0.000 C 
BRANCH  28  29
ATOM     29  C   UNL     1       5.914   4.291  17.535  0.00  0.00    +0.000 A 
ATOM     30  C   UNL     1       7.149   4.771  17.077  0.00  0.00    +0.000 A 
ATOM     31  C   UNL     1       7.404   4.860  15.709  0.00  0.00    +0.000 A 
ATOM     32  C   UNL     1       6.431   4.470  14.791  0.00  0.00    +0.000 A 
ATOM     33  C   UNL     1       5.206   3.979  15.239  0.00  0.00    +0.000 A 
ATOM     34  C   UNL     1       4.949   3.887  16.606  0.00  0.00    +0.000 A 
ENDBRANCH  28  29
ENDBRANCH  27  28
ENDBRANCH  21  27
ENDBRANCH   3  18
TORSDOF 9
ENDMDL
MODEL 6
REMARK VINA RESULT:      -8.2      6.213      8.353
REMARK  Name = 
REMARK  9 active torsions:
REMARK  status: ('A' for Active; 'I' for Inactive)
REMARK    1  A    between atoms: C_2  and  C_5
REMARK    2  A    between atoms: N_3  and  O_4
REMARK    3  A    between atoms: C_8  and  C_9
REMARK    4  A    between atoms: N_11  and  C_12
REMARK    5  A    between atoms: C_14  and  C_15
REMARK    6  A    between atoms: C_15  and  O_17
REMARK    7  A    between atoms: N_18  and  C_19
REMARK    8  A    between atoms: C_19  and  C_20
REMARK    9  A    between atoms: C_20  and  C_21
REMARK                            x       y       z     vdW  Elec       q    Type
REMARK                         _______ _______ _______ _____ _____    ______ ____
ROOT
ATOM      1  C   UNL     1       8.500   9.395  18.157  0.00  0.00    +0.000 A 
ATOM      2  C   UNL     1       7.568   8.798  17.340  0.00  0.00    +0.000 A 
ATOM      3  N   UNL     1       7.512   7.519  17.801  0.00  0.00    +0.000 N 
ATOM      4  N   UNL     1       8.342   7.338  18.844  0.00  0.00    +0.000 NA
ATOM      5  N   UNL     1       8.968   8.482  19.062  0.00  0.00    +0.000 NA
ENDROOT
BRANCH   1   9
ATOM      6  C   UNL     1       9.860  13.407  17.944  0.00  0.00    +0.000 A 
ATOM      7  C   UNL     1      10.738  12.402  18.358  0.00  0.00    +0.000 A 
ATOM      8  C   UNL     1      10.297  11.077  18.427  0.00  0.00    +0.000 A 
ATOM      9  C   UNL     1       8.984  10.752  18.070  0.00  0.00    +0.000 A 
ATOM     10  C   UNL     1       8.120  11.759  17.618  0.00  0.00    +0.000 A 
ATOM     11  C   UNL     1       8.554  13.083  17.557  0.00  0.00    +0.000 A 
BRANCH   6  13
ATOM     12  O   UNL     1      10.540  15.448  18.930  0.00  0.00    +0.000 OA
ATOM     13  C   UNL     1      10.346  14.809  17.902  0.00  0.00    +0.000 C 
ATOM     14  N   UNL     1      10.508  15.353  16.649  0.00  0.00    +0.000 N 
ATOM     15  H   UNL     1      10.022  14.991  15.835  0.00  0.00    +0.000 HD
BRANCH  14  16
ATOM     16  O   UNL     1      10.811  16.733  16.631  0.00  0.00    +0.000 OA
ATOM     17  H   UNL     1      11.497  16.785  15.928  0.00  0.00    +0.000 HD
ENDBRANCH  14  16
ENDBRANCH   6  13
ENDBRANCH   1   9
BRANCH   3  18
ATOM     18  C   UNL     1       6.735   6.416  17.271  0.00  0.00    +0.000 C 
ATOM     19  C   UNL     1       5.241   6.709  17.237  0.00  0.00    +0.000 C 
ATOM     20  C   UNL     1       4.793   6.172  18.582  0.00  0.00    +0.000 C 
ATOM     21  N   UNL     1       5.527   4.872  18.753  0.00  0.00    +0.000 NA
ATOM     22  C   UNL     1       6.863   5.162  18.151  0.00  0.00    +0.000 C 
BRANCH  20  23
ATOM     23  C   UNL     1       3.290   6.105  18.795  0.00  0.00    +0.000 C 
ATOM     24  O   UNL     1       2.456   6.088  17.904  0.00  0.00    +0.000 OA
BRANCH  23  25
ATOM     25  O   UNL     1       2.968   6.147  20.113  0.00  0.00    +0.000 OA
ATOM     26  H   UNL     1       2.563   5.292  20.376  0.00  0.00    +0.000 HD
ENDBRANCH  23  25
ENDBRANCH  20  23
BRANCH  21  27
ATOM     27  C   UNL     1       4.903   3.715  18.068  0.00  0.00    +0.000 C 
BRANCH  27  28
ATOM     28  C   UNL     1       4.610   2.558  19.050  0.00  0.00    +0.000 C 
BRANCH  28  29
ATOM     29  C   UNL     1       3.226   2.672  19.636  0.00  0.00    +0.000 A 
ATOM     30  C   UNL     1       2.096   2.686  18.805  0.00  0.00    +0.000 A 
ATOM     31  C   UNL     1       0.823   2.843  19.354  0.00  0.00    +0.000 A 
ATOM     32  C   UNL     1       0.670   2.984  20.732  0.00  0.00    +0.000 A 
ATOM     33  C   UNL     1       1.788   2.958  21.564  0.00  0.00    +0.000 A 
ATOM     34  C   UNL     1       3.061   2.800  21.019  0.00  0.00    +0.000 A 
ENDBRANCH  28  29
ENDBRANCH  27  28
ENDBRANCH  21  27
ENDBRANCH   3  18
TORSDOF 9
ENDMDL
MODEL 7
REMARK VINA RESULT:      -8.1      3.623      9.842
REMARK  Name = 
REMARK  9 active torsions:
REMARK  status: ('A' for Active; 'I' for Inactive)
REMARK    1  A    between atoms: C_2  and  C_5
REMARK    2  A    between atoms: N_3  and  O_4
REMARK    3  A    between atoms: C_8  and  C_9
REMARK    4  A    between atoms: N_11  and  C_12
REMARK    5  A    between atoms: C_14  and  C_15
REMARK    6  A    between atoms: C_15  and  O_17
REMARK    7  A    between atoms: N_18  and  C_19
REMARK    8  A    between atoms: C_19  and  C_20
REMARK    9  A    between atoms: C_20  and  C_21
REMARK                            x       y       z     vdW  Elec       q    Type
REMARK                         _______ _______ _______ _____ _____    ______ ____
ROOT
ATOM      1  C   UNL     1       2.175   7.777  18.797  0.00  0.00    +0.000 A 
ATOM      2  C   UNL     1       1.558   8.523  19.774  0.00  0.00    +0.000 A 
ATOM      3  N   UNL     1       1.411   9.746  19.196  0.00  0.00    +0.000 N 
ATOM      4  N   UNL     1       1.891   9.755  17.940  0.00  0.00    +0.000 NA
ATOM      5  N   UNL     1       2.379   8.552  17.689  0.00  0.00    +0.000 NA
ENDROOT
BRANCH   1   9
ATOM      6  C   UNL     1       3.540   3.772  19.092  0.00  0.00    +0.000 A 
ATOM      7  C   UNL     1       2.779   4.320  20.128  0.00  0.00    +0.000 A 
ATOM      8  C   UNL     1       2.323   5.637  20.036  0.00  0.00    +0.000 A 
ATOM      9  C   UNL     1       2.614   6.405  18.903  0.00  0.00    +0.000 A 
ATOM     10  C   UNL     1       3.344   5.838  17.850  0.00  0.00    +0.000 A 
ATOM     11  C   UNL     1       3.808   4.526  17.943  0.00  0.00    +0.000 A 
BRANCH   6  13
ATOM     12  O   UNL     1       3.473   1.446  18.658  0.00  0.00    +0.000 OA
ATOM     13  C   UNL     1       4.032   2.378  19.225  0.00  0.00    +0.000 C 
ATOM     14  N   UNL     1       5.109   2.197  20.061  0.00  0.00    +0.000 N 
ATOM     15  H   UNL     1       5.342   2.858  20.795  0.00  0.00    +0.000 HD
BRANCH  14  16
ATOM     16  O   UNL     1       5.460   0.850  20.303  0.00  0.00    +0.000 OA
ATOM     17  H   UNL     1       6.403   0.827  20.024  0.00  0.00    +0.000 HD
ENDBRANCH  14  16
ENDBRANCH   6  13
ENDBRANCH   1   9
BRANCH   3  18
ATOM     18  C   UNL     1       0.872  10.952  19.794  0.00  0.00    +0.000 C 
ATOM     19  C   UNL     1      -0.647  10.932  19.897  0.00  0.00    +0.000 C 
ATOM     20  C   UNL     1      -1.051  11.588  18.591  0.00  0.00    +0.000 C 
ATOM     21  N   UNL     1      -0.102  12.739  18.416  0.00  0.00    +0.000 NA
ATOM     22  C   UNL     1       1.186  12.192  18.941  0.00  0.00    +0.000 C 
BRANCH  20  23
ATOM     23  C   UNL     1      -2.525  11.931  18.457  0.00  0.00    +0.000 C 
ATOM     24  O   UNL     1      -3.298  12.080  19.390  0.00  0.00    +0.000 OA
BRANCH  23  25
ATOM     25  O   UNL     1      -2.913  11.977  17.157  0.00  0.00    +0.000 OA
ATOM     26  H   UNL     1      -2.496  11.236  16.666  0.00  0.00    +0.000 HD
ENDBRANCH  23  25
ENDBRANCH  20  23
BRANCH  21  27
ATOM     27  C   UNL     1      -0.473  13.964  19.162  0.00  0.00    +0.000 C 
BRANCH  27  28
ATOM     28  C   UNL     1       0.774  14.716  19.683  0.00  0.00    +0.000 C 
BRANCH  28  29
ATOM     29  C   UNL     1       1.165  15.839  18.756  0.00  0.00    +0.000 A 
ATOM     30  C   UNL     1       0.265  16.876  18.469  0.00  0.00    +0.000 A 
ATOM     31  C   UNL     1       0.618  17.884  17.571  0.00  0.00    +0.000 A 
ATOM     32  C   UNL     1       1.869  17.863  16.957  0.00  0.00    +0.000 A 
ATOM     33  C   UNL     1       2.773  16.844  17.249  0.00  0.00    +0.000 A 
ATOM     34  C   UNL     1       2.423  15.836  18.147  0.00  0.00    +0.000 A 
ENDBRANCH  28  29
ENDBRANCH  27  28
ENDBRANCH  21  27
ENDBRANCH   3  18
TORSDOF 9
ENDMDL
MODEL 8
REMARK VINA RESULT:      -8.1      2.692      3.807
REMARK  Name = 
REMARK  9 active torsions:
REMARK  status: ('A' for Active; 'I' for Inactive)
REMARK    1  A    between atoms: C_2  and  C_5
REMARK    2  A    between atoms: N_3  and  O_4
REMARK    3  A    between atoms: C_8  and  C_9
REMARK    4  A    between atoms: N_11  and  C_12
REMARK    5  A    between atoms: C_14  and  C_15
REMARK    6  A    between atoms: C_15  and  O_17
REMARK    7  A    between atoms: N_18  and  C_19
REMARK    8  A    between atoms: C_19  and  C_20
REMARK    9  A    between atoms: C_20  and  C_21
REMARK                            x       y       z     vdW  Elec       q    Type
REMARK                         _______ _______ _______ _____ _____    ______ ____
ROOT
ATOM      1  C   UNL     1       1.904   7.054  20.273  0.00  0.00    +0.000 A 
ATOM      2  C   UNL     1       2.879   6.881  19.319  0.00  0.00    +0.000 A 
ATOM      3  N   UNL     1       3.130   5.544  19.359  0.00  0.00    +0.000 N 
ATOM      4  N   UNL     1       2.351   4.927  20.265  0.00  0.00    +0.000 NA
ATOM      5  N   UNL     1       1.604   5.849  20.847  0.00  0.00    +0.000 NA
ENDROOT
BRANCH   1   9
ATOM      6  C   UNL     1       0.093  10.714  21.419  0.00  0.00    +0.000 A 
ATOM      7  C   UNL     1       0.363   9.746  22.388  0.00  0.00    +0.000 A 
ATOM      8  C   UNL     1       0.964   8.539  22.019  0.00  0.00    +0.000 A 
ATOM      9  C   UNL     1       1.306   8.303  20.683  0.00  0.00    +0.000 A 
ATOM     10  C   UNL     1       1.068   9.295  19.721  0.00  0.00    +0.000 A 
ATOM     11  C   UNL     1       0.460  10.496  20.086  0.00  0.00    +0.000 A 
BRANCH   6  13
ATOM     12  O   UNL     1      -0.225  13.059  21.369  0.00  0.00    +0.000 OA
ATOM     13  C   UNL     1      -0.567  11.978  21.834  0.00  0.00    +0.000 C 
ATOM     14  N   UNL     1      -1.537  11.861  22.802  0.00  0.00    +0.000 N 
ATOM     15  H   UNL     1      -1.574  11.071  23.439  0.00  0.00    +0.000 HD
BRANCH  14  16
ATOM     16  O   UNL     1      -2.036  13.085  23.301  0.00  0.00    +0.000 OA
ATOM     17  H   UNL     1      -2.914  12.821  23.657  0.00  0.00    +0.000 HD
ENDBRANCH  14  16
ENDBRANCH   6  13
ENDBRANCH   1   9
BRANCH   3  18
ATOM     18  C   UNL     1       4.121   4.803  18.603  0.00  0.00    +0.000 C 
ATOM     19  C   UNL     1       5.443   4.659  19.344  0.00  0.00    +0.000 C 
ATOM     20  C   UNL     1       6.205   5.874  18.852  0.00  0.00    +0.000 C 
ATOM     21  N   UNL     1       5.918   5.951  17.379  0.00  0.00    +0.000 NA
ATOM     22  C   UNL     1       4.487   5.526  17.296  0.00  0.00    +0.000 C 
BRANCH  20  23
ATOM     23  C   UNL     1       7.674   5.927  19.233  0.00  0.00    +0.000 C 
ATOM     24  O   UNL     1       8.252   5.096  19.915  0.00  0.00    +0.000 OA
BRANCH  23  25
ATOM     25  O   UNL     1       8.268   7.064  18.789  0.00  0.00    +0.000 OA
ATOM     26  H   UNL     1       8.196   7.108  17.811  0.00  0.00    +0.000 HD
ENDBRANCH  23  25
ENDBRANCH  20  23
BRANCH  21  27
ATOM     27  C   UNL     1       6.758   5.066  16.539  0.00  0.00    +0.000 C 
BRANCH  27  28
ATOM     28  C   UNL     1       5.899   4.148  15.638  0.00  0.00    +0.000 C 
BRANCH  28  29
ATOM     29  C   UNL     1       6.329   4.237  14.196  0.00  0.00    +0.000 A 
ATOM     30  C   UNL     1       5.740   3.416  13.222  0.00  0.00    +0.000 A 
ATOM     31  C   UNL     1       6.180   3.471  11.899  0.00  0.00    +0.000 A 
ATOM     32  C   UNL     1       7.206   4.344  11.541  0.00  0.00    +0.000 A 
ATOM     33  C   UNL     1       7.785   5.171  12.501  0.00  0.00    +0.000 A 
ATOM     34  C   UNL     1       7.347   5.120  13.823  0.00  0.00    +0.000 A 
ENDBRANCH  28  29
ENDBRANCH  27  28
ENDBRANCH  21  27
ENDBRANCH   3  18
TORSDOF 9
ENDMDL
MODEL 9
REMARK VINA RESULT:      -8.1      2.984      4.085
REMARK  Name = 
REMARK  9 active torsions:
REMARK  status: ('A' for Active; 'I' for Inactive)
REMARK    1  A    between atoms: C_2  and  C_5
REMARK    2  A    between atoms: N_3  and  O_4
REMARK    3  A    between atoms: C_8  and  C_9
REMARK    4  A    between atoms: N_11  and  C_12
REMARK    5  A    between atoms: C_14  and  C_15
REMARK    6  A    between atoms: C_15  and  O_17
REMARK    7  A    between atoms: N_18  and  C_19
REMARK    8  A    between atoms: C_19  and  C_20
REMARK    9  A    between atoms: C_20  and  C_21
REMARK                            x       y       z     vdW  Elec       q    Type
REMARK                         _______ _______ _______ _____ _____    ______ ____
ROOT
ATOM      1  C   UNL     1       1.887   7.554  19.826  0.00  0.00    +0.000 A 
ATOM      2  C   UNL     1       2.763   7.085  18.875  0.00  0.00    +0.000 A 
ATOM      3  N   UNL     1       3.073   5.835  19.316  0.00  0.00    +0.000 N 
ATOM      4  N   UNL     1       2.421   5.542  20.455  0.00  0.00    +0.000 NA
ATOM      5  N   UNL     1       1.701   6.600  20.788  0.00  0.00    +0.000 NA
ENDROOT
BRANCH   1   9
ATOM      6  C   UNL     1       0.063  11.382  19.909  0.00  0.00    +0.000 A 
ATOM      7  C   UNL     1       0.202  10.658  21.096  0.00  0.00    +0.000 A 
ATOM      8  C   UNL     1       0.806   9.398  21.076  0.00  0.00    +0.000 A 
ATOM      9  C   UNL     1       1.283   8.864  19.874  0.00  0.00    +0.000 A 
ATOM     10  C   UNL     1       1.176   9.612  18.694  0.00  0.00    +0.000 A 
ATOM     11  C   UNL     1       0.566  10.866  18.709  0.00  0.00    +0.000 A 
BRANCH   6  13
ATOM     12  O   UNL     1      -1.526  12.933  20.728  0.00  0.00    +0.000 OA
ATOM     13  C   UNL     1      -0.603  12.708  19.953  0.00  0.00    +0.000 C 
ATOM     14  N   UNL     1      -0.158  13.636  19.041  0.00  0.00    +0.000 N 
ATOM     15  H   UNL     1       0.318  13.369  18.185  0.00  0.00    +0.000 HD
BRANCH  14  16
ATOM     16  O   UNL     1      -0.910  14.831  18.987  0.00  0.00    +0.000 OA
ATOM     17  H   UNL     1      -0.207  15.518  18.952  0.00  0.00    +0.000 HD
ENDBRANCH  14  16
ENDBRANCH   6  13
ENDBRANCH   1   9
BRANCH   3  18
ATOM     18  C   UNL     1       4.010   4.895  18.733  0.00  0.00    +0.000 C 
ATOM     19  C   UNL     1       5.329   4.829  19.489  0.00  0.00    +0.000 C 
ATOM     20  C   UNL     1       6.156   5.866  18.755  0.00  0.00    +0.000 C 
ATOM     21  N   UNL     1       5.858   5.652  17.298  0.00  0.00    +0.000 NA
ATOM     22  C   UNL     1       4.404   5.306  17.304  0.00  0.00    +0.000 C 
BRANCH  20  23
ATOM     23  C   UNL     1       7.631   5.909  19.119  0.00  0.00    +0.000 C 
ATOM     24  O   UNL     1       8.199   5.101  19.837  0.00  0.00    +0.000 OA
BRANCH  23  25
ATOM     25  O   UNL     1       8.242   7.010  18.612  0.00  0.00    +0.000 OA
ATOM     26  H   UNL     1       7.730   7.339  17.841  0.00  0.00    +0.000 HD
ENDBRANCH  23  25
ENDBRANCH  20  23
BRANCH  21  27
ATOM     27  C   UNL     1       6.635   4.562  16.662  0.00  0.00    +0.000 C 
BRANCH  27  28
ATOM     28  C   UNL     1       5.798   3.806  15.603  0.00  0.00    +0.000 C 
BRANCH  28  29
ATOM     29  C   UNL     1       6.314   4.064  14.211  0.00  0.00    +0.000 A 
ATOM     30  C   UNL     1       5.823   3.333  13.119  0.00  0.00    +0.000 A 
ATOM     31  C   UNL     1       6.344   3.544  11.842  0.00  0.00    +0.000 A 
ATOM     32  C   UNL     1       7.353   4.485  11.647  0.00  0.00    +0.000 A 
ATOM     33  C   UNL     1       7.836   5.225  12.725  0.00  0.00    +0.000 A 
ATOM     34  C   UNL     1       7.317   5.016  14.002  0.00  0.00    +0.000 A 
ENDBRANCH  28  29
ENDBRANCH  27  28
ENDBRANCH  21  27
ENDBRANCH   3  18
TORSDOF 9
ENDMDL
