MODEL 1
REMARK VINA RESULT:      -9.6      0.000      0.000
REMARK  Name = 
REMARK  7 active torsions:
REMARK  status: ('A' for Active; 'I' for Inactive)
REMARK    1  A    between atoms: C_1  and  C_2
REMARK    2  A    between atoms: C_4  and  C_5
REMARK    3  A    between atoms: C_5  and  C_6
REMARK    4  A    between atoms: C_10  and  C_11
REMARK    5  A    between atoms: N_14  and  C_15
REMARK    6  A    between atoms: C_18  and  C_19
REMARK    7  A    between atoms: C_27  and  C_28
REMARK                            x       y       z     vdW  Elec       q    Type
REMARK                         _______ _______ _______ _____ _____    ______ ____
ROOT
ATOM      1  C   UNL     1       1.465   9.165  19.441  0.00  0.00    +0.000 A 
ATOM      2  C   UNL     1       2.197   9.175  18.259  0.00  0.00    +0.000 A 
ATOM      3  C   UNL     1       2.820   8.008  17.820  0.00  0.00    +0.000 A 
ATOM      4  C   UNL     1       2.782   6.802  18.569  0.00  0.00    +0.000 A 
ATOM      5  C   UNL     1       3.479   5.607  18.215  0.00  0.00    +0.000 A 
ATOM      6  C   UNL     1       3.329   4.469  19.013  0.00  0.00    +0.000 A 
ATOM      7  C   UNL     1       2.510   4.541  20.120  0.00  0.00    +0.000 A 
ATOM      8  N   UNL     1       1.850   5.663  20.497  0.00  0.00    +0.000 NA
ATOM      9  C   UNL     1       1.995   6.775  19.744  0.00  0.00    +0.000 A 
ATOM     10  C   UNL     1       1.355   7.956  20.143  0.00  0.00    +0.000 A 
ATOM     11  F   UNL     1       0.606   7.942  21.261  0.00  0.00    +0.000 F 
ENDROOT
BRANCH   5  12
ATOM     12  C   UNL     1       4.394   5.528  17.076  0.00  0.00    +0.000 A 
ATOM     13  C   UNL     1       5.257   6.487  16.491  0.00  0.00    +0.000 A 
ATOM     14  N   UNL     1       5.948   6.007  15.456  0.00  0.00    +0.000 NA
ATOM     15  N   UNL     1       5.578   4.717  15.403  0.00  0.00    +0.000 N 
ATOM     16  C   UNL     1       6.181   3.834  14.435  0.00  0.00    +0.000 C 
ATOM     17  C   UNL     1       4.653   4.380  16.351  0.00  0.00    +0.000 A 
ENDBRANCH   5  12
BRANCH   7  18
ATOM     18  C   UNL     1       2.329   3.329  20.983  0.00  0.00    +0.000 C 
ATOM     19  N   UNL     1       1.036   2.952  21.221  0.00  0.00    +0.000 N 
ATOM     20  O   UNL     1       3.271   2.710  21.458  0.00  0.00    +0.000 OA
ATOM     21  H   UNL     1       0.273   3.490  20.821  0.00  0.00    +0.000 HD
ATOM     22  H   UNL     1       0.849   2.151  21.806  0.00  0.00    +0.000 HD
ENDBRANCH   7  18
BRANCH   1  23
ATOM     23  C   UNL     1       0.848  10.433  19.974  0.00  0.00    +0.000 C 
BRANCH  23  27
ATOM     24  C   UNL     1      -2.609   9.943  16.320  0.00  0.00    +0.000 C 
ATOM     25  C   UNL     1      -2.153  10.492  17.638  0.00  0.00    +0.000 A 
ATOM     26  C   UNL     1      -0.908  10.161  18.163  0.00  0.00    +0.000 A 
ATOM     27  C   UNL     1      -0.510  10.720  19.381  0.00  0.00    +0.000 A 
ATOM     28  C   UNL     1      -1.389  11.600  20.024  0.00  0.00    +0.000 A 
ATOM     29  C   UNL     1      -2.621  11.874  19.444  0.00  0.00    +0.000 A 
ATOM     30  C   UNL     1      -3.591  12.807  20.105  0.00  0.00    +0.000 C 
ATOM     31  N   UNL     1      -3.009  11.333  18.265  0.00  0.00    +0.000 NA
ENDBRANCH  23  27
ENDBRANCH   1  23
TORSDOF 4
ENDMDL
MODEL 2
REMARK VINA RESULT:      -9.4      0.415      1.599
REMARK  Name = 
REMARK  7 active torsions:
REMARK  status: ('A' for Active; 'I' for Inactive)
REMARK    1  A    between atoms: C_1  and  C_2
REMARK    2  A    between atoms: C_4  and  C_5
REMARK    3  A    between atoms: C_5  and  C_6
REMARK    4  A    between atoms: C_10  and  C_11
REMARK    5  A    between atoms: N_14  and  C_15
REMARK    6  A    between atoms: C_18  and  C_19
REMARK    7  A    between atoms: C_27  and  C_28
REMARK                            x       y       z     vdW  Elec       q    Type
REMARK                         _______ _______ _______ _____ _____    ______ ____
ROOT
ATOM      1  C   UNL     1       1.423   9.336  19.408  0.00  0.00    +0.000 A 
ATOM      2  C   UNL     1       2.192   9.344  18.250  0.00  0.00    +0.000 A 
ATOM      3  C   UNL     1       2.820   8.173  17.827  0.00  0.00    +0.000 A 
ATOM      4  C   UNL     1       2.749   6.966  18.570  0.00  0.00    +0.000 A 
ATOM      5  C   UNL     1       3.447   5.766  18.235  0.00  0.00    +0.000 A 
ATOM      6  C   UNL     1       3.263   4.628  19.024  0.00  0.00    +0.000 A 
ATOM      7  C   UNL     1       2.411   4.702  20.106  0.00  0.00    +0.000 A 
ATOM      8  N   UNL     1       1.748   5.829  20.465  0.00  0.00    +0.000 NA
ATOM      9  C   UNL     1       1.925   6.941  19.720  0.00  0.00    +0.000 A 
ATOM     10  C   UNL     1       1.282   8.126  20.102  0.00  0.00    +0.000 A 
ATOM     11  F   UNL     1       0.499   8.115  21.197  0.00  0.00    +0.000 F 
ENDROOT
BRANCH   5  12
ATOM     12  C   UNL     1       4.397   5.683  17.125  0.00  0.00    +0.000 A 
ATOM     13  C   UNL     1       5.335   6.614  16.615  0.00  0.00    +0.000 A 
ATOM     14  N   UNL     1       6.034   6.140  15.583  0.00  0.00    +0.000 NA
ATOM     15  N   UNL     1       5.591   4.879  15.457  0.00  0.00    +0.000 N 
ATOM     16  C   UNL     1       6.176   4.005  14.469  0.00  0.00    +0.000 C 
ATOM     17  C   UNL     1       4.614   4.555  16.356  0.00  0.00    +0.000 A 
ENDBRANCH   5  12
BRANCH   7  18
ATOM     18  C   UNL     1       2.194   3.489  20.959  0.00  0.00    +0.000 C 
ATOM     19  N   UNL     1       1.892   2.335  20.289  0.00  0.00    +0.000 N 
ATOM     20  O   UNL     1       2.271   3.517  22.179  0.00  0.00    +0.000 OA
ATOM     21  H   UNL     1       1.827   2.342  19.276  0.00  0.00    +0.000 HD
ATOM     22  H   UNL     1       1.722   1.486  20.810  0.00  0.00    +0.000 HD
ENDBRANCH   7  18
BRANCH   1  23
ATOM     23  C   UNL     1       0.800  10.608  19.926  0.00  0.00    +0.000 C 
BRANCH  23  27
ATOM     24  C   UNL     1      -3.807  12.682  20.073  0.00  0.00    +0.000 C 
ATOM     25  C   UNL     1      -2.748  11.872  19.389  0.00  0.00    +0.000 A 
ATOM     26  C   UNL     1      -1.501  11.679  19.974  0.00  0.00    +0.000 A 
ATOM     27  C   UNL     1      -0.552  10.890  19.316  0.00  0.00    +0.000 A 
ATOM     28  C   UNL     1      -0.904  10.320  18.087  0.00  0.00    +0.000 A 
ATOM     29  C   UNL     1      -2.164  10.567  17.560  0.00  0.00    +0.000 A 
ATOM     30  C   UNL     1      -2.576   9.978  16.243  0.00  0.00    +0.000 C 
ATOM     31  N   UNL     1      -3.084  11.331  18.195  0.00  0.00    +0.000 NA
ENDBRANCH  23  27
ENDBRANCH   1  23
TORSDOF 4
ENDMDL
MODEL 3
REMARK VINA RESULT:      -9.3      1.071      1.655
REMARK  Name = 
REMARK  7 active torsions:
REMARK  status: ('A' for Active; 'I' for Inactive)
REMARK    1  A    between atoms: C_1  and  C_2
REMARK    2  A    between atoms: C_4  and  C_5
REMARK    3  A    between atoms: C_5  and  C_6
REMARK    4  A    between atoms: C_10  and  C_11
REMARK    5  A    between atoms: N_14  and  C_15
REMARK    6  A    between atoms: C_18  and  C_19
REMARK    7  A    between atoms: C_27  and  C_28
REMARK                            x       y       z     vdW  Elec       q    Type
REMARK                         _______ _______ _______ _____ _____    ______ ____
ROOT
ATOM      1  C   UNL     1       1.503   8.647  19.808  0.00  0.00    +0.000 A 
ATOM      2  C   UNL     1       2.081   8.789  18.553  0.00  0.00    +0.000 A 
ATOM      3  C   UNL     1       2.761   7.716  17.977  0.00  0.00    +0.000 A 
ATOM      4  C   UNL     1       2.936   6.481  18.653  0.00  0.00    +0.000 A 
ATOM      5  C   UNL     1       3.701   5.384  18.152  0.00  0.00    +0.000 A 
ATOM      6  C   UNL     1       3.765   4.202  18.894  0.00  0.00    +0.000 A 
ATOM      7  C   UNL     1       3.084   4.135  20.092  0.00  0.00    +0.000 A 
ATOM      8  N   UNL     1       2.365   5.162  20.608  0.00  0.00    +0.000 NA
ATOM      9  C   UNL     1       2.304   6.316  19.909  0.00  0.00    +0.000 A 
ATOM     10  C   UNL     1       1.603   7.402  20.447  0.00  0.00    +0.000 A 
ATOM     11  F   UNL     1       1.001   7.257  21.643  0.00  0.00    +0.000 F 
ENDROOT
BRANCH   5  12
ATOM     12  C   UNL     1       4.474   5.456  16.911  0.00  0.00    +0.000 A 
ATOM     13  C   UNL     1       5.100   6.542  16.251  0.00  0.00    +0.000 A 
ATOM     14  N   UNL     1       5.728   6.181  15.131  0.00  0.00    +0.000 NA
ATOM     15  N   UNL     1       5.560   4.850  15.093  0.00  0.00    +0.000 N 
ATOM     16  C   UNL     1       6.173   4.076  14.040  0.00  0.00    +0.000 C 
ATOM     17  C   UNL     1       4.820   4.366  16.135  0.00  0.00    +0.000 A 
ENDBRANCH   5  12
BRANCH   7  18
ATOM     18  C   UNL     1       3.133   2.873  20.898  0.00  0.00    +0.000 C 
ATOM     19  N   UNL     1       2.128   2.707  21.811  0.00  0.00    +0.000 N 
ATOM     20  O   UNL     1       4.016   2.037  20.764  0.00  0.00    +0.000 OA
ATOM     21  H   UNL     1       1.412   3.421  21.907  0.00  0.00    +0.000 HD
ATOM     22  H   UNL     1       2.113   1.882  22.394  0.00  0.00    +0.000 HD
ENDBRANCH   7  18
BRANCH   1  23
ATOM     23  C   UNL     1       0.832   9.817  20.483  0.00  0.00    +0.000 C 
BRANCH  23  27
ATOM     24  C   UNL     1      -0.278  14.262  18.349  0.00  0.00    +0.000 C 
ATOM     25  C   UNL     1      -0.495  12.788  18.513  0.00  0.00    +0.000 A 
ATOM     26  C   UNL     1       0.294  12.037  19.378  0.00  0.00    +0.000 A 
ATOM     27  C   UNL     1       0.038  10.670  19.524  0.00  0.00    +0.000 A 
ATOM     28  C   UNL     1      -1.015  10.113  18.789  0.00  0.00    +0.000 A 
ATOM     29  C   UNL     1      -1.752  10.923  17.936  0.00  0.00    +0.000 A 
ATOM     30  C   UNL     1      -2.884  10.361  17.129  0.00  0.00    +0.000 C 
ATOM     31  N   UNL     1      -1.506  12.247  17.792  0.00  0.00    +0.000 NA
ENDBRANCH  23  27
ENDBRANCH   1  23
TORSDOF 4
ENDMDL
MODEL 4
REMARK VINA RESULT:      -9.3      1.050      1.153
REMARK  Name = 
REMARK  7 active torsions:
REMARK  status: ('A' for Active; 'I' for Inactive)
REMARK    1  A    between atoms: C_1  and  C_2
REMARK    2  A    between atoms: C_4  and  C_5
REMARK    3  A    between atoms: C_5  and  C_6
REMARK    4  A    between atoms: C_10  and  C_11
REMARK    5  A    between atoms: N_14  and  C_15
REMARK    6  A    between atoms: C_18  and  C_19
REMARK    7  A    between atoms: C_27  and  C_28
REMARK                            x       y       z     vdW  Elec       q    Type
REMARK                         _______ _______ _______ _____ _____    ______ ____
ROOT
ATOM      1  C   UNL     1       1.467   8.688  19.855  0.00  0.00    +0.000 A 
ATOM      2  C   UNL     1       2.053   8.828  18.603  0.00  0.00    +0.000 A 
ATOM      3  C   UNL     1       2.727   7.752  18.028  0.00  0.00    +0.000 A 
ATOM      4  C   UNL     1       2.888   6.513  18.702  0.00  0.00    +0.000 A 
ATOM      5  C   UNL     1       3.647   5.411  18.203  0.00  0.00    +0.000 A 
ATOM      6  C   UNL     1       3.696   4.227  18.943  0.00  0.00    +0.000 A 
ATOM      7  C   UNL     1       3.007   4.163  20.137  0.00  0.00    +0.000 A 
ATOM      8  N   UNL     1       2.294   5.194  20.651  0.00  0.00    +0.000 NA
ATOM      9  C   UNL     1       2.247   6.350  19.954  0.00  0.00    +0.000 A 
ATOM     10  C   UNL     1       1.551   7.441  20.491  0.00  0.00    +0.000 A 
ATOM     11  F   UNL     1       0.942   7.298  21.683  0.00  0.00    +0.000 F 
ENDROOT
BRANCH   5  12
ATOM     12  C   UNL     1       4.427   5.479  16.967  0.00  0.00    +0.000 A 
ATOM     13  C   UNL     1       5.054   6.564  16.306  0.00  0.00    +0.000 A 
ATOM     14  N   UNL     1       5.690   6.200  15.192  0.00  0.00    +0.000 NA
ATOM     15  N   UNL     1       5.527   4.868  15.159  0.00  0.00    +0.000 N 
ATOM     16  C   UNL     1       6.149   4.091  14.114  0.00  0.00    +0.000 C 
ATOM     17  C   UNL     1       4.782   4.387  16.198  0.00  0.00    +0.000 A 
ENDBRANCH   5  12
BRANCH   7  18
ATOM     18  C   UNL     1       3.041   2.898  20.940  0.00  0.00    +0.000 C 
ATOM     19  N   UNL     1       2.015   2.726  21.827  0.00  0.00    +0.000 N 
ATOM     20  O   UNL     1       3.930   2.066  20.825  0.00  0.00    +0.000 OA
ATOM     21  H   UNL     1       1.294   3.437  21.908  0.00  0.00    +0.000 HD
ATOM     22  H   UNL     1       1.989   1.900  22.407  0.00  0.00    +0.000 HD
ENDBRANCH   7  18
BRANCH   1  23
ATOM     23  C   UNL     1       0.801   9.862  20.528  0.00  0.00    +0.000 C 
BRANCH  23  27
ATOM     24  C   UNL     1      -2.794  10.343  17.007  0.00  0.00    +0.000 C 
ATOM     25  C   UNL     1      -1.733  10.920  17.895  0.00  0.00    +0.000 A 
ATOM     26  C   UNL     1      -1.029  10.119  18.788  0.00  0.00    +0.000 A 
ATOM     27  C   UNL     1      -0.027  10.692  19.577  0.00  0.00    +0.000 A 
ATOM     28  C   UNL     1       0.230  12.060  19.428  0.00  0.00    +0.000 A 
ATOM     29  C   UNL     1      -0.522  12.798  18.524  0.00  0.00    +0.000 A 
ATOM     30  C   UNL     1      -0.280  14.267  18.341  0.00  0.00    +0.000 C 
ATOM     31  N   UNL     1      -1.494  12.246  17.760  0.00  0.00    +0.000 NA
ENDBRANCH  23  27
ENDBRANCH   1  23
TORSDOF 4
ENDMDL
MODEL 5
REMARK VINA RESULT:      -8.8      3.138      8.389
REMARK  Name = 
REMARK  7 active torsions:
REMARK  status: ('A' for Active; 'I' for Inactive)
REMARK    1  A    between atoms: C_1  and  C_2
REMARK    2  A    between atoms: C_4  and  C_5
REMARK    3  A    between atoms: C_5  and  C_6
REMARK    4  A    between atoms: C_10  and  C_11
REMARK    5  A    between atoms: N_14  and  C_15
REMARK    6  A    between atoms: C_18  and  C_19
REMARK    7  A    between atoms: C_27  and  C_28
REMARK                            x       y       z     vdW  Elec       q    Type
REMARK                         _______ _______ _______ _____ _____    ______ ____
ROOT
ATOM      1  C   UNL     1       5.913   4.980  15.041  0.00  0.00    +0.000 A 
ATOM      2  C   UNL     1       5.555   6.305  15.257  0.00  0.00    +0.000 A 
ATOM      3  C   UNL     1       4.691   6.628  16.301  0.00  0.00    +0.000 A 
ATOM      4  C   UNL     1       4.108   5.638  17.135  0.00  0.00    +0.000 A 
ATOM      5  C   UNL     1       3.146   5.903  18.157  0.00  0.00    +0.000 A 
ATOM      6  C   UNL     1       2.677   4.846  18.941  0.00  0.00    +0.000 A 
ATOM      7  C   UNL     1       3.160   3.576  18.699  0.00  0.00    +0.000 A 
ATOM      8  N   UNL     1       4.057   3.285  17.726  0.00  0.00    +0.000 NA
ATOM      9  C   UNL     1       4.511   4.294  16.951  0.00  0.00    +0.000 A 
ATOM     10  C   UNL     1       5.406   4.005  15.912  0.00  0.00    +0.000 A 
ATOM     11  F   UNL     1       5.793   2.729  15.726  0.00  0.00    +0.000 F 
ENDROOT
BRANCH   5  12
ATOM     12  C   UNL     1       2.582   7.232  18.391  0.00  0.00    +0.000 A 
ATOM     13  C   UNL     1       2.390   8.341  17.530  0.00  0.00    +0.000 A 
ATOM     14  N   UNL     1       1.820   9.382  18.138  0.00  0.00    +0.000 NA
ATOM     15  N   UNL     1       1.587   8.931  19.381  0.00  0.00    +0.000 N 
ATOM     16  C   UNL     1       0.900   9.768  20.335  0.00  0.00    +0.000 C 
ATOM     17  C   UNL     1       2.021   7.651  19.583  0.00  0.00    +0.000 A 
ENDBRANCH   5  12
BRANCH   7  18
ATOM     18  C   UNL     1       2.675   2.432  19.535  0.00  0.00    +0.000 C 
ATOM     19  N   UNL     1       2.005   1.444  18.866  0.00  0.00    +0.000 N 
ATOM     20  O   UNL     1       2.852   2.375  20.744  0.00  0.00    +0.000 OA
ATOM     21  H   UNL     1       1.865   1.521  17.863  0.00  0.00    +0.000 HD
ATOM     22  H   UNL     1       1.642   0.652  19.376  0.00  0.00    +0.000 HD
ENDBRANCH   7  18
BRANCH   1  23
ATOM     23  C   UNL     1       6.784   4.599  13.869  0.00  0.00    +0.000 C 
BRANCH  23  27
ATOM     24  C   UNL     1       6.321   0.345  11.180  0.00  0.00    +0.000 C 
ATOM     25  C   UNL     1       5.851   1.711  11.576  0.00  0.00    +0.000 A 
ATOM     26  C   UNL     1       6.522   2.451  12.544  0.00  0.00    +0.000 A 
ATOM     27  C   UNL     1       6.066   3.734  12.861  0.00  0.00    +0.000 A 
ATOM     28  C   UNL     1       4.947   4.226  12.181  0.00  0.00    +0.000 A 
ATOM     29  C   UNL     1       4.321   3.424  11.234  0.00  0.00    +0.000 A 
ATOM     30  C   UNL     1       3.115   3.914  10.489  0.00  0.00    +0.000 C 
ATOM     31  N   UNL     1       4.760   2.181  10.926  0.00  0.00    +0.000 NA
ENDBRANCH  23  27
ENDBRANCH   1  23
TORSDOF 4
ENDMDL
MODEL 6
REMARK VINA RESULT:      -8.7      1.762      2.467
REMARK  Name = 
REMARK  7 active torsions:
REMARK  status: ('A' for Active; 'I' for Inactive)
REMARK    1  A    between atoms: C_1  and  C_2
REMARK    2  A    between atoms: C_4  and  C_5
REMARK    3  A    between atoms: C_5  and  C_6
REMARK    4  A    between atoms: C_10  and  C_11
REMARK    5  A    between atoms: N_14  and  C_15
REMARK    6  A    between atoms: C_18  and  C_19
REMARK    7  A    between atoms: C_27  and  C_28
REMARK                            x       y       z     vdW  Elec       q    Type
REMARK                         _______ _______ _______ _____ _____    ______ ____
ROOT
ATOM      1  C   UNL     1       2.201   7.736  19.331  0.00  0.00    +0.000 A 
ATOM      2  C   UNL     1       3.089   8.123  18.334  0.00  0.00    +0.000 A 
ATOM      3  C   UNL     1       3.776   7.155  17.603  0.00  0.00    +0.000 A 
ATOM      4  C   UNL     1       3.645   5.768  17.875  0.00  0.00    +0.000 A 
ATOM      5  C   UNL     1       4.394   4.741  17.224  0.00  0.00    +0.000 A 
ATOM      6  C   UNL     1       4.145   3.405  17.551  0.00  0.00    +0.000 A 
ATOM      7  C   UNL     1       3.181   3.123  18.497  0.00  0.00    +0.000 A 
ATOM      8  N   UNL     1       2.466   4.073  19.149  0.00  0.00    +0.000 NA
ATOM      9  C   UNL     1       2.704   5.369  18.854  0.00  0.00    +0.000 A 
ATOM     10  C   UNL     1       2.006   6.365  19.549  0.00  0.00    +0.000 A 
ATOM     11  F   UNL     1       1.111   5.996  20.485  0.00  0.00    +0.000 F 
ENDROOT
BRANCH   5  12
ATOM     12  C   UNL     1       5.457   5.022  16.259  0.00  0.00    +0.000 A 
ATOM     13  C   UNL     1       6.699   5.691  16.393  0.00  0.00    +0.000 A 
ATOM     14  N   UNL     1       7.399   5.725  15.259  0.00  0.00    +0.000 NA
ATOM     15  N   UNL     1       6.639   5.027  14.400  0.00  0.00    +0.000 N 
ATOM     16  C   UNL     1       7.109   4.781  13.058  0.00  0.00    +0.000 C 
ATOM     17  C   UNL     1       5.470   4.583  14.949  0.00  0.00    +0.000 A 
ENDBRANCH   5  12
BRANCH   7  18
ATOM     18  C   UNL     1       2.894   1.697  18.854  0.00  0.00    +0.000 C 
ATOM     19  N   UNL     1       3.855   0.788  18.505  0.00  0.00    +0.000 N 
ATOM     20  O   UNL     1       1.863   1.351  19.415  0.00  0.00    +0.000 OA
ATOM     21  H   UNL     1       4.698   1.103  18.033  0.00  0.00    +0.000 HD
ATOM     22  H   UNL     1       3.714  -0.191  18.708  0.00  0.00    +0.000 HD
ENDBRANCH   7  18
BRANCH   1  23
ATOM     23  C   UNL     1       1.507   8.767  20.185  0.00  0.00    +0.000 C 
BRANCH  23  27
ATOM     24  C   UNL     1       0.552  13.500  18.690  0.00  0.00    +0.000 C 
ATOM     25  C   UNL     1       0.270  12.029  18.667  0.00  0.00    +0.000 A 
ATOM     26  C   UNL     1       1.046  11.136  19.399  0.00  0.00    +0.000 A 
ATOM     27  C   UNL     1       0.729   9.774  19.373  0.00  0.00    +0.000 A 
ATOM     28  C   UNL     1      -0.369   9.365  18.607  0.00  0.00    +0.000 A 
ATOM     29  C   UNL     1      -1.090  10.313  17.893  0.00  0.00    +0.000 A 
ATOM     30  C   UNL     1      -2.269   9.913  17.057  0.00  0.00    +0.000 C 
ATOM     31  N   UNL     1      -0.784  11.632  17.916  0.00  0.00    +0.000 NA
ENDBRANCH  23  27
ENDBRANCH   1  23
TORSDOF 4
ENDMDL
MODEL 7
REMARK VINA RESULT:      -8.6      1.756      2.153
REMARK  Name = 
REMARK  7 active torsions:
REMARK  status: ('A' for Active; 'I' for Inactive)
REMARK    1  A    between atoms: C_1  and  C_2
REMARK    2  A    between atoms: C_4  and  C_5
REMARK    3  A    between atoms: C_5  and  C_6
REMARK    4  A    between atoms: C_10  and  C_11
REMARK    5  A    between atoms: N_14  and  C_15
REMARK    6  A    between atoms: C_18  and  C_19
REMARK    7  A    between atoms: C_27  and  C_28
REMARK                            x       y       z     vdW  Elec       q    Type
REMARK                         _______ _______ _______ _____ _____    ______ ____
ROOT
ATOM      1  C   UNL     1       2.178   7.730  19.399  0.00  0.00    +0.000 A 
ATOM      2  C   UNL     1       3.053   8.120  18.392  0.00  0.00    +0.000 A 
ATOM      3  C   UNL     1       3.736   7.154  17.655  0.00  0.00    +0.000 A 
ATOM      4  C   UNL     1       3.615   5.766  17.930  0.00  0.00    +0.000 A 
ATOM      5  C   UNL     1       4.361   4.742  17.272  0.00  0.00    +0.000 A 
ATOM      6  C   UNL     1       4.122   3.405  17.604  0.00  0.00    +0.000 A 
ATOM      7  C   UNL     1       3.169   3.121  18.560  0.00  0.00    +0.000 A 
ATOM      8  N   UNL     1       2.457   4.068  19.219  0.00  0.00    +0.000 NA
ATOM      9  C   UNL     1       2.686   5.365  18.919  0.00  0.00    +0.000 A 
ATOM     10  C   UNL     1       1.992   6.359  19.621  0.00  0.00    +0.000 A 
ATOM     11  F   UNL     1       1.108   5.987  20.567  0.00  0.00    +0.000 F 
ENDROOT
BRANCH   5  12
ATOM     12  C   UNL     1       5.413   5.027  16.296  0.00  0.00    +0.000 A 
ATOM     13  C   UNL     1       6.654   5.698  16.416  0.00  0.00    +0.000 A 
ATOM     14  N   UNL     1       7.342   5.735  15.274  0.00  0.00    +0.000 NA
ATOM     15  N   UNL     1       6.574   5.036  14.423  0.00  0.00    +0.000 N 
ATOM     16  C   UNL     1       7.028   4.792  13.076  0.00  0.00    +0.000 C 
ATOM     17  C   UNL     1       5.411   4.589  14.985  0.00  0.00    +0.000 A 
ENDBRANCH   5  12
BRANCH   7  18
ATOM     18  C   UNL     1       2.892   1.693  18.922  0.00  0.00    +0.000 C 
ATOM     19  N   UNL     1       3.855   0.789  18.565  0.00  0.00    +0.000 N 
ATOM     20  O   UNL     1       1.870   1.343  19.495  0.00  0.00    +0.000 OA
ATOM     21  H   UNL     1       4.690   1.106  18.083  0.00  0.00    +0.000 HD
ATOM     22  H   UNL     1       3.720  -0.191  18.770  0.00  0.00    +0.000 HD
ENDBRANCH   7  18
BRANCH   1  23
ATOM     23  C   UNL     1       1.488   8.759  20.259  0.00  0.00    +0.000 C 
BRANCH  23  27
ATOM     24  C   UNL     1      -2.160   9.942  16.966  0.00  0.00    +0.000 C 
ATOM     25  C   UNL     1      -1.036  10.324  17.881  0.00  0.00    +0.000 A 
ATOM     26  C   UNL     1      -0.366   9.366  18.637  0.00  0.00    +0.000 A 
ATOM     27  C   UNL     1       0.697   9.762  19.454  0.00  0.00    +0.000 A 
ATOM     28  C   UNL     1       1.048  11.116  19.473  0.00  0.00    +0.000 A 
ATOM     29  C   UNL     1       0.326  12.016  18.701  0.00  0.00    +0.000 A 
ATOM     30  C   UNL     1       0.669  13.476  18.699  0.00  0.00    +0.000 C 
ATOM     31  N   UNL     1      -0.705  11.636  17.909  0.00  0.00    +0.000 NA
ENDBRANCH  23  27
ENDBRANCH   1  23
TORSDOF 4
ENDMDL
MODEL 8
REMARK VINA RESULT:      -8.5      2.960      7.963
REMARK  Name = 
REMARK  7 active torsions:
REMARK  status: ('A' for Active; 'I' for Inactive)
REMARK    1  A    between atoms: C_1  and  C_2
REMARK    2  A    between atoms: C_4  and  C_5
REMARK    3  A    between atoms: C_5  and  C_6
REMARK    4  A    between atoms: C_10  and  C_11
REMARK    5  A    between atoms: N_14  and  C_15
REMARK    6  A    between atoms: C_18  and  C_19
REMARK    7  A    between atoms: C_27  and  C_28
REMARK                            x       y       z     vdW  Elec       q    Type
REMARK                         _______ _______ _______ _____ _____    ______ ____
ROOT
ATOM      1  C   UNL     1       2.486   6.993  18.429  0.00  0.00    +0.000 A 
ATOM      2  C   UNL     1       2.669   8.132  17.655  0.00  0.00    +0.000 A 
ATOM      3  C   UNL     1       2.296   9.378  18.157  0.00  0.00    +0.000 A 
ATOM      4  C   UNL     1       1.678   9.529  19.426  0.00  0.00    +0.000 A 
ATOM      5  C   UNL     1       1.191  10.765  19.948  0.00  0.00    +0.000 A 
ATOM      6  C   UNL     1       0.637  10.792  21.231  0.00  0.00    +0.000 A 
ATOM      7  C   UNL     1       0.579   9.617  21.952  0.00  0.00    +0.000 A 
ATOM      8  N   UNL     1       1.013   8.423  21.480  0.00  0.00    +0.000 NA
ATOM      9  C   UNL     1       1.539   8.378  20.237  0.00  0.00    +0.000 A 
ATOM     10  C   UNL     1       1.952   7.144  19.716  0.00  0.00    +0.000 A 
ATOM     11  F   UNL     1       1.820   6.042  20.479  0.00  0.00    +0.000 F 
ENDROOT
BRANCH   5  12
ATOM     12  C   UNL     1       1.194  12.010  19.178  0.00  0.00    +0.000 A 
ATOM     13  C   UNL     1       0.160  12.702  18.501  0.00  0.00    +0.000 A 
ATOM     14  N   UNL     1       0.577  13.828  17.921  0.00  0.00    +0.000 NA
ATOM     15  N   UNL     1       1.871  13.899  18.270  0.00  0.00    +0.000 N 
ATOM     16  C   UNL     1       2.661  15.042  17.881  0.00  0.00    +0.000 C 
ATOM     17  C   UNL     1       2.289  12.838  19.024  0.00  0.00    +0.000 A 
ENDBRANCH   5  12
BRANCH   7  18
ATOM     18  C   UNL     1      -0.002   9.628  23.333  0.00  0.00    +0.000 C 
ATOM     19  N   UNL     1      -1.315  10.003  23.425  0.00  0.00    +0.000 N 
ATOM     20  O   UNL     1       0.647   9.330  24.325  0.00  0.00    +0.000 OA
ATOM     21  H   UNL     1      -1.828  10.253  22.585  0.00  0.00    +0.000 HD
ATOM     22  H   UNL     1      -1.760  10.042  24.331  0.00  0.00    +0.000 HD
ENDBRANCH   7  18
BRANCH   1  23
ATOM     23  C   UNL     1       2.810   5.627  17.876  0.00  0.00    +0.000 C 
BRANCH  23  27
ATOM     24  C   UNL     1       7.635   5.737  19.377  0.00  0.00    +0.000 C 
ATOM     25  C   UNL     1       6.584   5.490  18.339  0.00  0.00    +0.000 A 
ATOM     26  C   UNL     1       5.233   5.642  18.633  0.00  0.00    +0.000 A 
ATOM     27  C   UNL     1       4.286   5.431  17.626  0.00  0.00    +0.000 A 
ATOM     28  C   UNL     1       4.744   5.076  16.351  0.00  0.00    +0.000 A 
ATOM     29  C   UNL     1       6.108   4.931  16.136  0.00  0.00    +0.000 A 
ATOM     30  C   UNL     1       6.636   4.547  14.786  0.00  0.00    +0.000 C 
ATOM     31  N   UNL     1       7.026   5.134  17.109  0.00  0.00    +0.000 NA
ENDBRANCH  23  27
ENDBRANCH   1  23
TORSDOF 4
ENDMDL
MODEL 9
REMARK VINA RESULT:      -8.5      2.956      7.858
REMARK  Name = 
REMARK  7 active torsions:
REMARK  status: ('A' for Active; 'I' for Inactive)
REMARK    1  A    between atoms: C_1  and  C_2
REMARK    2  A    between atoms: C_4  and  C_5
REMARK    3  A    between atoms: C_5  and  C_6
REMARK    4  A    between atoms: C_10  and  C_11
REMARK    5  A    between atoms: N_14  and  C_15
REMARK    6  A    between atoms: C_18  and  C_19
REMARK    7  A    between atoms: C_27  and  C_28
REMARK                            x       y       z     vdW  Elec       q    Type
REMARK                         _______ _______ _______ _____ _____    ______ ____
ROOT
ATOM      1  C   UNL     1       2.510   7.013  18.436  0.00  0.00    +0.000 A 
ATOM      2  C   UNL     1       2.673   8.155  17.661  0.00  0.00    +0.000 A 
ATOM      3  C   UNL     1       2.288   9.396  18.167  0.00  0.00    +0.000 A 
ATOM      4  C   UNL     1       1.676   9.538  19.440  0.00  0.00    +0.000 A 
ATOM      5  C   UNL     1       1.177  10.768  19.966  0.00  0.00    +0.000 A 
ATOM      6  C   UNL     1       0.632  10.787  21.253  0.00  0.00    +0.000 A 
ATOM      7  C   UNL     1       0.594   9.611  21.973  0.00  0.00    +0.000 A 
ATOM      8  N   UNL     1       1.040   8.422  21.498  0.00  0.00    +0.000 NA
ATOM      9  C   UNL     1       1.557   8.385  20.251  0.00  0.00    +0.000 A 
ATOM     10  C   UNL     1       1.982   7.157  19.727  0.00  0.00    +0.000 A 
ATOM     11  F   UNL     1       1.870   6.053  20.490  0.00  0.00    +0.000 F 
ENDROOT
BRANCH   5  12
ATOM     12  C   UNL     1       1.159  12.013  19.197  0.00  0.00    +0.000 A 
ATOM     13  C   UNL     1       0.122  12.669  18.490  0.00  0.00    +0.000 A 
ATOM     14  N   UNL     1       0.516  13.810  17.923  0.00  0.00    +0.000 NA
ATOM     15  N   UNL     1       1.797  13.926  18.310  0.00  0.00    +0.000 N 
ATOM     16  C   UNL     1       2.557  15.096  17.944  0.00  0.00    +0.000 C 
ATOM     17  C   UNL     1       2.229  12.879  19.075  0.00  0.00    +0.000 A 
ENDBRANCH   5  12
BRANCH   7  18
ATOM     18  C   UNL     1       0.021   9.613  23.358  0.00  0.00    +0.000 C 
ATOM     19  N   UNL     1      -1.298   9.962  23.459  0.00  0.00    +0.000 N 
ATOM     20  O   UNL     1       0.683   9.331  24.347  0.00  0.00    +0.000 OA
ATOM     21  H   UNL     1      -1.821  10.200  22.622  0.00  0.00    +0.000 HD
ATOM     22  H   UNL     1      -1.737   9.995  24.367  0.00  0.00    +0.000 HD
ENDBRANCH   7  18
BRANCH   1  23
ATOM     23  C   UNL     1       2.847   5.652  17.880  0.00  0.00    +0.000 C 
BRANCH  23  27
ATOM     24  C   UNL     1       6.667   4.434  14.802  0.00  0.00    +0.000 C 
ATOM     25  C   UNL     1       6.137   4.899  16.124  0.00  0.00    +0.000 A 
ATOM     26  C   UNL     1       4.773   5.080  16.329  0.00  0.00    +0.000 A 
ATOM     27  C   UNL     1       4.319   5.486  17.588  0.00  0.00    +0.000 A 
ATOM     28  C   UNL     1       5.266   5.691  18.598  0.00  0.00    +0.000 A 
ATOM     29  C   UNL     1       6.612   5.502  18.315  0.00  0.00    +0.000 A 
ATOM     30  C   UNL     1       7.657   5.717  19.370  0.00  0.00    +0.000 C 
ATOM     31  N   UNL     1       7.055   5.109  17.097  0.00  0.00    +0.000 NA
ENDBRANCH  23  27
ENDBRANCH   1  23
TORSDOF 4
ENDMDL
