MODEL 1
REMARK VINA RESULT:      -8.0      0.000      0.000
REMARK  Name = 
REMARK  2 active torsions:
REMARK  status: ('A' for Active; 'I' for Inactive)
REMARK    1  A    between atoms: N_3  and  C_4
REMARK    2  A    between atoms: C_4  and  C_5
REMARK                            x       y       z     vdW  Elec       q    Type
REMARK                         _______ _______ _______ _____ _____    ______ ____
ROOT
ATOM      1  C   UNL     1       6.292   5.273  19.170  0.00  0.00    +0.000 C 
ATOM      2  C   UNL     1       6.217   5.215  17.665  0.00  0.00    +0.000 C 
ATOM      3  N   UNL     1       4.808   4.950  17.290  0.00  0.00    +0.000 NA
ATOM      4  C   UNL     1       4.051   4.571  18.537  0.00  0.00    +0.000 C 
ATOM      5  C   UNL     1       4.854   5.402  19.580  0.00  0.00    +0.000 C 
ATOM      6  C   UNL     1       3.985   3.031  18.885  0.00  0.00    +0.000 C 
ATOM      7  C   UNL     1       3.400   2.816  20.305  0.00  0.00    +0.000 C 
ATOM      8  C   UNL     1       1.976   3.399  20.394  0.00  0.00    +0.000 C 
ATOM      9  C   UNL     1       1.063   2.656  19.404  0.00  0.00    +0.000 C 
ATOM     10  C   UNL     1       1.614   2.826  17.980  0.00  0.00    +0.000 C 
ATOM     11  C   UNL     1       3.031   2.234  17.949  0.00  0.00    +0.000 C 
ATOM     12  C   UNL     1       1.641   4.324  17.623  0.00  0.00    +0.000 C 
ATOM     13  C   UNL     1       2.566   5.089  18.585  0.00  0.00    +0.000 C 
ATOM     14  C   UNL     1       1.983   4.890  20.015  0.00  0.00    +0.000 C 
ENDROOT
BRANCH   3  15
ATOM     15  C   UNL     1       4.764   4.037  16.147  0.00  0.00    +0.000 C 
BRANCH  15  16
ATOM     16  C   UNL     1       6.052   3.895  15.372  0.00  0.00    +0.000 C 
ATOM     17  C   UNL     1       5.934   3.738  13.871  0.00  0.00    +0.000 C 
ATOM     18  C   UNL     1       6.553   4.978  14.446  0.00  0.00    +0.000 C 
ENDBRANCH  15  16
ENDBRANCH   3  15
TORSDOF 2
ENDMDL
MODEL 2
REMARK VINA RESULT:      -7.8      1.504      2.635
REMARK  Name = 
REMARK  2 active torsions:
REMARK  status: ('A' for Active; 'I' for Inactive)
REMARK    1  A    between atoms: N_3  and  C_4
REMARK    2  A    between atoms: C_4  and  C_5
REMARK                            x       y       z     vdW  Elec       q    Type
REMARK                         _______ _______ _______ _____ _____    ______ ____
ROOT
ATOM      1  C   UNL     1       3.240   7.373  17.910  0.00  0.00    +0.000 C 
ATOM      2  C   UNL     1       4.398   6.755  17.168  0.00  0.00    +0.000 C 
ATOM      3  N   UNL     1       4.189   5.288  17.138  0.00  0.00    +0.000 NA
ATOM      4  C   UNL     1       3.062   4.953  18.082  0.00  0.00    +0.000 C 
ATOM      5  C   UNL     1       2.231   6.263  17.956  0.00  0.00    +0.000 C 
ATOM      6  C   UNL     1       3.465   4.613  19.572  0.00  0.00    +0.000 C 
ATOM      7  C   UNL     1       2.206   4.537  20.474  0.00  0.00    +0.000 C 
ATOM      8  C   UNL     1       1.245   3.445  19.965  0.00  0.00    +0.000 C 
ATOM      9  C   UNL     1       1.946   2.078  20.040  0.00  0.00    +0.000 C 
ATOM     10  C   UNL     1       3.214   2.110  19.173  0.00  0.00    +0.000 C 
ATOM     11  C   UNL     1       4.132   3.214  19.720  0.00  0.00    +0.000 C 
ATOM     12  C   UNL     1       2.821   2.402  17.713  0.00  0.00    +0.000 C 
ATOM     13  C   UNL     1       2.135   3.775  17.605  0.00  0.00    +0.000 C 
ATOM     14  C   UNL     1       0.862   3.708  18.499  0.00  0.00    +0.000 C 
ENDROOT
BRANCH   3  15
ATOM     15  C   UNL     1       5.469   4.602  17.314  0.00  0.00    +0.000 C 
BRANCH  15  16
ATOM     16  C   UNL     1       6.633   5.478  17.708  0.00  0.00    +0.000 C 
ATOM     17  C   UNL     1       6.988   5.524  19.178  0.00  0.00    +0.000 C 
ATOM     18  C   UNL     1       7.939   4.901  18.200  0.00  0.00    +0.000 C 
ENDBRANCH  15  16
ENDBRANCH   3  15
TORSDOF 2
ENDMDL
MODEL 3
REMARK VINA RESULT:      -7.8      1.292      2.137
REMARK  Name = 
REMARK  2 active torsions:
REMARK  status: ('A' for Active; 'I' for Inactive)
REMARK    1  A    between atoms: N_3  and  C_4
REMARK    2  A    between atoms: C_4  and  C_5
REMARK                            x       y       z     vdW  Elec       q    Type
REMARK                         _______ _______ _______ _____ _____    ______ ____
ROOT
ATOM      1  C   UNL     1       2.971   7.622  18.107  0.00  0.00    +0.000 C 
ATOM      2  C   UNL     1       4.197   7.214  17.329  0.00  0.00    +0.000 C 
ATOM      3  N   UNL     1       4.177   5.740  17.189  0.00  0.00    +0.000 NA
ATOM      4  C   UNL     1       3.105   5.193  18.097  0.00  0.00    +0.000 C 
ATOM      5  C   UNL     1       2.112   6.392  18.063  0.00  0.00    +0.000 C 
ATOM      6  C   UNL     1       3.552   4.797  19.561  0.00  0.00    +0.000 C 
ATOM      7  C   UNL     1       2.315   4.494  20.446  0.00  0.00    +0.000 C 
ATOM      8  C   UNL     1       1.501   3.329  19.851  0.00  0.00    +0.000 C 
ATOM      9  C   UNL     1       2.372   2.062  19.829  0.00  0.00    +0.000 C 
ATOM     10  C   UNL     1       3.623   2.320  18.975  0.00  0.00    +0.000 C 
ATOM     11  C   UNL     1       4.393   3.489  19.609  0.00  0.00    +0.000 C 
ATOM     12  C   UNL     1       3.192   2.667  17.539  0.00  0.00    +0.000 C 
ATOM     13  C   UNL     1       2.335   3.946  17.528  0.00  0.00    +0.000 C 
ATOM     14  C   UNL     1       1.084   3.650  18.405  0.00  0.00    +0.000 C 
ENDROOT
BRANCH   3  15
ATOM     15  C   UNL     1       5.535   5.212  17.322  0.00  0.00    +0.000 C 
BRANCH  15  16
ATOM     16  C   UNL     1       6.287   5.005  16.029  0.00  0.00    +0.000 C 
ATOM     17  C   UNL     1       6.162   3.646  15.374  0.00  0.00    +0.000 C 
ATOM     18  C   UNL     1       5.576   4.854  14.705  0.00  0.00    +0.000 C 
ENDBRANCH  15  16
ENDBRANCH   3  15
TORSDOF 2
ENDMDL
MODEL 4
REMARK VINA RESULT:      -7.7      1.031      1.169
REMARK  Name = 
REMARK  2 active torsions:
REMARK  status: ('A' for Active; 'I' for Inactive)
REMARK    1  A    between atoms: N_3  and  C_4
REMARK    2  A    between atoms: C_4  and  C_5
REMARK                            x       y       z     vdW  Elec       q    Type
REMARK                         _______ _______ _______ _____ _____    ______ ____
ROOT
ATOM      1  C   UNL     1       7.320   5.151  18.641  0.00  0.00    +0.000 C 
ATOM      2  C   UNL     1       7.062   5.615  17.230  0.00  0.00    +0.000 C 
ATOM      3  N   UNL     1       5.598   5.773  17.063  0.00  0.00    +0.000 NA
ATOM      4  C   UNL     1       4.918   5.155  18.258  0.00  0.00    +0.000 C 
ATOM      5  C   UNL     1       6.014   5.414  19.332  0.00  0.00    +0.000 C 
ATOM      6  C   UNL     1       4.515   3.632  18.134  0.00  0.00    +0.000 C 
ATOM      7  C   UNL     1       4.061   3.074  19.508  0.00  0.00    +0.000 C 
ATOM      8  C   UNL     1       2.844   3.861  20.032  0.00  0.00    +0.000 C 
ATOM      9  C   UNL     1       1.670   3.686  19.055  0.00  0.00    +0.000 C 
ATOM     10  C   UNL     1       2.079   4.211  17.670  0.00  0.00    +0.000 C 
ATOM     11  C   UNL     1       3.294   3.397  17.199  0.00  0.00    +0.000 C 
ATOM     12  C   UNL     1       2.434   5.705  17.780  0.00  0.00    +0.000 C 
ATOM     13  C   UNL     1       3.622   5.907  18.736  0.00  0.00    +0.000 C 
ATOM     14  C   UNL     1       3.174   5.361  20.124  0.00  0.00    +0.000 C 
ENDROOT
BRANCH   3  15
ATOM     15  C   UNL     1       5.201   5.323  15.728  0.00  0.00    +0.000 C 
BRANCH  15  16
ATOM     16  C   UNL     1       6.159   4.379  15.044  0.00  0.00    +0.000 C 
ATOM     17  C   UNL     1       5.763   3.877  13.671  0.00  0.00    +0.000 C 
ATOM     18  C   UNL     1       6.948   4.785  13.821  0.00  0.00    +0.000 C 
ENDBRANCH  15  16
ENDBRANCH   3  15
TORSDOF 2
ENDMDL
MODEL 5
REMARK VINA RESULT:      -7.6      1.871      3.637
REMARK  Name = 
REMARK  2 active torsions:
REMARK  status: ('A' for Active; 'I' for Inactive)
REMARK    1  A    between atoms: N_3  and  C_4
REMARK    2  A    between atoms: C_4  and  C_5
REMARK                            x       y       z     vdW  Elec       q    Type
REMARK                         _______ _______ _______ _____ _____    ______ ____
ROOT
ATOM      1  C   UNL     1       5.754   5.054  16.664  0.00  0.00    +0.000 C 
ATOM      2  C   UNL     1       5.029   6.365  16.838  0.00  0.00    +0.000 C 
ATOM      3  N   UNL     1       4.028   6.193  17.916  0.00  0.00    +0.000 NA
ATOM      4  C   UNL     1       3.925   4.723  18.234  0.00  0.00    +0.000 C 
ATOM      5  C   UNL     1       5.384   4.292  17.903  0.00  0.00    +0.000 C 
ATOM      6  C   UNL     1       2.837   3.901  17.435  0.00  0.00    +0.000 C 
ATOM      7  C   UNL     1       3.015   2.379  17.679  0.00  0.00    +0.000 C 
ATOM      8  C   UNL     1       2.870   2.055  19.179  0.00  0.00    +0.000 C 
ATOM      9  C   UNL     1       1.453   2.432  19.643  0.00  0.00    +0.000 C 
ATOM     10  C   UNL     1       1.223   3.932  19.405  0.00  0.00    +0.000 C 
ATOM     11  C   UNL     1       1.383   4.200  17.900  0.00  0.00    +0.000 C 
ATOM     12  C   UNL     1       2.257   4.738  20.213  0.00  0.00    +0.000 C 
ATOM     13  C   UNL     1       3.685   4.396  19.753  0.00  0.00    +0.000 C 
ATOM     14  C   UNL     1       3.879   2.871  20.004  0.00  0.00    +0.000 C 
ENDROOT
BRANCH   3  15
ATOM     15  C   UNL     1       2.803   6.917  17.574  0.00  0.00    +0.000 C 
BRANCH  15  16
ATOM     16  C   UNL     1       2.678   8.304  18.157  0.00  0.00    +0.000 C 
ATOM     17  C   UNL     1       1.425   9.081  17.812  0.00  0.00    +0.000 C 
ATOM     18  C   UNL     1       1.662   8.635  19.224  0.00  0.00    +0.000 C 
ENDBRANCH  15  16
ENDBRANCH   3  15
TORSDOF 2
ENDMDL
MODEL 6
REMARK VINA RESULT:      -7.3      1.803      4.161
REMARK  Name = 
REMARK  2 active torsions:
REMARK  status: ('A' for Active; 'I' for Inactive)
REMARK    1  A    between atoms: N_3  and  C_4
REMARK    2  A    between atoms: C_4  and  C_5
REMARK                            x       y       z     vdW  Elec       q    Type
REMARK                         _______ _______ _______ _____ _____    ______ ____
ROOT
ATOM      1  C   UNL     1       5.041   5.665  16.437  0.00  0.00    +0.000 C 
ATOM      2  C   UNL     1       4.386   6.817  17.157  0.00  0.00    +0.000 C 
ATOM      3  N   UNL     1       3.718   6.278  18.364  0.00  0.00    +0.000 NA
ATOM      4  C   UNL     1       3.711   4.774  18.268  0.00  0.00    +0.000 C 
ATOM      5  C   UNL     1       5.027   4.568  17.461  0.00  0.00    +0.000 C 
ATOM      6  C   UNL     1       2.450   4.114  17.582  0.00  0.00    +0.000 C 
ATOM      7  C   UNL     1       2.693   2.603  17.330  0.00  0.00    +0.000 C 
ATOM      8  C   UNL     1       2.964   1.874  18.660  0.00  0.00    +0.000 C 
ATOM      9  C   UNL     1       1.727   1.995  19.565  0.00  0.00    +0.000 C 
ATOM     10  C   UNL     1       1.435   3.480  19.829  0.00  0.00    +0.000 C 
ATOM     11  C   UNL     1       1.176   4.157  18.475  0.00  0.00    +0.000 C 
ATOM     12  C   UNL     1       2.646   4.116  20.534  0.00  0.00    +0.000 C 
ATOM     13  C   UNL     1       3.896   4.028  19.641  0.00  0.00    +0.000 C 
ATOM     14  C   UNL     1       4.158   2.514  19.390  0.00  0.00    +0.000 C 
ENDROOT
BRANCH   3  15
ATOM     15  C   UNL     1       2.443   6.966  18.572  0.00  0.00    +0.000 C 
BRANCH  15  16
ATOM     16  C   UNL     1       2.327   7.755  19.854  0.00  0.00    +0.000 C 
ATOM     17  C   UNL     1       1.195   8.756  19.941  0.00  0.00    +0.000 C 
ATOM     18  C   UNL     1       1.189   7.544  20.824  0.00  0.00    +0.000 C 
ENDBRANCH  15  16
ENDBRANCH   3  15
TORSDOF 2
ENDMDL
MODEL 7
REMARK VINA RESULT:      -7.1      1.686      2.964
REMARK  Name = 
REMARK  2 active torsions:
REMARK  status: ('A' for Active; 'I' for Inactive)
REMARK    1  A    between atoms: N_3  and  C_4
REMARK    2  A    between atoms: C_4  and  C_5
REMARK                            x       y       z     vdW  Elec       q    Type
REMARK                         _______ _______ _______ _____ _____    ______ ____
ROOT
ATOM      1  C   UNL     1       1.485   6.545  20.784  0.00  0.00    +0.000 C 
ATOM      2  C   UNL     1       2.436   7.204  19.817  0.00  0.00    +0.000 C 
ATOM      3  N   UNL     1       2.779   6.214  18.769  0.00  0.00    +0.000 NA
ATOM      4  C   UNL     1       2.275   4.864  19.212  0.00  0.00    +0.000 C 
ATOM      5  C   UNL     1       1.039   5.318  20.043  0.00  0.00    +0.000 C 
ATOM      6  C   UNL     1       3.283   3.968  20.036  0.00  0.00    +0.000 C 
ATOM      7  C   UNL     1       2.557   2.735  20.632  0.00  0.00    +0.000 C 
ATOM      8  C   UNL     1       1.945   1.876  19.507  0.00  0.00    +0.000 C 
ATOM      9  C   UNL     1       3.072   1.352  18.601  0.00  0.00    +0.000 C 
ATOM     10  C   UNL     1       3.834   2.542  17.999  0.00  0.00    +0.000 C 
ATOM     11  C   UNL     1       4.418   3.363  19.160  0.00  0.00    +0.000 C 
ATOM     12  C   UNL     1       2.863   3.395  17.164  0.00  0.00    +0.000 C 
ATOM     13  C   UNL     1       1.736   3.951  18.050  0.00  0.00    +0.000 C 
ATOM     14  C   UNL     1       0.990   2.721  18.646  0.00  0.00    +0.000 C 
ENDROOT
BRANCH   3  15
ATOM     15  C   UNL     1       4.191   6.344  18.409  0.00  0.00    +0.000 C 
BRANCH  15  16
ATOM     16  C   UNL     1       4.468   6.732  16.977  0.00  0.00    +0.000 C 
ATOM     17  C   UNL     1       5.919   6.907  16.583  0.00  0.00    +0.000 C 
ATOM     18  C   UNL     1       5.119   5.781  16.000  0.00  0.00    +0.000 C 
ENDBRANCH  15  16
ENDBRANCH   3  15
TORSDOF 2
ENDMDL
MODEL 8
REMARK VINA RESULT:      -7.1      1.346      3.332
REMARK  Name = 
REMARK  2 active torsions:
REMARK  status: ('A' for Active; 'I' for Inactive)
REMARK    1  A    between atoms: N_3  and  C_4
REMARK    2  A    between atoms: C_4  and  C_5
REMARK                            x       y       z     vdW  Elec       q    Type
REMARK                         _______ _______ _______ _____ _____    ______ ____
ROOT
ATOM      1  C   UNL     1       5.147   4.007  15.458  0.00  0.00    +0.000 C 
ATOM      2  C   UNL     1       6.267   4.506  16.335  0.00  0.00    +0.000 C 
ATOM      3  N   UNL     1       5.834   4.376  17.746  0.00  0.00    +0.000 NA
ATOM      4  C   UNL     1       4.361   4.060  17.760  0.00  0.00    +0.000 C 
ATOM      5  C   UNL     1       4.260   3.272  16.421  0.00  0.00    +0.000 C 
ATOM      6  C   UNL     1       3.373   5.291  17.833  0.00  0.00    +0.000 C 
ATOM      7  C   UNL     1       1.911   4.835  17.588  0.00  0.00    +0.000 C 
ATOM      8  C   UNL     1       1.486   3.803  18.651  0.00  0.00    +0.000 C 
ATOM      9  C   UNL     1       1.535   4.458  20.041  0.00  0.00    +0.000 C 
ATOM     10  C   UNL     1       2.965   4.944  20.322  0.00  0.00    +0.000 C 
ATOM     11  C   UNL     1       3.338   5.964  19.236  0.00  0.00    +0.000 C 
ATOM     12  C   UNL     1       3.924   3.740  20.291  0.00  0.00    +0.000 C 
ATOM     13  C   UNL     1       3.911   3.077  18.903  0.00  0.00    +0.000 C 
ATOM     14  C   UNL     1       2.449   2.604  18.650  0.00  0.00    +0.000 C 
ENDROOT
BRANCH   3  15
ATOM     15  C   UNL     1       6.304   5.528  18.517  0.00  0.00    +0.000 C 
BRANCH  15  16
ATOM     16  C   UNL     1       7.502   6.251  17.949  0.00  0.00    +0.000 C 
ATOM     17  C   UNL     1       7.311   7.705  17.578  0.00  0.00    +0.000 C 
ATOM     18  C   UNL     1       8.218   7.338  18.715  0.00  0.00    +0.000 C 
ENDBRANCH  15  16
ENDBRANCH   3  15
TORSDOF 2
ENDMDL
MODEL 9
REMARK VINA RESULT:      -6.8      1.876      5.294
REMARK  Name = 
REMARK  2 active torsions:
REMARK  status: ('A' for Active; 'I' for Inactive)
REMARK    1  A    between atoms: N_3  and  C_4
REMARK    2  A    between atoms: C_4  and  C_5
REMARK                            x       y       z     vdW  Elec       q    Type
REMARK                         _______ _______ _______ _____ _____    ______ ____
ROOT
ATOM      1  C   UNL     1       2.330   7.579  17.906  0.00  0.00    +0.000 C 
ATOM      2  C   UNL     1       2.205   6.727  19.144  0.00  0.00    +0.000 C 
ATOM      3  N   UNL     1       3.506   6.056  19.369  0.00  0.00    +0.000 NA
ATOM      4  C   UNL     1       4.360   6.258  18.143  0.00  0.00    +0.000 C 
ATOM      5  C   UNL     1       3.813   7.642  17.683  0.00  0.00    +0.000 C 
ATOM      6  C   UNL     1       4.265   5.148  17.023  0.00  0.00    +0.000 C 
ATOM      7  C   UNL     1       4.992   5.609  15.733  0.00  0.00    +0.000 C 
ATOM      8  C   UNL     1       6.480   5.884  16.025  0.00  0.00    +0.000 C 
ATOM      9  C   UNL     1       7.153   4.582  16.491  0.00  0.00    +0.000 C 
ATOM     10  C   UNL     1       6.453   4.075  17.761  0.00  0.00    +0.000 C 
ATOM     11  C   UNL     1       4.978   3.822  17.416  0.00  0.00    +0.000 C 
ATOM     12  C   UNL     1       6.578   5.139  18.867  0.00  0.00    +0.000 C 
ATOM     13  C   UNL     1       5.893   6.447  18.436  0.00  0.00    +0.000 C 
ATOM     14  C   UNL     1       6.623   6.927  17.147  0.00  0.00    +0.000 C 
ENDROOT
BRANCH   3  15
ATOM     15  C   UNL     1       3.283   4.689  19.841  0.00  0.00    +0.000 C 
BRANCH  15  16
ATOM     16  C   UNL     1       2.094   4.497  20.752  0.00  0.00    +0.000 C 
ATOM     17  C   UNL     1       1.081   3.449  20.344  0.00  0.00    +0.000 C 
ATOM     18  C   UNL     1       1.911   3.245  21.576  0.00  0.00    +0.000 C 
ENDBRANCH  15  16
ENDBRANCH   3  15
TORSDOF 2
ENDMDL
