MODEL 1
REMARK VINA RESULT:      -7.0      0.000      0.000
REMARK  Name = 
REMARK  12 active torsions:
REMARK  status: ('A' for Active; 'I' for Inactive)
REMARK    1  A    between atoms: C_1  and  C_2
REMARK    2  A    between atoms: C_2  and  C_3
REMARK    3  A    between atoms: C_4  and  C_5
REMARK    4  A    between atoms: C_5  and  O_7
REMARK    5  A    between atoms: O_7  and  C_8
REMARK    6  A    between atoms: C_9  and  O_10
REMARK    7  A    between atoms: C_12  and  C_13
REMARK    8  A    between atoms: C_18  and  O_19
REMARK    9  A    between atoms: C_24  and  O_25
REMARK   10  A    between atoms: C_27  and  C_28
REMARK   11  A    between atoms: C_31  and  O_32
REMARK   12  A    between atoms: C_33  and  O_34
REMARK                            x       y       z     vdW  Elec       q    Type
REMARK                         _______ _______ _______ _____ _____    ______ ____
ROOT
ATOM      1  C   UNL     1      -1.874  12.314  19.825  0.00  0.00    +0.000 C 
ATOM      2  C   UNL     1      -2.987  12.641  20.812  0.00  0.00    +0.000 A 
ATOM      3  C   UNL     1      -4.093  13.392  20.375  0.00  0.00    +0.000 A 
ATOM      4  C   UNL     1      -5.054  13.830  21.282  0.00  0.00    +0.000 A 
ATOM      5  C   UNL     1      -4.942  13.493  22.630  0.00  0.00    +0.000 A 
ATOM      6  C   UNL     1      -3.861  12.725  23.072  0.00  0.00    +0.000 A 
ATOM      7  C   UNL     1      -2.865  12.314  22.177  0.00  0.00    +0.000 A 
ATOM      8  C   UNL     1      -1.649  11.569  22.629  0.00  0.00    +0.000 C 
ATOM      9  O   UNL     1      -1.314  11.484  23.808  0.00  0.00    +0.000 OA
ATOM     10  C   UNL     1      -0.811  10.883  21.618  0.00  0.00    +0.000 A 
ATOM     11  C   UNL     1       0.233  10.032  22.005  0.00  0.00    +0.000 A 
ATOM     12  C   UNL     1       1.018   9.388  21.051  0.00  0.00    +0.000 A 
ATOM     13  C   UNL     1       0.716   9.520  19.693  0.00  0.00    +0.000 A 
ATOM     14  C   UNL     1       1.640   8.966  18.646  0.00  0.00    +0.000 C 
ATOM     15  C   UNL     1      -0.374  10.320  19.310  0.00  0.00    +0.000 A 
ATOM     16  C   UNL     1      -1.059  11.104  20.257  0.00  0.00    +0.000 A 
ENDROOT
BRANCH   1  20
ATOM     17  C   UNL     1       1.966  13.608  19.892  0.00  0.00    +0.000 C 
ATOM     18  C   UNL     1       1.013  14.519  20.705  0.00  0.00    +0.000 C 
ATOM     19  O   UNL     1      -0.236  13.845  20.857  0.00  0.00    +0.000 OA
ATOM     20  C   UNL     1      -0.986  13.608  19.648  0.00  0.00    +0.000 C 
ATOM     21  C   UNL     1      -0.118  13.635  18.374  0.00  0.00    +0.000 C 
ATOM     22  C   UNL     1       1.294  13.073  18.606  0.00  0.00    +0.000 C 
BRANCH  18  23
ATOM     23  O   UNL     1       0.799  15.823  20.192  0.00  0.00    +0.000 OA
ATOM     24  H   UNL     1       1.068  15.853  19.254  0.00  0.00    +0.000 HD
ENDBRANCH  18  23
BRANCH  21  25
ATOM     25  O   UNL     1      -0.768  12.982  17.279  0.00  0.00    +0.000 OA
ATOM     26  H   UNL     1      -0.848  12.039  17.522  0.00  0.00    +0.000 HD
ENDBRANCH  21  25
BRANCH  22  27
ATOM     27  O   UNL     1       2.057  13.179  17.396  0.00  0.00    +0.000 OA
ATOM     28  H   UNL     1       1.777  12.449  16.809  0.00  0.00    +0.000 HD
ENDBRANCH  22  27
BRANCH  17  29
ATOM     29  O   UNL     1       3.321  14.085  19.739  0.00  0.00    +0.000 OA
BRANCH  29  30
ATOM     30  C   UNL     1       3.970  14.453  20.861  0.00  0.00    +0.000 C 
ATOM     31  O   UNL     1       4.054  13.749  21.859  0.00  0.00    +0.000 OA
BRANCH  30  35
ATOM     32  C   UNL     1       6.058  17.664  20.362  0.00  0.00    +0.000 C 
ATOM     33  C   UNL     1       5.654  16.217  20.340  0.00  0.00    +0.000 C 
ATOM     34  C   UNL     1       6.698  15.239  19.872  0.00  0.00    +0.000 C 
ATOM     35  C   UNL     1       4.418  15.853  20.742  0.00  0.00    +0.000 C 
ENDBRANCH  30  35
ENDBRANCH  29  30
ENDBRANCH  17  29
ENDBRANCH   1  20
BRANCH   6  36
ATOM     36  O   UNL     1      -3.803  12.374  24.391  0.00  0.00    +0.000 OA
ATOM     37  H   UNL     1      -2.892  12.152  24.635  0.00  0.00    +0.000 HD
ENDBRANCH   6  36
BRANCH  11  38
ATOM     38  O   UNL     1       0.582   9.831  23.314  0.00  0.00    +0.000 OA
ATOM     39  H   UNL     1       0.228  10.595  23.828  0.00  0.00    +0.000 HD
ENDBRANCH  11  38
TORSDOF 9
ENDMDL
MODEL 2
REMARK VINA RESULT:      -6.8      0.858      1.219
REMARK  Name = 
REMARK  12 active torsions:
REMARK  status: ('A' for Active; 'I' for Inactive)
REMARK    1  A    between atoms: C_1  and  C_2
REMARK    2  A    between atoms: C_2  and  C_3
REMARK    3  A    between atoms: C_4  and  C_5
REMARK    4  A    between atoms: C_5  and  O_7
REMARK    5  A    between atoms: O_7  and  C_8
REMARK    6  A    between atoms: C_9  and  O_10
REMARK    7  A    between atoms: C_12  and  C_13
REMARK    8  A    between atoms: C_18  and  O_19
REMARK    9  A    between atoms: C_24  and  O_25
REMARK   10  A    between atoms: C_27  and  C_28
REMARK   11  A    between atoms: C_31  and  O_32
REMARK   12  A    between atoms: C_33  and  O_34
REMARK                            x       y       z     vdW  Elec       q    Type
REMARK                         _______ _______ _______ _____ _____    ______ ____
ROOT
ATOM      1  C   UNL     1      -1.868  12.334  19.810  0.00  0.00    +0.000 C 
ATOM      2  C   UNL     1      -2.978  12.654  20.802  0.00  0.00    +0.000 A 
ATOM      3  C   UNL     1      -4.087  13.404  20.371  0.00  0.00    +0.000 A 
ATOM      4  C   UNL     1      -5.046  13.836  21.282  0.00  0.00    +0.000 A 
ATOM      5  C   UNL     1      -4.929  13.495  22.628  0.00  0.00    +0.000 A 
ATOM      6  C   UNL     1      -3.844  12.729  23.065  0.00  0.00    +0.000 A 
ATOM      7  C   UNL     1      -2.850  12.324  22.165  0.00  0.00    +0.000 A 
ATOM      8  C   UNL     1      -1.631  11.580  22.611  0.00  0.00    +0.000 C 
ATOM      9  O   UNL     1      -1.291  11.493  23.788  0.00  0.00    +0.000 OA
ATOM     10  C   UNL     1      -0.794  10.901  21.594  0.00  0.00    +0.000 A 
ATOM     11  C   UNL     1       0.254  10.051  21.975  0.00  0.00    +0.000 A 
ATOM     12  C   UNL     1       1.037   9.413  21.017  0.00  0.00    +0.000 A 
ATOM     13  C   UNL     1       0.730   9.548  19.660  0.00  0.00    +0.000 A 
ATOM     14  C   UNL     1       1.653   8.999  18.608  0.00  0.00    +0.000 C 
ATOM     15  C   UNL     1      -0.363  10.346  19.283  0.00  0.00    +0.000 A 
ATOM     16  C   UNL     1      -1.047  11.124  20.235  0.00  0.00    +0.000 A 
ENDROOT
BRANCH   1  20
ATOM     17  C   UNL     1       1.968  13.644  19.891  0.00  0.00    +0.000 C 
ATOM     18  C   UNL     1       1.006  14.553  20.697  0.00  0.00    +0.000 C 
ATOM     19  O   UNL     1      -0.240  13.874  20.845  0.00  0.00    +0.000 OA
ATOM     20  C   UNL     1      -0.983  13.631  19.633  0.00  0.00    +0.000 C 
ATOM     21  C   UNL     1      -0.110  13.658  18.363  0.00  0.00    +0.000 C 
ATOM     22  C   UNL     1       1.303  13.103  18.603  0.00  0.00    +0.000 C 
BRANCH  18  23
ATOM     23  O   UNL     1       0.790  15.854  20.180  0.00  0.00    +0.000 OA
ATOM     24  H   UNL     1       0.446  16.433  20.886  0.00  0.00    +0.000 HD
ENDBRANCH  18  23
BRANCH  21  25
ATOM     25  O   UNL     1      -0.752  13.000  17.266  0.00  0.00    +0.000 OA
ATOM     26  H   UNL     1      -0.131  12.318  16.946  0.00  0.00    +0.000 HD
ENDBRANCH  21  25
BRANCH  22  27
ATOM     27  O   UNL     1       2.071  13.208  17.396  0.00  0.00    +0.000 OA
ATOM     28  H   UNL     1       1.558  13.755  16.770  0.00  0.00    +0.000 HD
ENDBRANCH  22  27
BRANCH  17  29
ATOM     29  O   UNL     1       3.321  14.125  19.742  0.00  0.00    +0.000 OA
BRANCH  29  30
ATOM     30  C   UNL     1       3.774  14.975  20.686  0.00  0.00    +0.000 C 
ATOM     31  O   UNL     1       3.834  16.188  20.535  0.00  0.00    +0.000 OA
BRANCH  30  35
ATOM     32  C   UNL     1       6.062  13.148  23.205  0.00  0.00    +0.000 C 
ATOM     33  C   UNL     1       5.618  14.039  22.079  0.00  0.00    +0.000 C 
ATOM     34  C   UNL     1       6.709  14.682  21.266  0.00  0.00    +0.000 C 
ATOM     35  C   UNL     1       4.303  14.212  21.832  0.00  0.00    +0.000 C 
ENDBRANCH  30  35
ENDBRANCH  29  30
ENDBRANCH  17  29
ENDBRANCH   1  20
BRANCH   6  36
ATOM     36  O   UNL     1      -3.781  12.375  24.382  0.00  0.00    +0.000 OA
ATOM     37  H   UNL     1      -3.311  13.056  24.887  0.00  0.00    +0.000 HD
ENDBRANCH   6  36
BRANCH  11  38
ATOM     38  O   UNL     1       0.608   9.847  23.282  0.00  0.00    +0.000 OA
ATOM     39  H   UNL     1       0.367  10.665  23.778  0.00  0.00    +0.000 HD
ENDBRANCH  11  38
TORSDOF 9
ENDMDL
MODEL 3
REMARK VINA RESULT:      -6.8      3.226      6.399
REMARK  Name = 
REMARK  12 active torsions:
REMARK  status: ('A' for Active; 'I' for Inactive)
REMARK    1  A    between atoms: C_1  and  C_2
REMARK    2  A    between atoms: C_2  and  C_3
REMARK    3  A    between atoms: C_4  and  C_5
REMARK    4  A    between atoms: C_5  and  O_7
REMARK    5  A    between atoms: O_7  and  C_8
REMARK    6  A    between atoms: C_9  and  O_10
REMARK    7  A    between atoms: C_12  and  C_13
REMARK    8  A    between atoms: C_18  and  O_19
REMARK    9  A    between atoms: C_24  and  O_25
REMARK   10  A    between atoms: C_27  and  C_28
REMARK   11  A    between atoms: C_31  and  O_32
REMARK   12  A    between atoms: C_33  and  O_34
REMARK                            x       y       z     vdW  Elec       q    Type
REMARK                         _______ _______ _______ _____ _____    ______ ____
ROOT
ATOM      1  C   UNL     1      -2.126  14.777  21.355  0.00  0.00    +0.000 C 
ATOM      2  C   UNL     1      -1.622  15.437  22.632  0.00  0.00    +0.000 A 
ATOM      3  C   UNL     1      -0.576  16.373  22.552  0.00  0.00    +0.000 A 
ATOM      4  C   UNL     1       0.005  16.886  23.709  0.00  0.00    +0.000 A 
ATOM      5  C   UNL     1      -0.477  16.499  24.958  0.00  0.00    +0.000 A 
ATOM      6  C   UNL     1      -1.534  15.588  25.050  0.00  0.00    +0.000 A 
ATOM      7  C   UNL     1      -2.098  15.032  23.894  0.00  0.00    +0.000 A 
ATOM      8  C   UNL     1      -3.168  13.989  23.956  0.00  0.00    +0.000 C 
ATOM      9  O   UNL     1      -3.447  13.375  24.983  0.00  0.00    +0.000 OA
ATOM     10  C   UNL     1      -3.945  13.686  22.732  0.00  0.00    +0.000 A 
ATOM     11  C   UNL     1      -5.068  12.848  22.780  0.00  0.00    +0.000 A 
ATOM     12  C   UNL     1      -5.796  12.566  21.627  0.00  0.00    +0.000 A 
ATOM     13  C   UNL     1      -5.462  13.187  20.420  0.00  0.00    +0.000 A 
ATOM     14  C   UNL     1      -6.132  12.778  19.138  0.00  0.00    +0.000 C 
ATOM     15  C   UNL     1      -4.378  14.080  20.388  0.00  0.00    +0.000 A 
ATOM     16  C   UNL     1      -3.540  14.234  21.508  0.00  0.00    +0.000 A 
ENDROOT
BRANCH   1  20
ATOM     17  C   UNL     1      -1.778  11.350  19.218  0.00  0.00    +0.000 C 
ATOM     18  C   UNL     1      -1.158  11.239  20.633  0.00  0.00    +0.000 C 
ATOM     19  O   UNL     1      -1.569  12.372  21.397  0.00  0.00    +0.000 OA
ATOM     20  C   UNL     1      -1.091  13.656  20.946  0.00  0.00    +0.000 C 
ATOM     21  C   UNL     1      -0.670  13.666  19.463  0.00  0.00    +0.000 C 
ATOM     22  C   UNL     1      -1.541  12.745  18.593  0.00  0.00    +0.000 C 
BRANCH  18  23
ATOM     23  O   UNL     1       0.252  11.102  20.693  0.00  0.00    +0.000 OA
ATOM     24  H   UNL     1       0.523  10.919  21.612  0.00  0.00    +0.000 HD
ENDBRANCH  18  23
BRANCH  21  25
ATOM     25  O   UNL     1      -0.626  14.995  18.936  0.00  0.00    +0.000 OA
ATOM     26  H   UNL     1       0.295  15.307  19.036  0.00  0.00    +0.000 HD
ENDBRANCH  21  25
BRANCH  22  27
ATOM     27  O   UNL     1      -1.059  12.765  17.242  0.00  0.00    +0.000 OA
ATOM     28  H   UNL     1      -0.233  12.245  17.218  0.00  0.00    +0.000 HD
ENDBRANCH  22  27
BRANCH  17  29
ATOM     29  O   UNL     1      -1.559  10.225  18.339  0.00  0.00    +0.000 OA
BRANCH  29  30
ATOM     30  C   UNL     1      -2.651   9.663  17.783  0.00  0.00    +0.000 C 
ATOM     31  O   UNL     1      -3.565   9.168  18.429  0.00  0.00    +0.000 OA
BRANCH  30  35
ATOM     32  C   UNL     1      -3.099  10.132  13.975  0.00  0.00    +0.000 C 
ATOM     33  C   UNL     1      -3.251  10.333  15.456  0.00  0.00    +0.000 C 
ATOM     34  C   UNL     1      -4.283  11.337  15.892  0.00  0.00    +0.000 C 
ATOM     35  C   UNL     1      -2.496   9.617  16.316  0.00  0.00    +0.000 C 
ENDBRANCH  30  35
ENDBRANCH  29  30
ENDBRANCH  17  29
ENDBRANCH   1  20
BRANCH   6  36
ATOM     36  O   UNL     1      -2.011  15.263  26.287  0.00  0.00    +0.000 OA
ATOM     37  H   UNL     1      -2.602  14.497  26.223  0.00  0.00    +0.000 HD
ENDBRANCH   6  36
BRANCH  11  38
ATOM     38  O   UNL     1      -5.474  12.216  23.925  0.00  0.00    +0.000 OA
ATOM     39  H   UNL     1      -6.259  12.709  24.264  0.00  0.00    +0.000 HD
ENDBRANCH  11  38
TORSDOF 9
ENDMDL
MODEL 4
REMARK VINA RESULT:      -6.7      4.140     10.372
REMARK  Name = 
REMARK  12 active torsions:
REMARK  status: ('A' for Active; 'I' for Inactive)
REMARK    1  A    between atoms: C_1  and  C_2
REMARK    2  A    between atoms: C_2  and  C_3
REMARK    3  A    between atoms: C_4  and  C_5
REMARK    4  A    between atoms: C_5  and  O_7
REMARK    5  A    between atoms: O_7  and  C_8
REMARK    6  A    between atoms: C_9  and  O_10
REMARK    7  A    between atoms: C_12  and  C_13
REMARK    8  A    between atoms: C_18  and  O_19
REMARK    9  A    between atoms: C_24  and  O_25
REMARK   10  A    between atoms: C_27  and  C_28
REMARK   11  A    between atoms: C_31  and  O_32
REMARK   12  A    between atoms: C_33  and  O_34
REMARK                            x       y       z     vdW  Elec       q    Type
REMARK                         _______ _______ _______ _____ _____    ______ ____
ROOT
ATOM      1  C   UNL     1       9.390  15.464  19.521  0.00  0.00    +0.000 C 
ATOM      2  C   UNL     1      10.490  14.920  18.618  0.00  0.00    +0.000 A 
ATOM      3  C   UNL     1      11.066  15.766  17.654  0.00  0.00    +0.000 A 
ATOM      4  C   UNL     1      11.968  15.263  16.720  0.00  0.00    +0.000 A 
ATOM      5  C   UNL     1      12.332  13.919  16.761  0.00  0.00    +0.000 A 
ATOM      6  C   UNL     1      11.786  13.074  17.730  0.00  0.00    +0.000 A 
ATOM      7  C   UNL     1      10.845  13.558  18.649  0.00  0.00    +0.000 A 
ATOM      8  C   UNL     1      10.173  12.664  19.643  0.00  0.00    +0.000 C 
ATOM      9  O   UNL     1      10.200  11.438  19.567  0.00  0.00    +0.000 OA
ATOM     10  C   UNL     1       9.453  13.275  20.784  0.00  0.00    +0.000 A 
ATOM     11  C   UNL     1       8.958  12.484  21.830  0.00  0.00    +0.000 A 
ATOM     12  C   UNL     1       8.282  13.062  22.901  0.00  0.00    +0.000 A 
ATOM     13  C   UNL     1       8.164  14.452  22.985  0.00  0.00    +0.000 A 
ATOM     14  C   UNL     1       7.306  15.084  24.045  0.00  0.00    +0.000 C 
ATOM     15  C   UNL     1       8.720  15.248  21.970  0.00  0.00    +0.000 A 
ATOM     16  C   UNL     1       9.251  14.661  20.806  0.00  0.00    +0.000 A 
ENDROOT
BRANCH   1  20
ATOM     17  C   UNL     1       5.362  15.675  19.918  0.00  0.00    +0.000 C 
ATOM     18  C   UNL     1       5.809  14.575  18.925  0.00  0.00    +0.000 C 
ATOM     19  O   UNL     1       7.217  14.387  19.061  0.00  0.00    +0.000 OA
ATOM     20  C   UNL     1       8.050  15.504  18.686  0.00  0.00    +0.000 C 
ATOM     21  C   UNL     1       7.308  16.854  18.705  0.00  0.00    +0.000 C 
ATOM     22  C   UNL     1       6.253  16.936  19.820  0.00  0.00    +0.000 C 
BRANCH  18  23
ATOM     23  O   UNL     1       5.479  14.785  17.562  0.00  0.00    +0.000 OA
ATOM     24  H   UNL     1       4.652  15.299  17.503  0.00  0.00    +0.000 HD
ENDBRANCH  18  23
BRANCH  21  25
ATOM     25  O   UNL     1       8.219  17.957  18.766  0.00  0.00    +0.000 OA
ATOM     26  H   UNL     1       8.185  18.397  17.895  0.00  0.00    +0.000 HD
ENDBRANCH  21  25
BRANCH  22  27
ATOM     27  O   UNL     1       5.570  18.195  19.743  0.00  0.00    +0.000 OA
ATOM     28  H   UNL     1       5.118  18.230  18.878  0.00  0.00    +0.000 HD
ENDBRANCH  22  27
BRANCH  17  29
ATOM     29  O   UNL     1       3.940  15.917  19.999  0.00  0.00    +0.000 OA
BRANCH  29  30
ATOM     30  C   UNL     1       3.213  15.046  20.726  0.00  0.00    +0.000 C 
ATOM     31  O   UNL     1       3.312  14.924  21.940  0.00  0.00    +0.000 OA
BRANCH  30  35
ATOM     32  C   UNL     1       0.405  13.552  18.533  0.00  0.00    +0.000 C 
ATOM     33  C   UNL     1       1.198  14.536  19.348  0.00  0.00    +0.000 C 
ATOM     34  C   UNL     1       0.552  15.872  19.595  0.00  0.00    +0.000 C 
ATOM     35  C   UNL     1       2.412  14.193  19.827  0.00  0.00    +0.000 C 
ENDBRANCH  30  35
ENDBRANCH  29  30
ENDBRANCH  17  29
ENDBRANCH   1  20
BRANCH   6  36
ATOM     36  O   UNL     1      12.197  11.772  17.771  0.00  0.00    +0.000 OA
ATOM     37  H   UNL     1      13.142  11.717  17.562  0.00  0.00    +0.000 HD
ENDBRANCH   6  36
BRANCH  11  38
ATOM     38  O   UNL     1       9.050  11.118  21.836  0.00  0.00    +0.000 OA
ATOM     39  H   UNL     1       8.565  10.791  21.041  0.00  0.00    +0.000 HD
ENDBRANCH  11  38
TORSDOF 9
ENDMDL
MODEL 5
REMARK VINA RESULT:      -6.6      3.013      5.751
REMARK  Name = 
REMARK  12 active torsions:
REMARK  status: ('A' for Active; 'I' for Inactive)
REMARK    1  A    between atoms: C_1  and  C_2
REMARK    2  A    between atoms: C_2  and  C_3
REMARK    3  A    between atoms: C_4  and  C_5
REMARK    4  A    between atoms: C_5  and  O_7
REMARK    5  A    between atoms: O_7  and  C_8
REMARK    6  A    between atoms: C_9  and  O_10
REMARK    7  A    between atoms: C_12  and  C_13
REMARK    8  A    between atoms: C_18  and  O_19
REMARK    9  A    between atoms: C_24  and  O_25
REMARK   10  A    between atoms: C_27  and  C_28
REMARK   11  A    between atoms: C_31  and  O_32
REMARK   12  A    between atoms: C_33  and  O_34
REMARK                            x       y       z     vdW  Elec       q    Type
REMARK                         _______ _______ _______ _____ _____    ______ ____
ROOT
ATOM      1  C   UNL     1      -1.890  11.999  20.178  0.00  0.00    +0.000 C 
ATOM      2  C   UNL     1      -2.386  11.290  18.925  0.00  0.00    +0.000 A 
ATOM      3  C   UNL     1      -1.501  10.463  18.210  0.00  0.00    +0.000 A 
ATOM      4  C   UNL     1      -1.877   9.916  16.986  0.00  0.00    +0.000 A 
ATOM      5  C   UNL     1      -3.151  10.159  16.479  0.00  0.00    +0.000 A 
ATOM      6  C   UNL     1      -4.048  10.960  17.192  0.00  0.00    +0.000 A 
ATOM      7  C   UNL     1      -3.668  11.550  18.404  0.00  0.00    +0.000 A 
ATOM      8  C   UNL     1      -4.569  12.483  19.149  0.00  0.00    +0.000 C 
ATOM      9  O   UNL     1      -5.573  12.988  18.651  0.00  0.00    +0.000 OA
ATOM     10  C   UNL     1      -4.255  12.809  20.560  0.00  0.00    +0.000 A 
ATOM     11  C   UNL     1      -5.157  13.535  21.350  0.00  0.00    +0.000 A 
ATOM     12  C   UNL     1      -4.858  13.838  22.676  0.00  0.00    +0.000 A 
ATOM     13  C   UNL     1      -3.687  13.346  23.258  0.00  0.00    +0.000 A 
ATOM     14  C   UNL     1      -3.270  13.791  24.633  0.00  0.00    +0.000 C 
ATOM     15  C   UNL     1      -2.816  12.561  22.485  0.00  0.00    +0.000 A 
ATOM     16  C   UNL     1      -3.031  12.397  21.104  0.00  0.00    +0.000 A 
ENDROOT
BRANCH   1  20
ATOM     17  C   UNL     1      -0.161  15.392  21.568  0.00  0.00    +0.000 C 
ATOM     18  C   UNL     1      -0.951  15.617  20.255  0.00  0.00    +0.000 C 
ATOM     19  O   UNL     1      -1.743  14.457  19.999  0.00  0.00    +0.000 OA
ATOM     20  C   UNL     1      -1.021  13.238  19.725  0.00  0.00    +0.000 C 
ATOM     21  C   UNL     1       0.425  13.251  20.255  0.00  0.00    +0.000 C 
ATOM     22  C   UNL     1       0.567  14.027  21.574  0.00  0.00    +0.000 C 
BRANCH  18  23
ATOM     23  O   UNL     1      -0.186  15.942  19.107  0.00  0.00    +0.000 OA
ATOM     24  H   UNL     1      -0.755  16.385  18.451  0.00  0.00    +0.000 HD
ENDBRANCH  18  23
BRANCH  21  25
ATOM     25  O   UNL     1       0.958  11.927  20.367  0.00  0.00    +0.000 OA
ATOM     26  H   UNL     1       0.465  11.371  19.733  0.00  0.00    +0.000 HD
ENDBRANCH  21  25
BRANCH  22  27
ATOM     27  O   UNL     1       1.944  14.040  21.978  0.00  0.00    +0.000 OA
ATOM     28  H   UNL     1       2.135  13.178  22.395  0.00  0.00    +0.000 HD
ENDBRANCH  22  27
BRANCH  17  29
ATOM     29  O   UNL     1       0.611  16.516  22.044  0.00  0.00    +0.000 OA
BRANCH  29  30
ATOM     30  C   UNL     1      -0.075  17.618  22.406  0.00  0.00    +0.000 C 
ATOM     31  O   UNL     1      -0.148  18.629  21.720  0.00  0.00    +0.000 OA
BRANCH  30  35
ATOM     32  C   UNL     1      -2.320  17.279  25.531  0.00  0.00    +0.000 C 
ATOM     33  C   UNL     1      -1.887  17.315  24.092  0.00  0.00    +0.000 C 
ATOM     34  C   UNL     1      -2.979  17.202  23.063  0.00  0.00    +0.000 C 
ATOM     35  C   UNL     1      -0.581  17.461  23.783  0.00  0.00    +0.000 C 
ENDBRANCH  30  35
ENDBRANCH  29  30
ENDBRANCH  17  29
ENDBRANCH   1  20
BRANCH   6  36
ATOM     36  O   UNL     1      -5.305  11.143  16.689  0.00  0.00    +0.000 OA
ATOM     37  H   UNL     1      -5.260  11.294  15.732  0.00  0.00    +0.000 HD
ENDBRANCH   6  36
BRANCH  11  38
ATOM     38  O   UNL     1      -6.334  14.036  20.863  0.00  0.00    +0.000 OA
ATOM     39  H   UNL     1      -6.301  13.952  19.881  0.00  0.00    +0.000 HD
ENDBRANCH  11  38
TORSDOF 9
ENDMDL
MODEL 6
REMARK VINA RESULT:      -6.5      4.724     10.280
REMARK  Name = 
REMARK  12 active torsions:
REMARK  status: ('A' for Active; 'I' for Inactive)
REMARK    1  A    between atoms: C_1  and  C_2
REMARK    2  A    between atoms: C_2  and  C_3
REMARK    3  A    between atoms: C_4  and  C_5
REMARK    4  A    between atoms: C_5  and  O_7
REMARK    5  A    between atoms: O_7  and  C_8
REMARK    6  A    between atoms: C_9  and  O_10
REMARK    7  A    between atoms: C_12  and  C_13
REMARK    8  A    between atoms: C_18  and  O_19
REMARK    9  A    between atoms: C_24  and  O_25
REMARK   10  A    between atoms: C_27  and  C_28
REMARK   11  A    between atoms: C_31  and  O_32
REMARK   12  A    between atoms: C_33  and  O_34
REMARK                            x       y       z     vdW  Elec       q    Type
REMARK                         _______ _______ _______ _____ _____    ______ ____
ROOT
ATOM      1  C   UNL     1       9.382  15.163  19.974  0.00  0.00    +0.000 C 
ATOM      2  C   UNL     1      10.455  14.518  19.106  0.00  0.00    +0.000 A 
ATOM      3  C   UNL     1      11.122  15.301  18.148  0.00  0.00    +0.000 A 
ATOM      4  C   UNL     1      12.002  14.713  17.243  0.00  0.00    +0.000 A 
ATOM      5  C   UNL     1      12.253  13.344  17.308  0.00  0.00    +0.000 A 
ATOM      6  C   UNL     1      11.615  12.559  18.273  0.00  0.00    +0.000 A 
ATOM      7  C   UNL     1      10.695  13.132  19.162  0.00  0.00    +0.000 A 
ATOM      8  C   UNL     1       9.927  12.309  20.148  0.00  0.00    +0.000 C 
ATOM      9  O   UNL     1       9.853  11.085  20.087  0.00  0.00    +0.000 OA
ATOM     10  C   UNL     1       9.231  12.993  21.262  0.00  0.00    +0.000 A 
ATOM     11  C   UNL     1       8.647  12.260  22.305  0.00  0.00    +0.000 A 
ATOM     12  C   UNL     1       7.994  12.905  23.351  0.00  0.00    +0.000 A 
ATOM     13  C   UNL     1       7.990  14.302  23.417  0.00  0.00    +0.000 A 
ATOM     14  C   UNL     1       7.161  15.017  24.447  0.00  0.00    +0.000 C 
ATOM     15  C   UNL     1       8.635  15.036  22.407  0.00  0.00    +0.000 A 
ATOM     16  C   UNL     1       9.144  14.391  21.264  0.00  0.00    +0.000 A 
ENDROOT
BRANCH   1  20
ATOM     17  C   UNL     1       5.414  15.946  20.245  0.00  0.00    +0.000 C 
ATOM     18  C   UNL     1       5.722  14.706  19.368  0.00  0.00    +0.000 C 
ATOM     19  O   UNL     1       7.089  14.347  19.558  0.00  0.00    +0.000 OA
ATOM     20  C   UNL     1       8.070  15.302  19.105  0.00  0.00    +0.000 C 
ATOM     21  C   UNL     1       7.518  16.735  18.980  0.00  0.00    +0.000 C 
ATOM     22  C   UNL     1       6.468  17.062  20.054  0.00  0.00    +0.000 C 
BRANCH  18  23
ATOM     23  O   UNL     1       5.442  14.829  17.984  0.00  0.00    +0.000 OA
ATOM     24  H   UNL     1       6.261  15.052  17.505  0.00  0.00    +0.000 HD
ENDBRANCH  18  23
BRANCH  21  25
ATOM     25  O   UNL     1       8.568  17.707  18.963  0.00  0.00    +0.000 OA
ATOM     26  H   UNL     1       8.359  18.334  18.244  0.00  0.00    +0.000 HD
ENDBRANCH  21  25
BRANCH  22  27
ATOM     27  O   UNL     1       5.963  18.387  19.844  0.00  0.00    +0.000 OA
ATOM     28  H   UNL     1       6.259  18.936  20.597  0.00  0.00    +0.000 HD
ENDBRANCH  22  27
BRANCH  17  29
ATOM     29  O   UNL     1       4.037  16.382  20.266  0.00  0.00    +0.000 OA
BRANCH  29  30
ATOM     30  C   UNL     1       3.407  16.471  19.078  0.00  0.00    +0.000 C 
ATOM     31  O   UNL     1       3.717  17.267  18.201  0.00  0.00    +0.000 OA
BRANCH  30  35
ATOM     32  C   UNL     1      -0.178  15.036  19.202  0.00  0.00    +0.000 C 
ATOM     33  C   UNL     1       0.954  16.019  19.095  0.00  0.00    +0.000 C 
ATOM     34  C   UNL     1       0.572  17.474  19.041  0.00  0.00    +0.000 C 
ATOM     35  C   UNL     1       2.230  15.581  19.069  0.00  0.00    +0.000 C 
ENDBRANCH  30  35
ENDBRANCH  29  30
ENDBRANCH  17  29
ENDBRANCH   1  20
BRANCH   6  36
ATOM     36  O   UNL     1      11.916  11.229  18.339  0.00  0.00    +0.000 OA
ATOM     37  H   UNL     1      12.793  11.068  17.959  0.00  0.00    +0.000 HD
ENDBRANCH   6  36
BRANCH  11  38
ATOM     38  O   UNL     1       8.625  10.891  22.328  0.00  0.00    +0.000 OA
ATOM     39  H   UNL     1       7.686  10.618  22.461  0.00  0.00    +0.000 HD
ENDBRANCH  11  38
TORSDOF 9
ENDMDL
MODEL 7
REMARK VINA RESULT:      -6.5      6.801     10.724
REMARK  Name = 
REMARK  12 active torsions:
REMARK  status: ('A' for Active; 'I' for Inactive)
REMARK    1  A    between atoms: C_1  and  C_2
REMARK    2  A    between atoms: C_2  and  C_3
REMARK    3  A    between atoms: C_4  and  C_5
REMARK    4  A    between atoms: C_5  and  O_7
REMARK    5  A    between atoms: O_7  and  C_8
REMARK    6  A    between atoms: C_9  and  O_10
REMARK    7  A    between atoms: C_12  and  C_13
REMARK    8  A    between atoms: C_18  and  O_19
REMARK    9  A    between atoms: C_24  and  O_25
REMARK   10  A    between atoms: C_27  and  C_28
REMARK   11  A    between atoms: C_31  and  O_32
REMARK   12  A    between atoms: C_33  and  O_34
REMARK                            x       y       z     vdW  Elec       q    Type
REMARK                         _______ _______ _______ _____ _____    ______ ____
ROOT
ATOM      1  C   UNL     1       8.596  13.612  19.446  0.00  0.00    +0.000 C 
ATOM      2  C   UNL     1       9.796  13.489  18.517  0.00  0.00    +0.000 A 
ATOM      3  C   UNL     1      10.463  12.255  18.418  0.00  0.00    +0.000 A 
ATOM      4  C   UNL     1      11.647  12.147  17.691  0.00  0.00    +0.000 A 
ATOM      5  C   UNL     1      12.158  13.259  17.026  0.00  0.00    +0.000 A 
ATOM      6  C   UNL     1      11.490  14.486  17.097  0.00  0.00    +0.000 A 
ATOM      7  C   UNL     1      10.322  14.618  17.859  0.00  0.00    +0.000 A 
ATOM      8  C   UNL     1       9.630  15.934  18.029  0.00  0.00    +0.000 C 
ATOM      9  O   UNL     1      10.151  17.008  17.739  0.00  0.00    +0.000 OA
ATOM     10  C   UNL     1       8.247  15.953  18.558  0.00  0.00    +0.000 A 
ATOM     11  C   UNL     1       7.497  17.137  18.573  0.00  0.00    +0.000 A 
ATOM     12  C   UNL     1       6.197  17.151  19.069  0.00  0.00    +0.000 A 
ATOM     13  C   UNL     1       5.593  15.960  19.482  0.00  0.00    +0.000 A 
ATOM     14  C   UNL     1       4.254  15.976  20.165  0.00  0.00    +0.000 C 
ATOM     15  C   UNL     1       6.322  14.761  19.403  0.00  0.00    +0.000 A 
ATOM     16  C   UNL     1       7.688  14.772  19.063  0.00  0.00    +0.000 A 
ENDROOT
BRANCH   1  20
ATOM     17  C   UNL     1       7.372  13.940  23.296  0.00  0.00    +0.000 C 
ATOM     18  C   UNL     1       8.489  14.951  22.934  0.00  0.00    +0.000 C 
ATOM     19  O   UNL     1       8.653  14.954  21.516  0.00  0.00    +0.000 OA
ATOM     20  C   UNL     1       9.136  13.730  20.926  0.00  0.00    +0.000 C 
ATOM     21  C   UNL     1       8.900  12.490  21.809  0.00  0.00    +0.000 C 
ATOM     22  C   UNL     1       7.590  12.571  22.609  0.00  0.00    +0.000 C 
BRANCH  18  23
ATOM     23  O   UNL     1       9.743  14.756  23.565  0.00  0.00    +0.000 OA
ATOM     24  H   UNL     1       9.602  14.469  24.487  0.00  0.00    +0.000 HD
ENDBRANCH  18  23
BRANCH  21  25
ATOM     25  O   UNL     1       8.974  11.279  21.049  0.00  0.00    +0.000 OA
ATOM     26  H   UNL     1       9.163  11.537  20.127  0.00  0.00    +0.000 HD
ENDBRANCH  21  25
BRANCH  22  27
ATOM     27  O   UNL     1       7.465  11.411  23.444  0.00  0.00    +0.000 OA
ATOM     28  H   UNL     1       8.353  11.206  23.794  0.00  0.00    +0.000 HD
ENDBRANCH  22  27
BRANCH  17  29
ATOM     29  O   UNL     1       6.991  13.888  24.688  0.00  0.00    +0.000 OA
BRANCH  29  30
ATOM     30  C   UNL     1       5.681  14.041  24.968  0.00  0.00    +0.000 C 
ATOM     31  O   UNL     1       5.048  13.284  25.693  0.00  0.00    +0.000 OA
BRANCH  30  35
ATOM     32  C   UNL     1       4.182  17.404  23.800  0.00  0.00    +0.000 C 
ATOM     33  C   UNL     1       4.856  16.375  24.663  0.00  0.00    +0.000 C 
ATOM     34  C   UNL     1       5.177  16.792  26.073  0.00  0.00    +0.000 C 
ATOM     35  C   UNL     1       5.125  15.149  24.168  0.00  0.00    +0.000 C 
ENDBRANCH  30  35
ENDBRANCH  29  30
ENDBRANCH  17  29
ENDBRANCH   1  20
BRANCH   6  36
ATOM     36  O   UNL     1      11.993  15.546  16.398  0.00  0.00    +0.000 OA
ATOM     37  H   UNL     1      11.484  15.676  15.583  0.00  0.00    +0.000 HD
ENDBRANCH   6  36
BRANCH  11  38
ATOM     38  O   UNL     1       8.005  18.343  18.168  0.00  0.00    +0.000 OA
ATOM     39  H   UNL     1       7.423  18.673  17.443  0.00  0.00    +0.000 HD
ENDBRANCH  11  38
TORSDOF 9
ENDMDL
MODEL 8
REMARK VINA RESULT:      -6.5      0.685      1.087
REMARK  Name = 
REMARK  12 active torsions:
REMARK  status: ('A' for Active; 'I' for Inactive)
REMARK    1  A    between atoms: C_1  and  C_2
REMARK    2  A    between atoms: C_2  and  C_3
REMARK    3  A    between atoms: C_4  and  C_5
REMARK    4  A    between atoms: C_5  and  O_7
REMARK    5  A    between atoms: O_7  and  C_8
REMARK    6  A    between atoms: C_9  and  O_10
REMARK    7  A    between atoms: C_12  and  C_13
REMARK    8  A    between atoms: C_18  and  O_19
REMARK    9  A    between atoms: C_24  and  O_25
REMARK   10  A    between atoms: C_27  and  C_28
REMARK   11  A    between atoms: C_31  and  O_32
REMARK   12  A    between atoms: C_33  and  O_34
REMARK                            x       y       z     vdW  Elec       q    Type
REMARK                         _______ _______ _______ _____ _____    ______ ____
ROOT
ATOM      1  C   UNL     1      -1.815  12.283  19.822  0.00  0.00    +0.000 C 
ATOM      2  C   UNL     1      -2.931  12.624  20.801  0.00  0.00    +0.000 A 
ATOM      3  C   UNL     1      -4.028  13.381  20.353  0.00  0.00    +0.000 A 
ATOM      4  C   UNL     1      -4.991  13.832  21.252  0.00  0.00    +0.000 A 
ATOM      5  C   UNL     1      -4.890  13.501  22.602  0.00  0.00    +0.000 A 
ATOM      6  C   UNL     1      -3.817  12.727  23.055  0.00  0.00    +0.000 A 
ATOM      7  C   UNL     1      -2.819  12.304  22.168  0.00  0.00    +0.000 A 
ATOM      8  C   UNL     1      -1.612  11.551  22.631  0.00  0.00    +0.000 C 
ATOM      9  O   UNL     1      -1.285  11.470  23.812  0.00  0.00    +0.000 OA
ATOM     10  C   UNL     1      -0.774  10.854  21.628  0.00  0.00    +0.000 A 
ATOM     11  C   UNL     1       0.261   9.996  22.026  0.00  0.00    +0.000 A 
ATOM     12  C   UNL     1       1.047   9.342  21.080  0.00  0.00    +0.000 A 
ATOM     13  C   UNL     1       0.754   9.469  19.720  0.00  0.00    +0.000 A 
ATOM     14  C   UNL     1       1.680   8.901  18.681  0.00  0.00    +0.000 C 
ATOM     15  C   UNL     1      -0.328  10.275  19.325  0.00  0.00    +0.000 A 
ATOM     16  C   UNL     1      -1.012  11.069  20.265  0.00  0.00    +0.000 A 
ENDROOT
BRANCH   1  20
ATOM     17  C   UNL     1       2.043  13.527  19.793  0.00  0.00    +0.000 C 
ATOM     18  C   UNL     1       1.127  14.433  20.654  0.00  0.00    +0.000 C 
ATOM     19  O   UNL     1      -0.125  13.772  20.832  0.00  0.00    +0.000 OA
ATOM     20  C   UNL     1      -0.915  13.569  19.643  0.00  0.00    +0.000 C 
ATOM     21  C   UNL     1      -0.089  13.612  18.343  0.00  0.00    +0.000 C 
ATOM     22  C   UNL     1       1.322  13.028  18.518  0.00  0.00    +0.000 C 
BRANCH  18  23
ATOM     23  O   UNL     1       0.915  15.750  20.175  0.00  0.00    +0.000 OA
ATOM     24  H   UNL     1      -0.022  15.859  19.928  0.00  0.00    +0.000 HD
ENDBRANCH  18  23
BRANCH  21  25
ATOM     25  O   UNL     1      -0.781  12.990  17.255  0.00  0.00    +0.000 OA
ATOM     26  H   UNL     1      -1.727  12.972  17.499  0.00  0.00    +0.000 HD
ENDBRANCH  21  25
BRANCH  22  27
ATOM     27  O   UNL     1       2.048  13.149  17.287  0.00  0.00    +0.000 OA
ATOM     28  H   UNL     1       1.392  13.211  16.565  0.00  0.00    +0.000 HD
ENDBRANCH  22  27
BRANCH  17  29
ATOM     29  O   UNL     1       3.398  13.989  19.606  0.00  0.00    +0.000 OA
BRANCH  29  30
ATOM     30  C   UNL     1       3.556  15.227  19.097  0.00  0.00    +0.000 C 
ATOM     31  O   UNL     1       2.814  15.716  18.255  0.00  0.00    +0.000 OA
BRANCH  30  35
ATOM     32  C   UNL     1       6.192  17.277  21.039  0.00  0.00    +0.000 C 
ATOM     33  C   UNL     1       4.886  16.630  20.673  0.00  0.00    +0.000 C 
ATOM     34  C   UNL     1       3.708  16.961  21.549  0.00  0.00    +0.000 C 
ATOM     35  C   UNL     1       4.812  15.817  19.599  0.00  0.00    +0.000 C 
ENDBRANCH  30  35
ENDBRANCH  29  30
ENDBRANCH  17  29
ENDBRANCH   1  20
BRANCH   6  36
ATOM     36  O   UNL     1      -3.770  12.383  24.376  0.00  0.00    +0.000 OA
ATOM     37  H   UNL     1      -2.849  12.343  24.675  0.00  0.00    +0.000 HD
ENDBRANCH   6  36
BRANCH  11  38
ATOM     38  O   UNL     1       0.601   9.800  23.338  0.00  0.00    +0.000 OA
ATOM     39  H   UNL     1      -0.192   9.424  23.789  0.00  0.00    +0.000 HD
ENDBRANCH  11  38
TORSDOF 9
ENDMDL
MODEL 9
REMARK VINA RESULT:      -6.4      6.887     10.997
REMARK  Name = 
REMARK  12 active torsions:
REMARK  status: ('A' for Active; 'I' for Inactive)
REMARK    1  A    between atoms: C_1  and  C_2
REMARK    2  A    between atoms: C_2  and  C_3
REMARK    3  A    between atoms: C_4  and  C_5
REMARK    4  A    between atoms: C_5  and  O_7
REMARK    5  A    between atoms: O_7  and  C_8
REMARK    6  A    between atoms: C_9  and  O_10
REMARK    7  A    between atoms: C_12  and  C_13
REMARK    8  A    between atoms: C_18  and  O_19
REMARK    9  A    between atoms: C_24  and  O_25
REMARK   10  A    between atoms: C_27  and  C_28
REMARK   11  A    between atoms: C_31  and  O_32
REMARK   12  A    between atoms: C_33  and  O_34
REMARK                            x       y       z     vdW  Elec       q    Type
REMARK                         _______ _______ _______ _____ _____    ______ ____
ROOT
ATOM      1  C   UNL     1       8.627  13.615  19.876  0.00  0.00    +0.000 C 
ATOM      2  C   UNL     1       9.646  13.431  18.760  0.00  0.00    +0.000 A 
ATOM      3  C   UNL     1      10.352  12.218  18.670  0.00  0.00    +0.000 A 
ATOM      4  C   UNL     1      11.390  12.069  17.754  0.00  0.00    +0.000 A 
ATOM      5  C   UNL     1      11.711  13.117  16.893  0.00  0.00    +0.000 A 
ATOM      6  C   UNL     1      11.000  14.319  16.955  0.00  0.00    +0.000 A 
ATOM      7  C   UNL     1       9.982  14.495  17.901  0.00  0.00    +0.000 A 
ATOM      8  C   UNL     1       9.260  15.797  18.057  0.00  0.00    +0.000 C 
ATOM      9  O   UNL     1       9.660  16.849  17.564  0.00  0.00    +0.000 OA
ATOM     10  C   UNL     1       7.995  15.827  18.826  0.00  0.00    +0.000 A 
ATOM     11  C   UNL     1       7.195  16.978  18.854  0.00  0.00    +0.000 A 
ATOM     12  C   UNL     1       6.006  17.002  19.578  0.00  0.00    +0.000 A 
ATOM     13  C   UNL     1       5.554  15.845  20.218  0.00  0.00    +0.000 A 
ATOM     14  C   UNL     1       4.360  15.891  21.130  0.00  0.00    +0.000 C 
ATOM     15  C   UNL     1       6.322  14.671  20.132  0.00  0.00    +0.000 A 
ATOM     16  C   UNL     1       7.602  14.692  19.548  0.00  0.00    +0.000 A 
ENDROOT
BRANCH   1  20
ATOM     17  C   UNL     1       8.137  14.011  23.881  0.00  0.00    +0.000 C 
ATOM     18  C   UNL     1       8.974  15.158  23.263  0.00  0.00    +0.000 C 
ATOM     19  O   UNL     1       8.856  15.090  21.842  0.00  0.00    +0.000 OA
ATOM     20  C   UNL     1       9.416  13.920  21.210  0.00  0.00    +0.000 C 
ATOM     21  C   UNL     1       9.570  12.722  22.167  0.00  0.00    +0.000 C 
ATOM     22  C   UNL     1       8.446  12.649  23.213  0.00  0.00    +0.000 C 
BRANCH  18  23
ATOM     23  O   UNL     1      10.341  15.210  23.633  0.00  0.00    +0.000 OA
ATOM     24  H   UNL     1      10.702  16.091  23.422  0.00  0.00    +0.000 HD
ENDBRANCH  18  23
BRANCH  21  25
ATOM     25  O   UNL     1       9.700  11.489  21.452  0.00  0.00    +0.000 OA
ATOM     26  H   UNL     1       9.811  11.721  20.510  0.00  0.00    +0.000 HD
ENDBRANCH  21  25
BRANCH  22  27
ATOM     27  O   UNL     1       8.684  11.545  24.097  0.00  0.00    +0.000 OA
ATOM     28  H   UNL     1       9.615  11.273  23.981  0.00  0.00    +0.000 HD
ENDBRANCH  22  27
BRANCH  17  29
ATOM     29  O   UNL     1       8.047  13.995  25.322  0.00  0.00    +0.000 OA
BRANCH  29  30
ATOM     30  C   UNL     1       6.819  13.844  25.856  0.00  0.00    +0.000 C 
ATOM     31  O   UNL     1       5.870  14.572  25.596  0.00  0.00    +0.000 OA
BRANCH  30  35
ATOM     32  C   UNL     1       6.271  10.584  27.856  0.00  0.00    +0.000 C 
ATOM     33  C   UNL     1       6.296  11.561  26.713  0.00  0.00    +0.000 C 
ATOM     34  C   UNL     1       5.666  11.100  25.427  0.00  0.00    +0.000 C 
ATOM     35  C   UNL     1       6.847  12.782  26.880  0.00  0.00    +0.000 C 
ENDBRANCH  30  35
ENDBRANCH  29  30
ENDBRANCH  17  29
ENDBRANCH   1  20
BRANCH   6  36
ATOM     36  O   UNL     1      11.310  15.309  16.068  0.00  0.00    +0.000 OA
ATOM     37  H   UNL     1      12.136  15.744  16.331  0.00  0.00    +0.000 HD
ENDBRANCH   6  36
BRANCH  11  38
ATOM     38  O   UNL     1       7.555  18.147  18.238  0.00  0.00    +0.000 OA
ATOM     39  H   UNL     1       6.725  18.657  18.079  0.00  0.00    +0.000 HD
ENDBRANCH  11  38
TORSDOF 9
ENDMDL
