MODEL 1
REMARK VINA RESULT:      -9.5      0.000      0.000
REMARK  Name = 
REMARK  3 active torsions:
REMARK  status: ('A' for Active; 'I' for Inactive)
REMARK    1  A    between atoms: C_1  and  N_2
REMARK    2  A    between atoms: C_8  and  N_9
REMARK    3  A    between atoms: N_12  and  C_13
REMARK                            x       y       z     vdW  Elec       q    Type
REMARK                         _______ _______ _______ _____ _____    ______ ____
ROOT
ATOM      1  N   UNL     1       1.603   9.611  18.581  0.00  0.00    +0.000 N 
ATOM      2  C   UNL     1       2.382   8.670  17.979  0.00  0.00    +0.000 C 
ATOM      3  O   UNL     1       2.746   8.878  16.819  0.00  0.00    +0.000 OA
ATOM      4  N   UNL     1       2.627   7.497  18.629  0.00  0.00    +0.000 N 
ATOM      5  H   UNL     1       1.208  10.223  17.869  0.00  0.00    +0.000 HD
ATOM      6  H   UNL     1       2.172   7.338  19.515  0.00  0.00    +0.000 HD
ENDROOT
BRANCH   4   7
ATOM      7  C   UNL     1       3.082   6.340  17.865  0.00  0.00    +0.000 C 
ATOM      8  C   UNL     1       2.192   5.110  18.087  0.00  0.00    +0.000 C 
ATOM      9  C   UNL     1       2.624   4.381  19.360  0.00  0.00    +0.000 C 
ATOM     10  C   UNL     1       1.586   3.288  19.782  0.00  0.00    +0.000 C 
ATOM     11  C   UNL     1       0.929   4.358  20.680  0.00  0.00    +0.000 C 
ATOM     12  C   UNL     1       2.323   5.007  20.770  0.00  0.00    +0.000 C 
ATOM     13  O   UNL     1       3.974   3.877  19.195  0.00  0.00    +0.000 OA
ATOM     14  C   UNL     1       4.888   4.734  18.631  0.00  0.00    +0.000 A 
ATOM     15  C   UNL     1       6.201   4.260  18.552  0.00  0.00    +0.000 A 
ATOM     16  C   UNL     1       7.180   5.032  17.931  0.00  0.00    +0.000 A 
ATOM     17  C   UNL     1       6.847   6.290  17.440  0.00  0.00    +0.000 A 
ATOM     18  F   UNL     1       7.784   7.026  16.829  0.00  0.00    +0.000 F 
ATOM     19  C   UNL     1       5.541   6.771  17.517  0.00  0.00    +0.000 A 
ATOM     20  C   UNL     1       4.532   5.972  18.072  0.00  0.00    +0.000 A 
ENDBRANCH   4   7
BRANCH   1  28
ATOM     21  C   UNL     1      -1.999  11.421  23.340  0.00  0.00    +0.000 C 
ATOM     22  N   UNL     1      -1.417  11.503  22.009  0.00  0.00    +0.000 N 
ATOM     23  C   UNL     1      -1.762  12.592  21.216  0.00  0.00    +0.000 A 
ATOM     24  O   UNL     1      -2.502  13.509  21.566  0.00  0.00    +0.000 OA
ATOM     25  C   UNL     1      -1.215  12.621  19.844  0.00  0.00    +0.000 A 
ATOM     26  C   UNL     1      -0.372  11.687  19.399  0.00  0.00    +0.000 A 
ATOM     27  C   UNL     1       0.060  10.589  20.268  0.00  0.00    +0.000 A 
ATOM     28  C   UNL     1       0.949   9.586  19.823  0.00  0.00    +0.000 A 
ATOM     29  C   UNL     1       1.162   8.446  20.605  0.00  0.00    +0.000 A 
ATOM     30  C   UNL     1       0.586   8.338  21.866  0.00  0.00    +0.000 A 
ATOM     31  C   UNL     1      -0.240   9.356  22.340  0.00  0.00    +0.000 A 
ATOM     32  C   UNL     1      -0.529  10.479  21.549  0.00  0.00    +0.000 A 
ENDBRANCH   1  28
TORSDOF 2
ENDMDL
MODEL 2
REMARK VINA RESULT:      -9.3      2.972      8.115
REMARK  Name = 
REMARK  3 active torsions:
REMARK  status: ('A' for Active; 'I' for Inactive)
REMARK    1  A    between atoms: C_1  and  N_2
REMARK    2  A    between atoms: C_8  and  N_9
REMARK    3  A    between atoms: N_12  and  C_13
REMARK                            x       y       z     vdW  Elec       q    Type
REMARK                         _______ _______ _______ _____ _____    ______ ____
ROOT
ATOM      1  N   UNL     1       2.714   8.323  18.239  0.00  0.00    +0.000 N 
ATOM      2  C   UNL     1       1.986   9.420  17.892  0.00  0.00    +0.000 C 
ATOM      3  O   UNL     1       2.560  10.325  17.279  0.00  0.00    +0.000 OA
ATOM      4  N   UNL     1       0.700   9.531  18.332  0.00  0.00    +0.000 N 
ATOM      5  H   UNL     1       3.705   8.547  18.177  0.00  0.00    +0.000 HD
ATOM      6  H   UNL     1       0.347   8.820  18.954  0.00  0.00    +0.000 HD
ENDROOT
BRANCH   4   7
ATOM      7  C   UNL     1       0.059  10.842  18.340  0.00  0.00    +0.000 C 
ATOM      8  C   UNL     1       0.269  11.585  19.666  0.00  0.00    +0.000 C 
ATOM      9  C   UNL     1      -0.769  11.122  20.688  0.00  0.00    +0.000 C 
ATOM     10  C   UNL     1      -0.433  11.637  22.129  0.00  0.00    +0.000 C 
ATOM     11  C   UNL     1       0.311  10.303  22.356  0.00  0.00    +0.000 C 
ATOM     12  C   UNL     1      -0.662   9.692  21.331  0.00  0.00    +0.000 C 
ATOM     13  O   UNL     1      -2.096  11.485  20.231  0.00  0.00    +0.000 OA
ATOM     14  C   UNL     1      -2.379  11.244  18.907  0.00  0.00    +0.000 A 
ATOM     15  C   UNL     1      -3.687  11.526  18.502  0.00  0.00    +0.000 A 
ATOM     16  C   UNL     1      -4.044  11.379  17.164  0.00  0.00    +0.000 A 
ATOM     17  C   UNL     1      -3.104  10.905  16.255  0.00  0.00    +0.000 A 
ATOM     18  F   UNL     1      -3.443  10.778  14.966  0.00  0.00    +0.000 F 
ATOM     19  C   UNL     1      -1.799  10.618  16.651  0.00  0.00    +0.000 A 
ATOM     20  C   UNL     1      -1.408  10.834  17.980  0.00  0.00    +0.000 A 
ENDBRANCH   4   7
BRANCH   1  28
ATOM     21  C   UNL     1       2.061   2.394  20.062  0.00  0.00    +0.000 C 
ATOM     22  N   UNL     1       2.519   3.477  19.205  0.00  0.00    +0.000 N 
ATOM     23  C   UNL     1       3.232   3.141  18.060  0.00  0.00    +0.000 A 
ATOM     24  O   UNL     1       3.483   1.993  17.702  0.00  0.00    +0.000 OA
ATOM     25  C   UNL     1       3.747   4.258  17.240  0.00  0.00    +0.000 A 
ATOM     26  C   UNL     1       3.486   5.532  17.537  0.00  0.00    +0.000 A 
ATOM     27  C   UNL     1       2.656   5.879  18.695  0.00  0.00    +0.000 A 
ATOM     28  C   UNL     1       2.365   7.219  19.032  0.00  0.00    +0.000 A 
ATOM     29  C   UNL     1       1.759   7.513  20.259  0.00  0.00    +0.000 A 
ATOM     30  C   UNL     1       1.346   6.489  21.104  0.00  0.00    +0.000 A 
ATOM     31  C   UNL     1       1.571   5.161  20.746  0.00  0.00    +0.000 A 
ATOM     32  C   UNL     1       2.239   4.837  19.554  0.00  0.00    +0.000 A 
ENDBRANCH   1  28
TORSDOF 2
ENDMDL
MODEL 3
REMARK VINA RESULT:      -8.9      3.017      8.082
REMARK  Name = 
REMARK  3 active torsions:
REMARK  status: ('A' for Active; 'I' for Inactive)
REMARK    1  A    between atoms: C_1  and  N_2
REMARK    2  A    between atoms: C_8  and  N_9
REMARK    3  A    between atoms: N_12  and  C_13
REMARK                            x       y       z     vdW  Elec       q    Type
REMARK                         _______ _______ _______ _____ _____    ______ ____
ROOT
ATOM      1  N   UNL     1       1.525   8.050  21.438  0.00  0.00    +0.000 N 
ATOM      2  C   UNL     1       1.169   9.331  21.731  0.00  0.00    +0.000 C 
ATOM      3  O   UNL     1       0.748   9.569  22.866  0.00  0.00    +0.000 OA
ATOM      4  N   UNL     1       1.177  10.266  20.738  0.00  0.00    +0.000 N 
ATOM      5  H   UNL     1       1.120   7.424  22.132  0.00  0.00    +0.000 HD
ATOM      6  H   UNL     1       1.391   9.964  19.800  0.00  0.00    +0.000 HD
ENDROOT
BRANCH   4   7
ATOM      7  C   UNL     1       0.418  11.499  20.914  0.00  0.00    +0.000 C 
ATOM      8  C   UNL     1      -1.042  11.353  20.466  0.00  0.00    +0.000 C 
ATOM      9  C   UNL     1      -1.143  11.560  18.955  0.00  0.00    +0.000 C 
ATOM     10  C   UNL     1      -2.553  11.152  18.407  0.00  0.00    +0.000 C 
ATOM     11  C   UNL     1      -1.960   9.754  18.124  0.00  0.00    +0.000 C 
ATOM     12  C   UNL     1      -0.602  10.462  17.969  0.00  0.00    +0.000 C 
ATOM     13  O   UNL     1      -0.756  12.918  18.625  0.00  0.00    +0.000 OA
ATOM     14  C   UNL     1       0.370  13.406  19.243  0.00  0.00    +0.000 A 
ATOM     15  C   UNL     1       0.773  14.687  18.854  0.00  0.00    +0.000 A 
ATOM     16  C   UNL     1       1.863  15.290  19.479  0.00  0.00    +0.000 A 
ATOM     17  C   UNL     1       2.566  14.586  20.450  0.00  0.00    +0.000 A 
ATOM     18  F   UNL     1       3.604  15.171  21.063  0.00  0.00    +0.000 F 
ATOM     19  C   UNL     1       2.173  13.308  20.842  0.00  0.00    +0.000 A 
ATOM     20  C   UNL     1       1.034  12.721  20.274  0.00  0.00    +0.000 A 
ENDBRANCH   4   7
BRANCH   1  28
ATOM     21  C   UNL     1       3.123   3.703  17.261  0.00  0.00    +0.000 C 
ATOM     22  N   UNL     1       2.661   4.202  18.547  0.00  0.00    +0.000 N 
ATOM     23  C   UNL     1       2.397   3.273  19.547  0.00  0.00    +0.000 A 
ATOM     24  O   UNL     1       2.551   2.059  19.435  0.00  0.00    +0.000 OA
ATOM     25  C   UNL     1       1.863   3.796  20.822  0.00  0.00    +0.000 A 
ATOM     26  C   UNL     1       1.704   5.103  21.039  0.00  0.00    +0.000 A 
ATOM     27  C   UNL     1       2.069   6.085  20.014  0.00  0.00    +0.000 A 
ATOM     28  C   UNL     1       1.910   7.473  20.217  0.00  0.00    +0.000 A 
ATOM     29  C   UNL     1       2.062   8.357  19.142  0.00  0.00    +0.000 A 
ATOM     30  C   UNL     1       2.471   7.890  17.899  0.00  0.00    +0.000 A 
ATOM     31  C   UNL     1       2.695   6.527  17.710  0.00  0.00    +0.000 A 
ATOM     32  C   UNL     1       2.482   5.608  18.749  0.00  0.00    +0.000 A 
ENDBRANCH   1  28
TORSDOF 2
ENDMDL
MODEL 4
REMARK VINA RESULT:      -8.7      3.750      9.266
REMARK  Name = 
REMARK  3 active torsions:
REMARK  status: ('A' for Active; 'I' for Inactive)
REMARK    1  A    between atoms: C_1  and  N_2
REMARK    2  A    between atoms: C_8  and  N_9
REMARK    3  A    between atoms: N_12  and  C_13
REMARK                            x       y       z     vdW  Elec       q    Type
REMARK                         _______ _______ _______ _____ _____    ______ ____
ROOT
ATOM      1  N   UNL     1       0.308  11.558  19.001  0.00  0.00    +0.000 N 
ATOM      2  C   UNL     1      -0.838  12.281  18.865  0.00  0.00    +0.000 C 
ATOM      3  O   UNL     1      -0.791  13.319  18.200  0.00  0.00    +0.000 OA
ATOM      4  N   UNL     1      -1.949  11.901  19.559  0.00  0.00    +0.000 N 
ATOM      5  H   UNL     1       1.103  12.144  18.755  0.00  0.00    +0.000 HD
ATOM      6  H   UNL     1      -1.870  11.126  20.199  0.00  0.00    +0.000 HD
ENDROOT
BRANCH   4   7
ATOM      7  C   UNL     1      -3.026  12.864  19.763  0.00  0.00    +0.000 C 
ATOM      8  C   UNL     1      -2.730  13.830  20.918  0.00  0.00    +0.000 C 
ATOM      9  C   UNL     1      -3.118  13.182  22.248  0.00  0.00    +0.000 C 
ATOM     10  C   UNL     1      -2.587  14.004  23.470  0.00  0.00    +0.000 C 
ATOM     11  C   UNL     1      -1.339  13.095  23.450  0.00  0.00    +0.000 C 
ATOM     12  C   UNL     1      -2.251  12.014  22.841  0.00  0.00    +0.000 C 
ATOM     13  O   UNL     1      -4.549  12.950  22.275  0.00  0.00    +0.000 OA
ATOM     14  C   UNL     1      -5.110  12.416  21.138  0.00  0.00    +0.000 A 
ATOM     15  C   UNL     1      -6.475  12.126  21.209  0.00  0.00    +0.000 A 
ATOM     16  C   UNL     1      -7.141  11.649  20.083  0.00  0.00    +0.000 A 
ATOM     17  C   UNL     1      -6.425  11.421  18.913  0.00  0.00    +0.000 A 
ATOM     18  F   UNL     1      -7.067  10.977  17.825  0.00  0.00    +0.000 F 
ATOM     19  C   UNL     1      -5.063  11.705  18.834  0.00  0.00    +0.000 A 
ATOM     20  C   UNL     1      -4.398  12.256  19.938  0.00  0.00    +0.000 A 
ENDBRANCH   4   7
BRANCH   1  28
ATOM     21  C   UNL     1       2.273   5.852  20.575  0.00  0.00    +0.000 C 
ATOM     22  N   UNL     1       2.094   7.000  19.700  0.00  0.00    +0.000 N 
ATOM     23  C   UNL     1       2.584   6.909  18.402  0.00  0.00    +0.000 A 
ATOM     24  O   UNL     1       3.135   5.918  17.928  0.00  0.00    +0.000 OA
ATOM     25  C   UNL     1       2.454   8.111  17.552  0.00  0.00    +0.000 A 
ATOM     26  C   UNL     1       1.833   9.213  17.975  0.00  0.00    +0.000 A 
ATOM     27  C   UNL     1       1.238   9.273  19.313  0.00  0.00    +0.000 A 
ATOM     28  C   UNL     1       0.577  10.427  19.788  0.00  0.00    +0.000 A 
ATOM     29  C   UNL     1       0.219  10.520  21.138  0.00  0.00    +0.000 A 
ATOM     30  C   UNL     1       0.414   9.443  21.994  0.00  0.00    +0.000 A 
ATOM     31  C   UNL     1       1.005   8.275  21.516  0.00  0.00    +0.000 A 
ATOM     32  C   UNL     1       1.439   8.178  20.184  0.00  0.00    +0.000 A 
ENDBRANCH   1  28
TORSDOF 2
ENDMDL
MODEL 5
REMARK VINA RESULT:      -7.9      2.747      4.698
REMARK  Name = 
REMARK  3 active torsions:
REMARK  status: ('A' for Active; 'I' for Inactive)
REMARK    1  A    between atoms: C_1  and  N_2
REMARK    2  A    between atoms: C_8  and  N_9
REMARK    3  A    between atoms: N_12  and  C_13
REMARK                            x       y       z     vdW  Elec       q    Type
REMARK                         _______ _______ _______ _____ _____    ______ ____
ROOT
ATOM      1  N   UNL     1       2.759   5.486  19.244  0.00  0.00    +0.000 N 
ATOM      2  C   UNL     1       3.437   4.501  18.592  0.00  0.00    +0.000 C 
ATOM      3  O   UNL     1       3.603   3.428  19.179  0.00  0.00    +0.000 OA
ATOM      4  N   UNL     1       4.002   4.773  17.381  0.00  0.00    +0.000 N 
ATOM      5  H   UNL     1       2.734   5.271  20.239  0.00  0.00    +0.000 HD
ATOM      6  H   UNL     1       3.950   5.718  17.033  0.00  0.00    +0.000 HD
ENDROOT
BRANCH   4   7
ATOM      7  C   UNL     1       5.059   3.903  16.876  0.00  0.00    +0.000 C 
ATOM      8  C   UNL     1       6.258   3.830  17.831  0.00  0.00    +0.000 C 
ATOM      9  C   UNL     1       7.186   5.021  17.590  0.00  0.00    +0.000 C 
ATOM     10  C   UNL     1       8.271   5.147  18.712  0.00  0.00    +0.000 C 
ATOM     11  C   UNL     1       7.307   6.110  19.438  0.00  0.00    +0.000 C 
ATOM     12  C   UNL     1       6.756   6.463  18.044  0.00  0.00    +0.000 C 
ATOM     13  O   UNL     1       7.734   4.944  16.250  0.00  0.00    +0.000 OA
ATOM     14  C   UNL     1       6.856   4.629  15.240  0.00  0.00    +0.000 A 
ATOM     15  C   UNL     1       7.384   4.637  13.947  0.00  0.00    +0.000 A 
ATOM     16  C   UNL     1       6.585   4.261  12.869  0.00  0.00    +0.000 A 
ATOM     17  C   UNL     1       5.253   3.928  13.092  0.00  0.00    +0.000 A 
ATOM     18  F   UNL     1       4.488   3.551  12.059  0.00  0.00    +0.000 F 
ATOM     19  C   UNL     1       4.717   3.920  14.379  0.00  0.00    +0.000 A 
ATOM     20  C   UNL     1       5.532   4.224  15.478  0.00  0.00    +0.000 A 
ENDBRANCH   4   7
BRANCH   1  28
ATOM     21  C   UNL     1       0.557  11.317  19.448  0.00  0.00    +0.000 C 
ATOM     22  N   UNL     1       0.786   9.966  19.938  0.00  0.00    +0.000 N 
ATOM     23  C   UNL     1       0.217   9.613  21.156  0.00  0.00    +0.000 A 
ATOM     24  O   UNL     1      -0.489  10.350  21.841  0.00  0.00    +0.000 OA
ATOM     25  C   UNL     1       0.518   8.260  21.668  0.00  0.00    +0.000 A 
ATOM     26  C   UNL     1       1.243   7.384  20.968  0.00  0.00    +0.000 A 
ATOM     27  C   UNL     1       1.764   7.729  19.643  0.00  0.00    +0.000 A 
ATOM     28  C   UNL     1       2.534   6.823  18.881  0.00  0.00    +0.000 A 
ATOM     29  C   UNL     1       3.192   7.265  17.728  0.00  0.00    +0.000 A 
ATOM     30  C   UNL     1       3.010   8.563  17.266  0.00  0.00    +0.000 A 
ATOM     31  C   UNL     1       2.196   9.444  17.977  0.00  0.00    +0.000 A 
ATOM     32  C   UNL     1       1.580   9.051  19.176  0.00  0.00    +0.000 A 
ENDBRANCH   1  28
TORSDOF 2
ENDMDL
MODEL 6
REMARK VINA RESULT:      -7.9      4.019      7.227
REMARK  Name = 
REMARK  3 active torsions:
REMARK  status: ('A' for Active; 'I' for Inactive)
REMARK    1  A    between atoms: C_1  and  N_2
REMARK    2  A    between atoms: C_8  and  N_9
REMARK    3  A    between atoms: N_12  and  C_13
REMARK                            x       y       z     vdW  Elec       q    Type
REMARK                         _______ _______ _______ _____ _____    ______ ____
ROOT
ATOM      1  N   UNL     1      -2.254  11.840  23.249  0.00  0.00    +0.000 N 
ATOM      2  C   UNL     1      -1.090  11.385  22.709  0.00  0.00    +0.000 C 
ATOM      3  O   UNL     1      -0.380  10.650  23.400  0.00  0.00    +0.000 OA
ATOM      4  N   UNL     1      -0.699  11.849  21.487  0.00  0.00    +0.000 N 
ATOM      5  H   UNL     1      -2.221  11.721  24.260  0.00  0.00    +0.000 HD
ATOM      6  H   UNL     1      -1.259  12.564  21.048  0.00  0.00    +0.000 HD
ENDROOT
BRANCH   4   7
ATOM      7  C   UNL     1       0.697  11.717  21.088  0.00  0.00    +0.000 C 
ATOM      8  C   UNL     1       1.282  13.038  20.571  0.00  0.00    +0.000 C 
ATOM      9  C   UNL     1       0.926  13.221  19.096  0.00  0.00    +0.000 C 
ATOM     10  C   UNL     1       1.256  14.668  18.595  0.00  0.00    +0.000 C 
ATOM     11  C   UNL     1      -0.201  15.044  18.941  0.00  0.00    +0.000 C 
ATOM     12  C   UNL     1      -0.549  13.568  18.677  0.00  0.00    +0.000 C 
ATOM     13  O   UNL     1       1.549  12.172  18.313  0.00  0.00    +0.000 OA
ATOM     14  C   UNL     1       1.469  10.896  18.816  0.00  0.00    +0.000 A 
ATOM     15  C   UNL     1       2.006   9.887  18.011  0.00  0.00    +0.000 A 
ATOM     16  C   UNL     1       2.032   8.573  18.472  0.00  0.00    +0.000 A 
ATOM     17  C   UNL     1       1.477   8.274  19.712  0.00  0.00    +0.000 A 
ATOM     18  F   UNL     1       1.517   7.013  20.162  0.00  0.00    +0.000 F 
ATOM     19  C   UNL     1       0.938   9.273  20.520  0.00  0.00    +0.000 A 
ATOM     20  C   UNL     1       0.973  10.609  20.099  0.00  0.00    +0.000 A 
ENDBRANCH   4   7
BRANCH   1  28
ATOM     21  C   UNL     1      -5.874  16.911  22.964  0.00  0.00    +0.000 C 
ATOM     22  N   UNL     1      -4.858  16.035  23.526  0.00  0.00    +0.000 N 
ATOM     23  C   UNL     1      -4.265  16.415  24.725  0.00  0.00    +0.000 A 
ATOM     24  O   UNL     1      -4.555  17.425  25.362  0.00  0.00    +0.000 OA
ATOM     25  C   UNL     1      -3.187  15.548  25.243  0.00  0.00    +0.000 A 
ATOM     26  C   UNL     1      -2.838  14.413  24.635  0.00  0.00    +0.000 A 
ATOM     27  C   UNL     1      -3.528  13.969  23.420  0.00  0.00    +0.000 A 
ATOM     28  C   UNL     1      -3.179  12.773  22.755  0.00  0.00    +0.000 A 
ATOM     29  C   UNL     1      -3.708  12.500  21.488  0.00  0.00    +0.000 A 
ATOM     30  C   UNL     1      -4.656  13.345  20.923  0.00  0.00    +0.000 A 
ATOM     31  C   UNL     1      -5.055  14.493  21.605  0.00  0.00    +0.000 A 
ATOM     32  C   UNL     1      -4.490  14.831  22.845  0.00  0.00    +0.000 A 
ENDBRANCH   1  28
TORSDOF 2
ENDMDL
MODEL 7
REMARK VINA RESULT:      -7.8      6.117      9.381
REMARK  Name = 
REMARK  3 active torsions:
REMARK  status: ('A' for Active; 'I' for Inactive)
REMARK    1  A    between atoms: C_1  and  N_2
REMARK    2  A    between atoms: C_8  and  N_9
REMARK    3  A    between atoms: N_12  and  C_13
REMARK                            x       y       z     vdW  Elec       q    Type
REMARK                         _______ _______ _______ _____ _____    ______ ____
ROOT
ATOM      1  N   UNL     1       5.448  15.736  18.002  0.00  0.00    +0.000 N 
ATOM      2  C   UNL     1       4.193  15.232  17.837  0.00  0.00    +0.000 C 
ATOM      3  O   UNL     1       3.466  15.759  16.991  0.00  0.00    +0.000 OA
ATOM      4  N   UNL     1       3.753  14.258  18.683  0.00  0.00    +0.000 N 
ATOM      5  H   UNL     1       5.492  16.663  17.584  0.00  0.00    +0.000 HD
ATOM      6  H   UNL     1       4.352  13.982  19.446  0.00  0.00    +0.000 HD
ENDROOT
BRANCH   4   7
ATOM      7  C   UNL     1       2.320  14.011  18.802  0.00  0.00    +0.000 C 
ATOM      8  C   UNL     1       1.639  14.990  19.767  0.00  0.00    +0.000 C 
ATOM      9  C   UNL     1       1.797  14.493  21.205  0.00  0.00    +0.000 C 
ATOM     10  C   UNL     1       1.367  15.583  22.245  0.00  0.00    +0.000 C 
ATOM     11  C   UNL     1       2.846  16.024  22.289  0.00  0.00    +0.000 C 
ATOM     12  C   UNL     1       3.195  14.570  21.918  0.00  0.00    +0.000 C 
ATOM     13  O   UNL     1       1.104  13.229  21.360  0.00  0.00    +0.000 OA
ATOM     14  C   UNL     1       1.282  12.302  20.361  0.00  0.00    +0.000 A 
ATOM     15  C   UNL     1       0.671  11.061  20.565  0.00  0.00    +0.000 A 
ATOM     16  C   UNL     1       0.739  10.084  19.573  0.00  0.00    +0.000 A 
ATOM     17  C   UNL     1       1.457  10.342  18.411  0.00  0.00    +0.000 A 
ATOM     18  F   UNL     1       1.509   9.410  17.451  0.00  0.00    +0.000 F 
ATOM     19  C   UNL     1       2.071  11.575  18.201  0.00  0.00    +0.000 A 
ATOM     20  C   UNL     1       1.947  12.591  19.159  0.00  0.00    +0.000 A 
ENDBRANCH   4   7
BRANCH   1  28
ATOM     21  C   UNL     1      10.200  12.799  20.774  0.00  0.00    +0.000 C 
ATOM     22  N   UNL     1       9.260  13.084  19.701  0.00  0.00    +0.000 N 
ATOM     23  C   UNL     1       9.328  12.303  18.554  0.00  0.00    +0.000 A 
ATOM     24  O   UNL     1      10.108  11.368  18.387  0.00  0.00    +0.000 OA
ATOM     25  C   UNL     1       8.411  12.653  17.449  0.00  0.00    +0.000 A 
ATOM     26  C   UNL     1       7.507  13.628  17.563  0.00  0.00    +0.000 A 
ATOM     27  C   UNL     1       7.377  14.390  18.809  0.00  0.00    +0.000 A 
ATOM     28  C   UNL     1       6.429  15.427  18.957  0.00  0.00    +0.000 A 
ATOM     29  C   UNL     1       6.486  16.268  20.073  0.00  0.00    +0.000 A 
ATOM     30  C   UNL     1       7.401  16.028  21.091  0.00  0.00    +0.000 A 
ATOM     31  C   UNL     1       8.295  14.964  20.983  0.00  0.00    +0.000 A 
ATOM     32  C   UNL     1       8.310  14.146  19.842  0.00  0.00    +0.000 A 
ENDBRANCH   1  28
TORSDOF 2
ENDMDL
MODEL 8
REMARK VINA RESULT:      -7.7      3.951      9.532
REMARK  Name = 
REMARK  3 active torsions:
REMARK  status: ('A' for Active; 'I' for Inactive)
REMARK    1  A    between atoms: C_1  and  N_2
REMARK    2  A    between atoms: C_8  and  N_9
REMARK    3  A    between atoms: N_12  and  C_13
REMARK                            x       y       z     vdW  Elec       q    Type
REMARK                         _______ _______ _______ _____ _____    ______ ____
ROOT
ATOM      1  N   UNL     1      -0.151  12.836  21.203  0.00  0.00    +0.000 N 
ATOM      2  C   UNL     1      -1.282  13.499  20.834  0.00  0.00    +0.000 C 
ATOM      3  O   UNL     1      -1.307  14.725  20.979  0.00  0.00    +0.000 OA
ATOM      4  N   UNL     1      -2.372  12.783  20.438  0.00  0.00    +0.000 N 
ATOM      5  H   UNL     1       0.406  13.437  21.808  0.00  0.00    +0.000 HD
ATOM      6  H   UNL     1      -2.325  11.777  20.487  0.00  0.00    +0.000 HD
ENDROOT
BRANCH   4   7
ATOM      7  C   UNL     1      -3.685  13.418  20.449  0.00  0.00    +0.000 C 
ATOM      8  C   UNL     1      -3.896  14.296  21.690  0.00  0.00    +0.000 C 
ATOM      9  C   UNL     1      -4.354  13.432  22.865  0.00  0.00    +0.000 C 
ATOM     10  C   UNL     1      -4.318  14.224  24.216  0.00  0.00    +0.000 C 
ATOM     11  C   UNL     1      -2.894  13.663  24.424  0.00  0.00    +0.000 C 
ATOM     12  C   UNL     1      -3.342  12.460  23.573  0.00  0.00    +0.000 C 
ATOM     13  O   UNL     1      -5.647  12.848  22.562  0.00  0.00    +0.000 OA
ATOM     14  C   UNL     1      -5.805  12.318  21.304  0.00  0.00    +0.000 A 
ATOM     15  C   UNL     1      -7.028  11.690  21.055  0.00  0.00    +0.000 A 
ATOM     16  C   UNL     1      -7.303  11.186  19.786  0.00  0.00    +0.000 A 
ATOM     17  C   UNL     1      -6.333  11.272  18.793  0.00  0.00    +0.000 A 
ATOM     18  F   UNL     1      -6.602  10.802  17.569  0.00  0.00    +0.000 F 
ATOM     19  C   UNL     1      -5.109  11.894  19.033  0.00  0.00    +0.000 A 
ATOM     20  C   UNL     1      -4.851  12.471  20.284  0.00  0.00    +0.000 A 
ENDBRANCH   4   7
BRANCH   1  28
ATOM     21  C   UNL     1       1.738   7.145  19.487  0.00  0.00    +0.000 C 
ATOM     22  N   UNL     1       1.566   8.584  19.353  0.00  0.00    +0.000 N 
ATOM     23  C   UNL     1       2.035   9.188  18.193  0.00  0.00    +0.000 A 
ATOM     24  O   UNL     1       2.561   8.592  17.255  0.00  0.00    +0.000 OA
ATOM     25  C   UNL     1       1.913  10.658  18.107  0.00  0.00    +0.000 A 
ATOM     26  C   UNL     1       1.318  11.376  19.062  0.00  0.00    +0.000 A 
ATOM     27  C   UNL     1       0.744  10.724  20.243  0.00  0.00    +0.000 A 
ATOM     28  C   UNL     1       0.111  11.459  21.269  0.00  0.00    +0.000 A 
ATOM     29  C   UNL     1      -0.226  10.828  22.472  0.00  0.00    +0.000 A 
ATOM     30  C   UNL     1      -0.037   9.460  22.627  0.00  0.00    +0.000 A 
ATOM     31  C   UNL     1       0.526   8.716  21.592  0.00  0.00    +0.000 A 
ATOM     32  C   UNL     1       0.939   9.333  20.400  0.00  0.00    +0.000 A 
ENDBRANCH   1  28
TORSDOF 2
ENDMDL
MODEL 9
REMARK VINA RESULT:      -7.6      4.768      8.112
REMARK  Name = 
REMARK  3 active torsions:
REMARK  status: ('A' for Active; 'I' for Inactive)
REMARK    1  A    between atoms: C_1  and  N_2
REMARK    2  A    between atoms: C_8  and  N_9
REMARK    3  A    between atoms: N_12  and  C_13
REMARK                            x       y       z     vdW  Elec       q    Type
REMARK                         _______ _______ _______ _____ _____    ______ ____
ROOT
ATOM      1  N   UNL     1      -0.319  14.749  18.286  0.00  0.00    +0.000 N 
ATOM      2  C   UNL     1      -0.630  13.479  18.666  0.00  0.00    +0.000 C 
ATOM      3  O   UNL     1      -1.149  12.735  17.829  0.00  0.00    +0.000 OA
ATOM      4  N   UNL     1      -0.470  13.118  19.972  0.00  0.00    +0.000 N 
ATOM      5  H   UNL     1      -0.826  14.975  17.433  0.00  0.00    +0.000 HD
ATOM      6  H   UNL     1      -0.180  13.825  20.629  0.00  0.00    +0.000 HD
ENDROOT
BRANCH   4   7
ATOM      7  C   UNL     1      -1.172  11.944  20.478  0.00  0.00    +0.000 C 
ATOM      8  C   UNL     1      -2.326  12.317  21.418  0.00  0.00    +0.000 C 
ATOM      9  C   UNL     1      -1.790  12.549  22.831  0.00  0.00    +0.000 C 
ATOM     10  C   UNL     1      -2.870  13.197  23.762  0.00  0.00    +0.000 C 
ATOM     11  C   UNL     1      -2.284  14.570  23.368  0.00  0.00    +0.000 C 
ATOM     12  C   UNL     1      -0.948  13.836  23.155  0.00  0.00    +0.000 C 
ATOM     13  O   UNL     1      -1.235  11.314  23.348  0.00  0.00    +0.000 OA
ATOM     14  C   UNL     1      -0.437  10.590  22.493  0.00  0.00    +0.000 A 
ATOM     15  C   UNL     1       0.153   9.444  23.032  0.00  0.00    +0.000 A 
ATOM     16  C   UNL     1       0.921   8.612  22.220  0.00  0.00    +0.000 A 
ATOM     17  C   UNL     1       1.129   8.962  20.890  0.00  0.00    +0.000 A 
ATOM     18  F   UNL     1       1.853   8.154  20.104  0.00  0.00    +0.000 F 
ATOM     19  C   UNL     1       0.547  10.104  20.345  0.00  0.00    +0.000 A 
ATOM     20  C   UNL     1      -0.288  10.909  21.133  0.00  0.00    +0.000 A 
ENDBRANCH   4   7
BRANCH   1  28
ATOM     21  C   UNL     1       3.668  18.630  21.103  0.00  0.00    +0.000 C 
ATOM     22  N   UNL     1       3.275  17.521  20.247  0.00  0.00    +0.000 N 
ATOM     23  C   UNL     1       4.284  16.777  19.646  0.00  0.00    +0.000 A 
ATOM     24  O   UNL     1       5.487  16.969  19.804  0.00  0.00    +0.000 OA
ATOM     25  C   UNL     1       3.863  15.700  18.726  0.00  0.00    +0.000 A 
ATOM     26  C   UNL     1       2.578  15.399  18.529  0.00  0.00    +0.000 A 
ATOM     27  C   UNL     1       1.520  16.127  19.235  0.00  0.00    +0.000 A 
ATOM     28  C   UNL     1       0.152  15.831  19.045  0.00  0.00    +0.000 A 
ATOM     29  C   UNL     1      -0.825  16.687  19.566  0.00  0.00    +0.000 A 
ATOM     30  C   UNL     1      -0.464  17.770  20.358  0.00  0.00    +0.000 A 
ATOM     31  C   UNL     1       0.883  18.029  20.606  0.00  0.00    +0.000 A 
ATOM     32  C   UNL     1       1.889  17.230  20.039  0.00  0.00    +0.000 A 
ENDBRANCH   1  28
TORSDOF 2
ENDMDL
