MODEL 1
REMARK VINA RESULT:      -6.9      0.000      0.000
REMARK  Name = 
REMARK  8 active torsions:
REMARK  status: ('A' for Active; 'I' for Inactive)
REMARK    1  A    between atoms: N_1  and  S_2
REMARK    2  A    between atoms: S_2  and  C_5
REMARK    3  A    between atoms: C_7  and  C_8
REMARK    4  A    between atoms: N_10  and  C_11
REMARK    5  A    between atoms: C_17  and  S_18
REMARK    6  A    between atoms: S_18  and  C_21
REMARK    7  A    between atoms: C_21  and  C_22
REMARK    8  A    between atoms: C_22  and  O_23
REMARK                            x       y       z     vdW  Elec       q    Type
REMARK                         _______ _______ _______ _____ _____    ______ ____
ROOT
ATOM      1  C   UNL     1       1.172   9.315  19.860  0.00  0.00    +0.000 A 
ATOM      2  C   UNL     1       1.973   8.964  18.758  0.00  0.00    +0.000 A 
ATOM      3  C   UNL     1       2.581   7.695  18.675  0.00  0.00    +0.000 A 
ATOM      4  C   UNL     1       2.373   6.782  19.721  0.00  0.00    +0.000 A 
ATOM      5  C   UNL     1       1.564   7.142  20.815  0.00  0.00    +0.000 A 
ATOM      6  C   UNL     1       0.970   8.404  20.894  0.00  0.00    +0.000 A 
ATOM      7 CL   UNL     1       0.018   8.715  22.301  0.00  0.00    +0.000 Cl
ENDROOT
BRANCH   3   8
ATOM      8  C   UNL     1       3.502   7.493  17.522  0.00  0.00    +0.000 C 
ATOM      9  O   UNL     1       3.125   7.831  16.408  0.00  0.00    +0.000 OA
ATOM     10  N   UNL     1       4.738   6.966  17.781  0.00  0.00    +0.000 N 
ATOM     11  H   UNL     1       4.973   6.684  18.734  0.00  0.00    +0.000 HD
BRANCH  10  12
ATOM     12  C   UNL     1       5.801   6.850  16.779  0.00  0.00    +0.000 C 
ATOM     13  C   UNL     1       7.165   7.141  17.417  0.00  0.00    +0.000 C 
ATOM     14  C   UNL     1       7.537   6.088  18.462  0.00  0.00    +0.000 C 
ATOM     15  C   UNL     1       7.447   4.661  17.926  0.00  0.00    +0.000 C 
ATOM     16  C   UNL     1       6.191   4.368  17.104  0.00  0.00    +0.000 C 
ATOM     17  C   UNL     1       5.847   5.474  16.111  0.00  0.00    +0.000 C 
ENDBRANCH  10  12
ENDBRANCH   3   8
BRANCH   1  18
ATOM     18  S   UNL     1       0.504  10.948  19.955  0.00  0.00    +0.000 S 
ATOM     19  O   UNL     1       1.180  11.660  21.016  0.00  0.00    +0.000 OA
ATOM     20  O   UNL     1      -0.929  10.874  19.878  0.00  0.00    +0.000 OA
BRANCH  18  21
ATOM     21  N   UNL     1       1.043  11.667  18.534  0.00  0.00    +0.000 NA
ATOM     22  H   UNL     1       1.649  12.459  18.758  0.00  0.00    +0.000 HD
ATOM     23  H   UNL     1       0.248  11.919  17.941  0.00  0.00    +0.000 HD
ENDBRANCH  18  21
ENDBRANCH   1  18
BRANCH   4  24
ATOM     24  S   UNL     1       3.022   5.128  19.727  0.00  0.00    +0.000 S 
ATOM     25  O   UNL     1       2.581   4.496  18.496  0.00  0.00    +0.000 OA
ATOM     26  O   UNL     1       4.443   5.266  19.986  0.00  0.00    +0.000 OA
BRANCH  24  27
ATOM     27  C   UNL     1       2.242   4.252  21.057  0.00  0.00    +0.000 C 
BRANCH  27  28
ATOM     28  C   UNL     1       1.685   2.938  20.542  0.00  0.00    +0.000 C 
BRANCH  28  29
ATOM     29  O   UNL     1       0.362   3.129  20.055  0.00  0.00    +0.000 OA
ATOM     30  H   UNL     1       0.314   4.007  19.638  0.00  0.00    +0.000 HD
ENDBRANCH  28  29
ENDBRANCH  27  28
ENDBRANCH  24  27
ENDBRANCH   4  24
TORSDOF 8
ENDMDL
MODEL 2
REMARK VINA RESULT:      -6.9      1.461      2.036
REMARK  Name = 
REMARK  8 active torsions:
REMARK  status: ('A' for Active; 'I' for Inactive)
REMARK    1  A    between atoms: N_1  and  S_2
REMARK    2  A    between atoms: S_2  and  C_5
REMARK    3  A    between atoms: C_7  and  C_8
REMARK    4  A    between atoms: N_10  and  C_11
REMARK    5  A    between atoms: C_17  and  S_18
REMARK    6  A    between atoms: S_18  and  C_21
REMARK    7  A    between atoms: C_21  and  C_22
REMARK    8  A    between atoms: C_22  and  O_23
REMARK                            x       y       z     vdW  Elec       q    Type
REMARK                         _______ _______ _______ _____ _____    ______ ____
ROOT
ATOM      1  C   UNL     1       1.471   8.221  19.437  0.00  0.00    +0.000 A 
ATOM      2  C   UNL     1       2.360   7.502  18.617  0.00  0.00    +0.000 A 
ATOM      3  C   UNL     1       2.745   6.185  18.941  0.00  0.00    +0.000 A 
ATOM      4  C   UNL     1       2.224   5.601  20.106  0.00  0.00    +0.000 A 
ATOM      5  C   UNL     1       1.330   6.327  20.915  0.00  0.00    +0.000 A 
ATOM      6  C   UNL     1       0.958   7.634  20.592  0.00  0.00    +0.000 A 
ATOM      7 CL   UNL     1      -0.132   8.412  21.682  0.00  0.00    +0.000 Cl
ENDROOT
BRANCH   3   8
ATOM      8  C   UNL     1       3.784   5.580  18.062  0.00  0.00    +0.000 C 
ATOM      9  O   UNL     1       3.424   5.001  17.046  0.00  0.00    +0.000 OA
ATOM     10  N   UNL     1       5.095   5.735  18.427  0.00  0.00    +0.000 N 
ATOM     11  H   UNL     1       5.317   6.209  19.304  0.00  0.00    +0.000 HD
BRANCH  10  12
ATOM     12  C   UNL     1       6.227   5.330  17.591  0.00  0.00    +0.000 C 
ATOM     13  C   UNL     1       6.632   6.477  16.656  0.00  0.00    +0.000 C 
ATOM     14  C   UNL     1       7.170   7.678  17.435  0.00  0.00    +0.000 C 
ATOM     15  C   UNL     1       8.288   7.306  18.405  0.00  0.00    +0.000 C 
ATOM     16  C   UNL     1       8.024   6.044  19.227  0.00  0.00    +0.000 C 
ATOM     17  C   UNL     1       7.448   4.895  18.404  0.00  0.00    +0.000 C 
ENDBRANCH  10  12
ENDBRANCH   3   8
BRANCH   1  18
ATOM     18  S   UNL     1       1.089   9.897  19.031  0.00  0.00    +0.000 S 
ATOM     19  O   UNL     1       1.592  10.751  20.083  0.00  0.00    +0.000 OA
ATOM     20  O   UNL     1      -0.272   9.970  18.575  0.00  0.00    +0.000 OA
BRANCH  18  21
ATOM     21  N   UNL     1       2.076  10.206  17.706  0.00  0.00    +0.000 NA
ATOM     22  H   UNL     1       1.499  10.384  16.881  0.00  0.00    +0.000 HD
ATOM     23  H   UNL     1       2.744   9.443  17.576  0.00  0.00    +0.000 HD
ENDBRANCH  18  21
ENDBRANCH   1  18
BRANCH   4  24
ATOM     24  S   UNL     1       2.568   3.932  20.610  0.00  0.00    +0.000 S 
ATOM     25  O   UNL     1       3.913   3.623  20.158  0.00  0.00    +0.000 OA
ATOM     26  O   UNL     1       2.266   3.881  22.028  0.00  0.00    +0.000 OA
BRANCH  24  27
ATOM     27  C   UNL     1       1.472   2.864  19.714  0.00  0.00    +0.000 C 
BRANCH  27  28
ATOM     28  C   UNL     1       2.265   2.053  18.707  0.00  0.00    +0.000 C 
BRANCH  28  29
ATOM     29  O   UNL     1       2.051   2.563  17.395  0.00  0.00    +0.000 OA
ATOM     30  H   UNL     1       2.915   2.809  17.019  0.00  0.00    +0.000 HD
ENDBRANCH  28  29
ENDBRANCH  27  28
ENDBRANCH  24  27
ENDBRANCH   4  24
TORSDOF 8
ENDMDL
MODEL 3
REMARK VINA RESULT:      -6.7      1.191      1.451
REMARK  Name = 
REMARK  8 active torsions:
REMARK  status: ('A' for Active; 'I' for Inactive)
REMARK    1  A    between atoms: N_1  and  S_2
REMARK    2  A    between atoms: S_2  and  C_5
REMARK    3  A    between atoms: C_7  and  C_8
REMARK    4  A    between atoms: N_10  and  C_11
REMARK    5  A    between atoms: C_17  and  S_18
REMARK    6  A    between atoms: S_18  and  C_21
REMARK    7  A    between atoms: C_21  and  C_22
REMARK    8  A    between atoms: C_22  and  O_23
REMARK                            x       y       z     vdW  Elec       q    Type
REMARK                         _______ _______ _______ _____ _____    ______ ____
ROOT
ATOM      1  C   UNL     1       1.309   9.045  19.473  0.00  0.00    +0.000 A 
ATOM      2  C   UNL     1       2.235   8.715  18.467  0.00  0.00    +0.000 A 
ATOM      3  C   UNL     1       2.878   7.460  18.455  0.00  0.00    +0.000 A 
ATOM      4  C   UNL     1       2.577   6.542  19.472  0.00  0.00    +0.000 A 
ATOM      5  C   UNL     1       1.644   6.882  20.470  0.00  0.00    +0.000 A 
ATOM      6  C   UNL     1       1.015   8.129  20.480  0.00  0.00    +0.000 A 
ATOM      7 CL   UNL     1      -0.094   8.416  21.772  0.00  0.00    +0.000 Cl
ENDROOT
BRANCH   3   8
ATOM      8  C   UNL     1       3.925   7.281  17.411  0.00  0.00    +0.000 C 
ATOM      9  O   UNL     1       3.607   7.411  16.236  0.00  0.00    +0.000 OA
ATOM     10  N   UNL     1       5.200   7.009  17.830  0.00  0.00    +0.000 N 
ATOM     11  H   UNL     1       5.385   6.889  18.827  0.00  0.00    +0.000 HD
BRANCH  10  12
ATOM     12  C   UNL     1       6.358   6.957  16.934  0.00  0.00    +0.000 C 
ATOM     13  C   UNL     1       7.655   7.148  17.732  0.00  0.00    +0.000 C 
ATOM     14  C   UNL     1       7.897   5.991  18.703  0.00  0.00    +0.000 C 
ATOM     15  C   UNL     1       7.835   4.624  18.026  0.00  0.00    +0.000 C 
ATOM     16  C   UNL     1       6.666   4.445  17.057  0.00  0.00    +0.000 C 
ATOM     17  C   UNL     1       6.447   5.649  16.145  0.00  0.00    +0.000 C 
ENDBRANCH  10  12
ENDBRANCH   3   8
BRANCH   1  18
ATOM     18  S   UNL     1       0.596  10.662  19.490  0.00  0.00    +0.000 S 
ATOM     19  O   UNL     1       1.062  11.358  20.668  0.00  0.00    +0.000 OA
ATOM     20  O   UNL     1      -0.801  10.562  19.166  0.00  0.00    +0.000 OA
BRANCH  18  21
ATOM     21  N   UNL     1       1.353  11.429  18.200  0.00  0.00    +0.000 NA
ATOM     22  H   UNL     1       2.221  11.864  18.520  0.00  0.00    +0.000 HD
ATOM     23  H   UNL     1       0.710  12.088  17.753  0.00  0.00    +0.000 HD
ENDBRANCH  18  21
ENDBRANCH   1  18
BRANCH   4  24
ATOM     24  S   UNL     1       3.261   4.904  19.554  0.00  0.00    +0.000 S 
ATOM     25  O   UNL     1       4.690   5.052  19.767  0.00  0.00    +0.000 OA
ATOM     26  O   UNL     1       2.465   4.196  20.540  0.00  0.00    +0.000 OA
BRANCH  24  27
ATOM     27  C   UNL     1       3.058   4.158  17.958  0.00  0.00    +0.000 C 
BRANCH  27  28
ATOM     28  C   UNL     1       3.288   2.663  18.064  0.00  0.00    +0.000 C 
BRANCH  28  29
ATOM     29  O   UNL     1       4.401   2.401  18.910  0.00  0.00    +0.000 OA
ATOM     30  H   UNL     1       5.149   2.947  18.609  0.00  0.00    +0.000 HD
ENDBRANCH  28  29
ENDBRANCH  27  28
ENDBRANCH  24  27
ENDBRANCH   4  24
TORSDOF 8
ENDMDL
MODEL 4
REMARK VINA RESULT:      -6.5      2.295      4.379
REMARK  Name = 
REMARK  8 active torsions:
REMARK  status: ('A' for Active; 'I' for Inactive)
REMARK    1  A    between atoms: N_1  and  S_2
REMARK    2  A    between atoms: S_2  and  C_5
REMARK    3  A    between atoms: C_7  and  C_8
REMARK    4  A    between atoms: N_10  and  C_11
REMARK    5  A    between atoms: C_17  and  S_18
REMARK    6  A    between atoms: S_18  and  C_21
REMARK    7  A    between atoms: C_21  and  C_22
REMARK    8  A    between atoms: C_22  and  O_23
REMARK                            x       y       z     vdW  Elec       q    Type
REMARK                         _______ _______ _______ _____ _____    ______ ____
ROOT
ATOM      1  C   UNL     1       1.323   9.056  19.833  0.00  0.00    +0.000 A 
ATOM      2  C   UNL     1       1.424   7.752  20.352  0.00  0.00    +0.000 A 
ATOM      3  C   UNL     1       2.230   6.780  19.725  0.00  0.00    +0.000 A 
ATOM      4  C   UNL     1       2.933   7.139  18.564  0.00  0.00    +0.000 A 
ATOM      5  C   UNL     1       2.829   8.448  18.058  0.00  0.00    +0.000 A 
ATOM      6  C   UNL     1       2.023   9.405  18.680  0.00  0.00    +0.000 A 
ATOM      7 CL   UNL     1       1.976  10.965  17.941  0.00  0.00    +0.000 Cl
ENDROOT
BRANCH   3   8
ATOM      8  C   UNL     1       2.155   5.409  20.300  0.00  0.00    +0.000 C 
ATOM      9  O   UNL     1       2.493   5.245  21.465  0.00  0.00    +0.000 OA
ATOM     10  N   UNL     1       1.680   4.408  19.496  0.00  0.00    +0.000 N 
ATOM     11  H   UNL     1       1.441   4.616  18.526  0.00  0.00    +0.000 HD
BRANCH  10  12
ATOM     12  C   UNL     1       1.407   3.047  19.965  0.00  0.00    +0.000 C 
ATOM     13  C   UNL     1       1.046   2.140  18.781  0.00  0.00    +0.000 C 
ATOM     14  C   UNL     1       2.226   1.964  17.824  0.00  0.00    +0.000 C 
ATOM     15  C   UNL     1       3.501   1.507  18.529  0.00  0.00    +0.000 C 
ATOM     16  C   UNL     1       3.807   2.244  19.833  0.00  0.00    +0.000 C 
ATOM     17  C   UNL     1       2.582   2.428  20.725  0.00  0.00    +0.000 C 
ENDBRANCH  10  12
ENDBRANCH   3   8
BRANCH   1  18
ATOM     18  S   UNL     1       0.232  10.209  20.608  0.00  0.00    +0.000 S 
ATOM     19  O   UNL     1      -0.861  10.488  19.704  0.00  0.00    +0.000 OA
ATOM     20  O   UNL     1       1.009  11.258  21.211  0.00  0.00    +0.000 OA
BRANCH  18  21
ATOM     21  N   UNL     1      -0.450   9.314  21.857  0.00  0.00    +0.000 NA
ATOM     22  H   UNL     1      -1.406   9.634  22.027  0.00  0.00    +0.000 HD
ATOM     23  H   UNL     1       0.145   9.354  22.688  0.00  0.00    +0.000 HD
ENDBRANCH  18  21
ENDBRANCH   1  18
BRANCH   4  24
ATOM     24  S   UNL     1       4.034   6.043  17.701  0.00  0.00    +0.000 S 
ATOM     25  O   UNL     1       3.234   4.927  17.228  0.00  0.00    +0.000 OA
ATOM     26  O   UNL     1       4.737   6.872  16.739  0.00  0.00    +0.000 OA
BRANCH  24  27
ATOM     27  C   UNL     1       5.175   5.385  18.889  0.00  0.00    +0.000 C 
BRANCH  27  28
ATOM     28  C   UNL     1       6.378   4.807  18.169  0.00  0.00    +0.000 C 
BRANCH  28  29
ATOM     29  O   UNL     1       5.951   3.945  17.121  0.00  0.00    +0.000 OA
ATOM     30  H   UNL     1       5.033   4.176  16.892  0.00  0.00    +0.000 HD
ENDBRANCH  28  29
ENDBRANCH  27  28
ENDBRANCH  24  27
ENDBRANCH   4  24
TORSDOF 8
ENDMDL
MODEL 5
REMARK VINA RESULT:      -6.4      1.085      1.213
REMARK  Name = 
REMARK  8 active torsions:
REMARK  status: ('A' for Active; 'I' for Inactive)
REMARK    1  A    between atoms: N_1  and  S_2
REMARK    2  A    between atoms: S_2  and  C_5
REMARK    3  A    between atoms: C_7  and  C_8
REMARK    4  A    between atoms: N_10  and  C_11
REMARK    5  A    between atoms: C_17  and  S_18
REMARK    6  A    between atoms: S_18  and  C_21
REMARK    7  A    between atoms: C_21  and  C_22
REMARK    8  A    between atoms: C_22  and  O_23
REMARK                            x       y       z     vdW  Elec       q    Type
REMARK                         _______ _______ _______ _____ _____    ______ ____
ROOT
ATOM      1  C   UNL     1       1.434   8.852  19.305  0.00  0.00    +0.000 A 
ATOM      2  C   UNL     1       2.347   8.273  18.406  0.00  0.00    +0.000 A 
ATOM      3  C   UNL     1       2.854   6.975  18.619  0.00  0.00    +0.000 A 
ATOM      4  C   UNL     1       2.429   6.267  19.753  0.00  0.00    +0.000 A 
ATOM      5  C   UNL     1       1.509   6.854  20.642  0.00  0.00    +0.000 A 
ATOM      6  C   UNL     1       1.017   8.143  20.429  0.00  0.00    +0.000 A 
ATOM      7 CL   UNL     1      -0.092   8.744  21.609  0.00  0.00    +0.000 Cl
ENDROOT
BRANCH   3   8
ATOM      8  C   UNL     1       3.905   6.526  17.663  0.00  0.00    +0.000 C 
ATOM      9  O   UNL     1       3.584   5.772  16.754  0.00  0.00    +0.000 OA
ATOM     10  N   UNL     1       5.173   7.011  17.840  0.00  0.00    +0.000 N 
ATOM     11  H   UNL     1       5.371   7.618  18.638  0.00  0.00    +0.000 HD
BRANCH  10  12
ATOM     12  C   UNL     1       6.272   6.782  16.898  0.00  0.00    +0.000 C 
ATOM     13  C   UNL     1       7.570   7.394  17.439  0.00  0.00    +0.000 C 
ATOM     14  C   UNL     1       8.037   6.693  18.716  0.00  0.00    +0.000 C 
ATOM     15  C   UNL     1       8.137   5.178  18.560  0.00  0.00    +0.000 C 
ATOM     16  C   UNL     1       6.953   4.532  17.841  0.00  0.00    +0.000 C 
ATOM     17  C   UNL     1       6.506   5.299  16.601  0.00  0.00    +0.000 C 
ENDBRANCH  10  12
ENDBRANCH   3   8
BRANCH   1  18
ATOM     18  S   UNL     1       0.896  10.514  19.036  0.00  0.00    +0.000 S 
ATOM     19  O   UNL     1       1.241  11.302  20.198  0.00  0.00    +0.000 OA
ATOM     20  O   UNL     1      -0.436  10.495  18.497  0.00  0.00    +0.000 OA
BRANCH  18  21
ATOM     21  N   UNL     1       1.920  11.057  17.819  0.00  0.00    +0.000 NA
ATOM     22  H   UNL     1       2.842  10.628  17.927  0.00  0.00    +0.000 HD
ATOM     23  H   UNL     1       1.947  12.079  17.809  0.00  0.00    +0.000 HD
ENDBRANCH  18  21
ENDBRANCH   1  18
BRANCH   4  24
ATOM     24  S   UNL     1       2.932   4.602  20.121  0.00  0.00    +0.000 S 
ATOM     25  O   UNL     1       4.367   4.538  19.909  0.00  0.00    +0.000 OA
ATOM     26  O   UNL     1       2.395   4.313  21.438  0.00  0.00    +0.000 OA
BRANCH  24  27
ATOM     27  C   UNL     1       2.190   3.539  18.912  0.00  0.00    +0.000 C 
BRANCH  27  28
ATOM     28  C   UNL     1       1.311   2.516  19.606  0.00  0.00    +0.000 C 
BRANCH  28  29
ATOM     29  O   UNL     1       0.234   3.170  20.267  0.00  0.00    +0.000 OA
ATOM     30  H   UNL     1      -0.496   2.533  20.363  0.00  0.00    +0.000 HD
ENDBRANCH  28  29
ENDBRANCH  27  28
ENDBRANCH  24  27
ENDBRANCH   4  24
TORSDOF 8
ENDMDL
MODEL 6
REMARK VINA RESULT:      -6.4      0.963      1.067
REMARK  Name = 
REMARK  8 active torsions:
REMARK  status: ('A' for Active; 'I' for Inactive)
REMARK    1  A    between atoms: N_1  and  S_2
REMARK    2  A    between atoms: S_2  and  C_5
REMARK    3  A    between atoms: C_7  and  C_8
REMARK    4  A    between atoms: N_10  and  C_11
REMARK    5  A    between atoms: C_17  and  S_18
REMARK    6  A    between atoms: S_18  and  C_21
REMARK    7  A    between atoms: C_21  and  C_22
REMARK    8  A    between atoms: C_22  and  O_23
REMARK                            x       y       z     vdW  Elec       q    Type
REMARK                         _______ _______ _______ _____ _____    ______ ____
ROOT
ATOM      1  C   UNL     1       1.187   9.440  19.973  0.00  0.00    +0.000 A 
ATOM      2  C   UNL     1       1.966   9.111  18.849  0.00  0.00    +0.000 A 
ATOM      3  C   UNL     1       2.498   7.815  18.687  0.00  0.00    +0.000 A 
ATOM      4  C   UNL     1       2.235   6.854  19.675  0.00  0.00    +0.000 A 
ATOM      5  C   UNL     1       1.449   7.194  20.792  0.00  0.00    +0.000 A 
ATOM      6  C   UNL     1       0.931   8.481  20.950  0.00  0.00    +0.000 A 
ATOM      7 CL   UNL     1      -0.003   8.762  22.375  0.00  0.00    +0.000 Cl
ENDROOT
BRANCH   3   8
ATOM      8  C   UNL     1       3.406   7.630  17.520  0.00  0.00    +0.000 C 
ATOM      9  O   UNL     1       3.071   8.097  16.440  0.00  0.00    +0.000 OA
ATOM     10  N   UNL     1       4.586   6.969  17.733  0.00  0.00    +0.000 N 
ATOM     11  H   UNL     1       4.785   6.585  18.658  0.00  0.00    +0.000 HD
BRANCH  10  12
ATOM     12  C   UNL     1       5.641   6.843  16.725  0.00  0.00    +0.000 C 
ATOM     13  C   UNL     1       7.010   7.146  17.349  0.00  0.00    +0.000 C 
ATOM     14  C   UNL     1       7.392   6.107  18.405  0.00  0.00    +0.000 C 
ATOM     15  C   UNL     1       7.301   4.673  17.888  0.00  0.00    +0.000 C 
ATOM     16  C   UNL     1       6.040   4.367  17.079  0.00  0.00    +0.000 C 
ATOM     17  C   UNL     1       5.686   5.459  16.074  0.00  0.00    +0.000 C 
ENDBRANCH  10  12
ENDBRANCH   3   8
BRANCH   1  18
ATOM     18  S   UNL     1       0.617  11.101  20.168  0.00  0.00    +0.000 S 
ATOM     19  O   UNL     1       1.015  11.864  19.006  0.00  0.00    +0.000 OA
ATOM     20  O   UNL     1       0.906  11.542  21.505  0.00  0.00    +0.000 OA
BRANCH  18  21
ATOM     21  N   UNL     1      -1.053  10.952  20.042  0.00  0.00    +0.000 NA
ATOM     22  H   UNL     1      -1.288  10.405  19.211  0.00  0.00    +0.000 HD
ATOM     23  H   UNL     1      -1.493  11.875  20.058  0.00  0.00    +0.000 HD
ENDBRANCH  18  21
ENDBRANCH   1  18
BRANCH   4  24
ATOM     24  S   UNL     1       2.785   5.167  19.579  0.00  0.00    +0.000 S 
ATOM     25  O   UNL     1       2.359   4.657  18.288  0.00  0.00    +0.000 OA
ATOM     26  O   UNL     1       4.200   5.198  19.899  0.00  0.00    +0.000 OA
BRANCH  24  27
ATOM     27  C   UNL     1       1.901   4.245  20.809  0.00  0.00    +0.000 C 
BRANCH  27  28
ATOM     28  C   UNL     1       2.434   2.826  20.860  0.00  0.00    +0.000 C 
BRANCH  28  29
ATOM     29  O   UNL     1       2.613   2.422  22.212  0.00  0.00    +0.000 OA
ATOM     30  H   UNL     1       3.039   3.152  22.695  0.00  0.00    +0.000 HD
ENDBRANCH  28  29
ENDBRANCH  27  28
ENDBRANCH  24  27
ENDBRANCH   4  24
TORSDOF 8
ENDMDL
MODEL 7
REMARK VINA RESULT:      -6.3      2.330      4.671
REMARK  Name = 
REMARK  8 active torsions:
REMARK  status: ('A' for Active; 'I' for Inactive)
REMARK    1  A    between atoms: N_1  and  S_2
REMARK    2  A    between atoms: S_2  and  C_5
REMARK    3  A    between atoms: C_7  and  C_8
REMARK    4  A    between atoms: N_10  and  C_11
REMARK    5  A    between atoms: C_17  and  S_18
REMARK    6  A    between atoms: S_18  and  C_21
REMARK    7  A    between atoms: C_21  and  C_22
REMARK    8  A    between atoms: C_22  and  O_23
REMARK                            x       y       z     vdW  Elec       q    Type
REMARK                         _______ _______ _______ _____ _____    ______ ____
ROOT
ATOM      1  C   UNL     1       1.348   9.006  19.820  0.00  0.00    +0.000 A 
ATOM      2  C   UNL     1       1.443   7.715  20.372  0.00  0.00    +0.000 A 
ATOM      3  C   UNL     1       2.257   6.729  19.780  0.00  0.00    +0.000 A 
ATOM      4  C   UNL     1       2.975   7.059  18.620  0.00  0.00    +0.000 A 
ATOM      5  C   UNL     1       2.877   8.355  18.081  0.00  0.00    +0.000 A 
ATOM      6  C   UNL     1       2.063   9.326  18.668  0.00  0.00    +0.000 A 
ATOM      7 CL   UNL     1       2.026  10.868  17.890  0.00  0.00    +0.000 Cl
ENDROOT
BRANCH   3   8
ATOM      8  C   UNL     1       2.175   5.372  20.388  0.00  0.00    +0.000 C 
ATOM      9  O   UNL     1       2.306   5.266  21.600  0.00  0.00    +0.000 OA
ATOM     10  N   UNL     1       1.923   4.316  19.554  0.00  0.00    +0.000 N 
ATOM     11  H   UNL     1       1.850   4.478  18.549  0.00  0.00    +0.000 HD
BRANCH  10  12
ATOM     12  C   UNL     1       1.666   2.951  20.022  0.00  0.00    +0.000 C 
ATOM     13  C   UNL     1       1.245   2.059  18.847  0.00  0.00    +0.000 C 
ATOM     14  C   UNL     1       2.379   1.886  17.834  0.00  0.00    +0.000 C 
ATOM     15  C   UNL     1       3.682   1.416  18.476  0.00  0.00    +0.000 C 
ATOM     16  C   UNL     1       4.052   2.139  19.771  0.00  0.00    +0.000 C 
ATOM     17  C   UNL     1       2.871   2.320  20.721  0.00  0.00    +0.000 C 
ENDBRANCH  10  12
ENDBRANCH   3   8
BRANCH   1  18
ATOM     18  S   UNL     1       0.248  10.178  20.553  0.00  0.00    +0.000 S 
ATOM     19  O   UNL     1      -0.821  10.452  19.618  0.00  0.00    +0.000 OA
ATOM     20  O   UNL     1       1.017  11.228  21.160  0.00  0.00    +0.000 OA
BRANCH  18  21
ATOM     21  N   UNL     1      -0.472   9.305  21.796  0.00  0.00    +0.000 NA
ATOM     22  H   UNL     1      -1.457   9.568  21.876  0.00  0.00    +0.000 HD
ATOM     23  H   UNL     1       0.052   9.428  22.665  0.00  0.00    +0.000 HD
ENDBRANCH  18  21
ENDBRANCH   1  18
BRANCH   4  24
ATOM     24  S   UNL     1       4.087   5.942  17.798  0.00  0.00    +0.000 S 
ATOM     25  O   UNL     1       4.975   5.406  18.815  0.00  0.00    +0.000 OA
ATOM     26  O   UNL     1       3.243   5.035  17.043  0.00  0.00    +0.000 OA
BRANCH  24  27
ATOM     27  C   UNL     1       5.092   6.901  16.697  0.00  0.00    +0.000 C 
BRANCH  27  28
ATOM     28  C   UNL     1       6.516   6.944  17.217  0.00  0.00    +0.000 C 
BRANCH  28  29
ATOM     29  O   UNL     1       7.402   6.381  16.257  0.00  0.00    +0.000 OA
ATOM     30  H   UNL     1       7.710   5.521  16.593  0.00  0.00    +0.000 HD
ENDBRANCH  28  29
ENDBRANCH  27  28
ENDBRANCH  24  27
ENDBRANCH   4  24
TORSDOF 8
ENDMDL
MODEL 8
REMARK VINA RESULT:      -6.3      1.624      2.271
REMARK  Name = 
REMARK  8 active torsions:
REMARK  status: ('A' for Active; 'I' for Inactive)
REMARK    1  A    between atoms: N_1  and  S_2
REMARK    2  A    between atoms: S_2  and  C_5
REMARK    3  A    between atoms: C_7  and  C_8
REMARK    4  A    between atoms: N_10  and  C_11
REMARK    5  A    between atoms: C_17  and  S_18
REMARK    6  A    between atoms: S_18  and  C_21
REMARK    7  A    between atoms: C_21  and  C_22
REMARK    8  A    between atoms: C_22  and  O_23
REMARK                            x       y       z     vdW  Elec       q    Type
REMARK                         _______ _______ _______ _____ _____    ______ ____
ROOT
ATOM      1  C   UNL     1       1.433   8.258  19.452  0.00  0.00    +0.000 A 
ATOM      2  C   UNL     1       2.302   7.520  18.627  0.00  0.00    +0.000 A 
ATOM      3  C   UNL     1       2.646   6.190  18.941  0.00  0.00    +0.000 A 
ATOM      4  C   UNL     1       2.104   5.611  20.099  0.00  0.00    +0.000 A 
ATOM      5  C   UNL     1       1.231   6.357  20.912  0.00  0.00    +0.000 A 
ATOM      6  C   UNL     1       0.899   7.678  20.600  0.00  0.00    +0.000 A 
ATOM      7 CL   UNL     1      -0.169   8.479  21.695  0.00  0.00    +0.000 Cl
ENDROOT
BRANCH   3   8
ATOM      8  C   UNL     1       3.668   5.561  18.058  0.00  0.00    +0.000 C 
ATOM      9  O   UNL     1       3.288   4.841  17.145  0.00  0.00    +0.000 OA
ATOM     10  N   UNL     1       4.984   5.853  18.302  0.00  0.00    +0.000 N 
ATOM     11  H   UNL     1       5.226   6.443  19.099  0.00  0.00    +0.000 HD
BRANCH  10  12
ATOM     12  C   UNL     1       6.086   5.434  17.432  0.00  0.00    +0.000 C 
ATOM     13  C   UNL     1       6.566   6.616  16.580  0.00  0.00    +0.000 C 
ATOM     14  C   UNL     1       7.184   7.719  17.440  0.00  0.00    +0.000 C 
ATOM     15  C   UNL     1       8.276   7.203  18.375  0.00  0.00    +0.000 C 
ATOM     16  C   UNL     1       7.928   5.906  19.105  0.00  0.00    +0.000 C 
ATOM     17  C   UNL     1       7.275   4.861  18.205  0.00  0.00    +0.000 C 
ENDBRANCH  10  12
ENDBRANCH   3   8
BRANCH   1  18
ATOM     18  S   UNL     1       1.103   9.949  19.059  0.00  0.00    +0.000 S 
ATOM     19  O   UNL     1       1.640  10.779  20.114  0.00  0.00    +0.000 OA
ATOM     20  O   UNL     1      -0.257  10.070  18.613  0.00  0.00    +0.000 OA
BRANCH  18  21
ATOM     21  N   UNL     1       2.092  10.236  17.731  0.00  0.00    +0.000 NA
ATOM     22  H   UNL     1       1.561  10.725  17.006  0.00  0.00    +0.000 HD
ATOM     23  H   UNL     1       2.511   9.362  17.406  0.00  0.00    +0.000 HD
ENDBRANCH  18  21
ENDBRANCH   1  18
BRANCH   4  24
ATOM     24  S   UNL     1       2.396   3.928  20.589  0.00  0.00    +0.000 S 
ATOM     25  O   UNL     1       2.182   3.863  22.024  0.00  0.00    +0.000 OA
ATOM     26  O   UNL     1       1.575   3.116  19.710  0.00  0.00    +0.000 OA
BRANCH  24  27
ATOM     27  C   UNL     1       4.113   3.581  20.313  0.00  0.00    +0.000 C 
BRANCH  27  28
ATOM     28  C   UNL     1       4.254   2.239  19.620  0.00  0.00    +0.000 C 
BRANCH  28  29
ATOM     29  O   UNL     1       5.287   1.479  20.237  0.00  0.00    +0.000 OA
ATOM     30  H   UNL     1       5.360   0.628  19.770  0.00  0.00    +0.000 HD
ENDBRANCH  28  29
ENDBRANCH  27  28
ENDBRANCH  24  27
ENDBRANCH   4  24
TORSDOF 8
ENDMDL
MODEL 9
REMARK VINA RESULT:      -6.2      1.231      1.421
REMARK  Name = 
REMARK  8 active torsions:
REMARK  status: ('A' for Active; 'I' for Inactive)
REMARK    1  A    between atoms: N_1  and  S_2
REMARK    2  A    between atoms: S_2  and  C_5
REMARK    3  A    between atoms: C_7  and  C_8
REMARK    4  A    between atoms: N_10  and  C_11
REMARK    5  A    between atoms: C_17  and  S_18
REMARK    6  A    between atoms: S_18  and  C_21
REMARK    7  A    between atoms: C_21  and  C_22
REMARK    8  A    between atoms: C_22  and  O_23
REMARK                            x       y       z     vdW  Elec       q    Type
REMARK                         _______ _______ _______ _____ _____    ______ ____
ROOT
ATOM      1  C   UNL     1       1.305   9.210  19.813  0.00  0.00    +0.000 A 
ATOM      2  C   UNL     1       2.146   8.871  18.738  0.00  0.00    +0.000 A 
ATOM      3  C   UNL     1       2.698   7.579  18.626  0.00  0.00    +0.000 A 
ATOM      4  C   UNL     1       2.392   6.631  19.614  0.00  0.00    +0.000 A 
ATOM      5  C   UNL     1       1.544   6.979  20.681  0.00  0.00    +0.000 A 
ATOM      6  C   UNL     1       1.006   8.264  20.791  0.00  0.00    +0.000 A 
ATOM      7 CL   UNL     1      -0.005   8.557  22.160  0.00  0.00    +0.000 Cl
ENDROOT
BRANCH   3   8
ATOM      8  C   UNL     1       3.668   7.385  17.512  0.00  0.00    +0.000 C 
ATOM      9  O   UNL     1       3.286   7.572  16.365  0.00  0.00    +0.000 OA
ATOM     10  N   UNL     1       4.951   7.035  17.841  0.00  0.00    +0.000 N 
ATOM     11  H   UNL     1       5.190   6.872  18.820  0.00  0.00    +0.000 HD
BRANCH  10  12
ATOM     12  C   UNL     1       6.048   6.957  16.873  0.00  0.00    +0.000 C 
ATOM     13  C   UNL     1       7.393   7.173  17.577  0.00  0.00    +0.000 C 
ATOM     14  C   UNL     1       7.702   6.047  18.564  0.00  0.00    +0.000 C 
ATOM     15  C   UNL     1       7.599   4.660  17.934  0.00  0.00    +0.000 C 
ATOM     16  C   UNL     1       6.370   4.451  17.050  0.00  0.00    +0.000 C 
ATOM     17  C   UNL     1       6.088   5.626  16.119  0.00  0.00    +0.000 C 
ENDBRANCH  10  12
ENDBRANCH   3   8
BRANCH   1  18
ATOM     18  S   UNL     1       0.709  10.867  19.951  0.00  0.00    +0.000 S 
ATOM     19  O   UNL     1       1.106  11.599  18.769  0.00  0.00    +0.000 OA
ATOM     20  O   UNL     1       0.981  11.355  21.276  0.00  0.00    +0.000 OA
BRANCH  18  21
ATOM     21  N   UNL     1      -0.957  10.690  19.817  0.00  0.00    +0.000 NA
ATOM     22  H   UNL     1      -1.367  10.578  20.747  0.00  0.00    +0.000 HD
ATOM     23  H   UNL     1      -1.181   9.923  19.180  0.00  0.00    +0.000 HD
ENDBRANCH  18  21
ENDBRANCH   1  18
BRANCH   4  24
ATOM     24  S   UNL     1       2.963   4.948  19.575  0.00  0.00    +0.000 S 
ATOM     25  O   UNL     1       4.411   4.990  19.676  0.00  0.00    +0.000 OA
ATOM     26  O   UNL     1       2.199   4.252  20.593  0.00  0.00    +0.000 OA
BRANCH  24  27
ATOM     27  C   UNL     1       2.583   4.291  17.972  0.00  0.00    +0.000 C 
BRANCH  27  28
ATOM     28  C   UNL     1       1.522   3.215  18.103  0.00  0.00    +0.000 C 
BRANCH  28  29
ATOM     29  O   UNL     1       2.127   1.977  18.457  0.00  0.00    +0.000 OA
ATOM     30  H   UNL     1       1.428   1.374  18.767  0.00  0.00    +0.000 HD
ENDBRANCH  28  29
ENDBRANCH  27  28
ENDBRANCH  24  27
ENDBRANCH   4  24
TORSDOF 8
ENDMDL
