MODEL 1
REMARK VINA RESULT:      -6.8      0.000      0.000
REMARK  Name = 
REMARK  15 active torsions:
REMARK  status: ('A' for Active; 'I' for Inactive)
REMARK    1  A    between atoms: C_1  and  C_2
REMARK    2  A    between atoms: C_2  and  C_3
REMARK    3  A    between atoms: C_3  and  C_4
REMARK    4  A    between atoms: C_3  and  C_5
REMARK    5  A    between atoms: C_5  and  C_7
REMARK    6  A    between atoms: C_8  and  O_9
REMARK    7  A    between atoms: C_10  and  C_11
REMARK    8  A    between atoms: C_11  and  C_12
REMARK    9  A    between atoms: C_13  and  C_14
REMARK   10  A    between atoms: C_13  and  C_15
REMARK   11  A    between atoms: C_16  and  O_17
REMARK   12  A    between atoms: C_19  and  C_20
REMARK   13  A    between atoms: C_20  and  O_21
REMARK   14  A    between atoms: C_20  and  C_22
REMARK   15  A    between atoms: C_22  and  C_23
REMARK                            x       y       z     vdW  Elec       q    Type
REMARK                         _______ _______ _______ _____ _____    ______ ____
ROOT
ATOM      1  C   UNL     1       4.396   5.731  17.045  0.00  0.00    +0.000 A 
ATOM      2  C   UNL     1       3.804   6.975  17.294  0.00  0.00    +0.000 A 
ATOM      3  C   UNL     1       2.837   7.129  18.297  0.00  0.00    +0.000 A 
ATOM      4  C   UNL     1       2.321   5.966  18.913  0.00  0.00    +0.000 A 
ATOM      5  C   UNL     1       2.743   4.669  18.545  0.00  0.00    +0.000 A 
ATOM      6  C   UNL     1       2.128   3.383  18.994  0.00  0.00    +0.000 A 
ATOM      7  C   UNL     1       2.712   2.240  18.601  0.00  0.00    +0.000 A 
ATOM      8  C   UNL     1       3.902   2.157  17.755  0.00  0.00    +0.000 A 
ATOM      9  O   UNL     1       4.414   1.084  17.469  0.00  0.00    +0.000 OA
ATOM     10  O   UNL     1       4.386   3.355  17.287  0.00  0.00    +0.000 OA
ATOM     11  C   UNL     1       3.832   4.599  17.650  0.00  0.00    +0.000 A 
ENDROOT
BRANCH   1  12
ATOM     12  C   UNL     1       5.583   5.683  16.133  0.00  0.00    +0.000 C 
ATOM     13  O   UNL     1       5.332   5.622  14.925  0.00  0.00    +0.000 OA
BRANCH  12  14
ATOM     14  C   UNL     1       7.027   5.767  16.671  0.00  0.00    +0.000 C 
ATOM     15  C   UNL     1       7.569   4.397  17.084  0.00  0.00    +0.000 C 
BRANCH  14  17
ATOM     16  C   UNL     1       7.747   8.093  17.511  0.00  0.00    +0.000 C 
ATOM     17  C   UNL     1       7.090   6.761  17.855  0.00  0.00    +0.000 C 
ENDBRANCH  14  17
ENDBRANCH  12  14
ENDBRANCH   1  12
BRANCH   2  18
ATOM     18  O   UNL     1       4.146   8.089  16.568  0.00  0.00    +0.000 OA
ATOM     19  H   UNL     1       4.365   7.801  15.650  0.00  0.00    +0.000 HD
ENDBRANCH   2  18
BRANCH   4  20
ATOM     20  O   UNL     1       1.411   6.105  19.930  0.00  0.00    +0.000 OA
ATOM     21  H   UNL     1       0.541   5.778  19.634  0.00  0.00    +0.000 HD
ENDBRANCH   4  20
BRANCH   3  22
ATOM     22  C   UNL     1       2.416   8.527  18.719  0.00  0.00    +0.000 C 
BRANCH  22  23
ATOM     23  C   UNL     1       1.140   8.991  18.069  0.00  0.00    +0.000 C 
ATOM     24  C   UNL     1       0.265   9.889  18.565  0.00  0.00    +0.000 C 
ATOM     25  C   UNL     1       0.429  10.635  19.862  0.00  0.00    +0.000 C 
ATOM     26  C   UNL     1      -0.971  10.270  17.794  0.00  0.00    +0.000 C 
ENDBRANCH  22  23
ENDBRANCH   3  22
BRANCH   6  27
ATOM     27  C   UNL     1       0.881   3.260  19.862  0.00  0.00    +0.000 C 
BRANCH  27  28
ATOM     28  O   UNL     1      -0.024   2.335  19.263  0.00  0.00    +0.000 OA
ATOM     29  H   UNL     1      -0.911   2.702  19.427  0.00  0.00    +0.000 HD
ENDBRANCH  27  28
BRANCH  27  30
ATOM     30  C   UNL     1       1.046   2.950  21.362  0.00  0.00    +0.000 C 
ATOM     31  C   UNL     1       2.483   2.806  21.833  0.00  0.00    +0.000 C 
ENDBRANCH  27  30
ENDBRANCH   6  27
TORSDOF 10
ENDMDL
MODEL 2
REMARK VINA RESULT:      -6.6      0.810      1.354
REMARK  Name = 
REMARK  15 active torsions:
REMARK  status: ('A' for Active; 'I' for Inactive)
REMARK    1  A    between atoms: C_1  and  C_2
REMARK    2  A    between atoms: C_2  and  C_3
REMARK    3  A    between atoms: C_3  and  C_4
REMARK    4  A    between atoms: C_3  and  C_5
REMARK    5  A    between atoms: C_5  and  C_7
REMARK    6  A    between atoms: C_8  and  O_9
REMARK    7  A    between atoms: C_10  and  C_11
REMARK    8  A    between atoms: C_11  and  C_12
REMARK    9  A    between atoms: C_13  and  C_14
REMARK   10  A    between atoms: C_13  and  C_15
REMARK   11  A    between atoms: C_16  and  O_17
REMARK   12  A    between atoms: C_19  and  C_20
REMARK   13  A    between atoms: C_20  and  O_21
REMARK   14  A    between atoms: C_20  and  C_22
REMARK   15  A    between atoms: C_22  and  C_23
REMARK                            x       y       z     vdW  Elec       q    Type
REMARK                         _______ _______ _______ _____ _____    ______ ____
ROOT
ATOM      1  C   UNL     1       4.005   6.206  17.312  0.00  0.00    +0.000 A 
ATOM      2  C   UNL     1       3.360   7.381  17.715  0.00  0.00    +0.000 A 
ATOM      3  C   UNL     1       2.449   7.378  18.782  0.00  0.00    +0.000 A 
ATOM      4  C   UNL     1       2.039   6.131  19.307  0.00  0.00    +0.000 A 
ATOM      5  C   UNL     1       2.511   4.905  18.790  0.00  0.00    +0.000 A 
ATOM      6  C   UNL     1       1.999   3.546  19.143  0.00  0.00    +0.000 A 
ATOM      7  C   UNL     1       2.621   2.484  18.606  0.00  0.00    +0.000 A 
ATOM      8  C   UNL     1       3.759   2.557  17.691  0.00  0.00    +0.000 A 
ATOM      9  O   UNL     1       4.313   1.550  17.272  0.00  0.00    +0.000 OA
ATOM     10  O   UNL     1       4.144   3.822  17.318  0.00  0.00    +0.000 OA
ATOM     11  C   UNL     1       3.544   4.988  17.833  0.00  0.00    +0.000 A 
ENDROOT
BRANCH   1  12
ATOM     12  C   UNL     1       5.134   6.320  16.335  0.00  0.00    +0.000 C 
ATOM     13  O   UNL     1       4.893   6.958  15.305  0.00  0.00    +0.000 OA
BRANCH  12  14
ATOM     14  C   UNL     1       6.528   5.727  16.628  0.00  0.00    +0.000 C 
ATOM     15  C   UNL     1       7.473   6.757  17.250  0.00  0.00    +0.000 C 
BRANCH  14  17
ATOM     16  C   UNL     1       6.372   3.942  14.779  0.00  0.00    +0.000 C 
ATOM     17  C   UNL     1       7.133   5.141  15.330  0.00  0.00    +0.000 C 
ENDBRANCH  14  17
ENDBRANCH  12  14
ENDBRANCH   1  12
BRANCH   2  18
ATOM     18  O   UNL     1       3.593   8.579  17.085  0.00  0.00    +0.000 OA
ATOM     19  H   UNL     1       2.819   9.168  17.252  0.00  0.00    +0.000 HD
ENDBRANCH   2  18
BRANCH   4  20
ATOM     20  O   UNL     1       1.188   6.116  20.383  0.00  0.00    +0.000 OA
ATOM     21  H   UNL     1       1.674   5.823  21.176  0.00  0.00    +0.000 HD
ENDBRANCH   4  20
BRANCH   3  22
ATOM     22  C   UNL     1       1.978   8.700  19.363  0.00  0.00    +0.000 C 
BRANCH  22  23
ATOM     23  C   UNL     1       0.833   9.315  18.602  0.00  0.00    +0.000 C 
ATOM     24  C   UNL     1      -0.140  10.100  19.108  0.00  0.00    +0.000 C 
ATOM     25  C   UNL     1      -0.237  10.545  20.542  0.00  0.00    +0.000 C 
ATOM     26  C   UNL     1      -1.221  10.658  18.221  0.00  0.00    +0.000 C 
ENDBRANCH  22  23
ENDBRANCH   3  22
BRANCH   6  27
ATOM     27  C   UNL     1       0.817   3.263  20.063  0.00  0.00    +0.000 C 
BRANCH  27  28
ATOM     28  O   UNL     1      -0.087   2.371  19.414  0.00  0.00    +0.000 OA
ATOM     29  H   UNL     1      -0.958   2.559  19.807  0.00  0.00    +0.000 HD
ENDBRANCH  27  28
BRANCH  27  30
ATOM     30  C   UNL     1       1.091   2.789  21.503  0.00  0.00    +0.000 C 
ATOM     31  C   UNL     1       2.560   2.680  21.873  0.00  0.00    +0.000 C 
ENDBRANCH  27  30
ENDBRANCH   6  27
TORSDOF 10
ENDMDL
MODEL 3
REMARK VINA RESULT:      -6.6      1.899      6.803
REMARK  Name = 
REMARK  15 active torsions:
REMARK  status: ('A' for Active; 'I' for Inactive)
REMARK    1  A    between atoms: C_1  and  C_2
REMARK    2  A    between atoms: C_2  and  C_3
REMARK    3  A    between atoms: C_3  and  C_4
REMARK    4  A    between atoms: C_3  and  C_5
REMARK    5  A    between atoms: C_5  and  C_7
REMARK    6  A    between atoms: C_8  and  O_9
REMARK    7  A    between atoms: C_10  and  C_11
REMARK    8  A    between atoms: C_11  and  C_12
REMARK    9  A    between atoms: C_13  and  C_14
REMARK   10  A    between atoms: C_13  and  C_15
REMARK   11  A    between atoms: C_16  and  O_17
REMARK   12  A    between atoms: C_19  and  C_20
REMARK   13  A    between atoms: C_20  and  O_21
REMARK   14  A    between atoms: C_20  and  C_22
REMARK   15  A    between atoms: C_22  and  C_23
REMARK                            x       y       z     vdW  Elec       q    Type
REMARK                         _______ _______ _______ _____ _____    ______ ____
ROOT
ATOM      1  C   UNL     1       2.498   5.811  19.712  0.00  0.00    +0.000 A 
ATOM      2  C   UNL     1       3.269   5.683  18.550  0.00  0.00    +0.000 A 
ATOM      3  C   UNL     1       3.571   6.799  17.757  0.00  0.00    +0.000 A 
ATOM      4  C   UNL     1       2.914   8.019  18.038  0.00  0.00    +0.000 A 
ATOM      5  C   UNL     1       1.967   8.140  19.079  0.00  0.00    +0.000 A 
ATOM      6  C   UNL     1       1.085   9.320  19.333  0.00  0.00    +0.000 A 
ATOM      7  C   UNL     1       0.297   9.289  20.419  0.00  0.00    +0.000 A 
ATOM      8  C   UNL     1       0.227   8.181  21.370  0.00  0.00    +0.000 A 
ATOM      9  O   UNL     1      -0.479   8.232  22.368  0.00  0.00    +0.000 OA
ATOM     10  O   UNL     1       0.983   7.077  21.056  0.00  0.00    +0.000 OA
ATOM     11  C   UNL     1       1.836   7.027  19.935  0.00  0.00    +0.000 A 
ENDROOT
BRANCH   1  12
ATOM     12  C   UNL     1       2.413   4.635  20.635  0.00  0.00    +0.000 C 
ATOM     13  O   UNL     1       3.423   4.404  21.308  0.00  0.00    +0.000 OA
BRANCH  12  14
ATOM     14  C   UNL     1       1.122   3.803  20.778  0.00  0.00    +0.000 C 
ATOM     15  C   UNL     1       1.307   2.608  21.716  0.00  0.00    +0.000 C 
BRANCH  14  17
ATOM     16  C   UNL     1       1.393   2.125  18.843  0.00  0.00    +0.000 C 
ATOM     17  C   UNL     1       0.641   3.335  19.383  0.00  0.00    +0.000 C 
ENDBRANCH  14  17
ENDBRANCH  12  14
ENDBRANCH   1  12
BRANCH   2  18
ATOM     18  O   UNL     1       3.756   4.466  18.144  0.00  0.00    +0.000 OA
ATOM     19  H   UNL     1       4.715   4.428  18.372  0.00  0.00    +0.000 HD
ENDBRANCH   2  18
BRANCH   4  20
ATOM     20  O   UNL     1       3.239   9.130  17.301  0.00  0.00    +0.000 OA
ATOM     21  H   UNL     1       4.141   9.418  17.533  0.00  0.00    +0.000 HD
ENDBRANCH   4  20
BRANCH   3  22
ATOM     22  C   UNL     1       4.621   6.675  16.665  0.00  0.00    +0.000 C 
BRANCH  22  23
ATOM     23  C   UNL     1       5.890   7.426  16.965  0.00  0.00    +0.000 C 
ATOM     24  C   UNL     1       6.935   6.983  17.694  0.00  0.00    +0.000 C 
ATOM     25  C   UNL     1       7.040   5.616  18.316  0.00  0.00    +0.000 C 
ATOM     26  C   UNL     1       8.153   7.844  17.902  0.00  0.00    +0.000 C 
ENDBRANCH  22  23
ENDBRANCH   3  22
BRANCH   6  27
ATOM     27  C   UNL     1       1.001  10.561  18.452  0.00  0.00    +0.000 C 
BRANCH  27  28
ATOM     28  O   UNL     1      -0.277  10.609  17.822  0.00  0.00    +0.000 OA
ATOM     29  H   UNL     1      -0.407   9.723  17.438  0.00  0.00    +0.000 HD
ENDBRANCH  27  28
BRANCH  27  30
ATOM     30  C   UNL     1       1.347  11.932  19.063  0.00  0.00    +0.000 C 
ATOM     31  C   UNL     1       0.500  13.090  18.561  0.00  0.00    +0.000 C 
ENDBRANCH  27  30
ENDBRANCH   6  27
TORSDOF 10
ENDMDL
MODEL 4
REMARK VINA RESULT:      -6.6      1.675      5.099
REMARK  Name = 
REMARK  15 active torsions:
REMARK  status: ('A' for Active; 'I' for Inactive)
REMARK    1  A    between atoms: C_1  and  C_2
REMARK    2  A    between atoms: C_2  and  C_3
REMARK    3  A    between atoms: C_3  and  C_4
REMARK    4  A    between atoms: C_3  and  C_5
REMARK    5  A    between atoms: C_5  and  C_7
REMARK    6  A    between atoms: C_8  and  O_9
REMARK    7  A    between atoms: C_10  and  C_11
REMARK    8  A    between atoms: C_11  and  C_12
REMARK    9  A    between atoms: C_13  and  C_14
REMARK   10  A    between atoms: C_13  and  C_15
REMARK   11  A    between atoms: C_16  and  O_17
REMARK   12  A    between atoms: C_19  and  C_20
REMARK   13  A    between atoms: C_20  and  O_21
REMARK   14  A    between atoms: C_20  and  C_22
REMARK   15  A    between atoms: C_22  and  C_23
REMARK                            x       y       z     vdW  Elec       q    Type
REMARK                         _______ _______ _______ _____ _____    ______ ____
ROOT
ATOM      1  C   UNL     1       2.689   5.523  19.548  0.00  0.00    +0.000 A 
ATOM      2  C   UNL     1       2.572   6.916  19.462  0.00  0.00    +0.000 A 
ATOM      3  C   UNL     1       2.935   7.601  18.293  0.00  0.00    +0.000 A 
ATOM      4  C   UNL     1       3.612   6.885  17.280  0.00  0.00    +0.000 A 
ATOM      5  C   UNL     1       3.935   5.517  17.415  0.00  0.00    +0.000 A 
ATOM      6  C   UNL     1       4.808   4.725  16.495  0.00  0.00    +0.000 A 
ATOM      7  C   UNL     1       4.944   3.411  16.739  0.00  0.00    +0.000 A 
ATOM      8  C   UNL     1       4.308   2.696  17.844  0.00  0.00    +0.000 A 
ATOM      9  O   UNL     1       4.434   1.488  17.985  0.00  0.00    +0.000 OA
ATOM     10  O   UNL     1       3.587   3.472  18.720  0.00  0.00    +0.000 OA
ATOM     11  C   UNL     1       3.397   4.856  18.539  0.00  0.00    +0.000 A 
ENDROOT
BRANCH   1  12
ATOM     12  C   UNL     1       2.066   4.835  20.723  0.00  0.00    +0.000 C 
ATOM     13  O   UNL     1       2.503   5.158  21.832  0.00  0.00    +0.000 OA
BRANCH  12  14
ATOM     14  C   UNL     1       0.908   3.828  20.558  0.00  0.00    +0.000 C 
ATOM     15  C   UNL     1       1.175   2.515  21.297  0.00  0.00    +0.000 C 
BRANCH  14  17
ATOM     16  C   UNL     1       0.680   2.094  18.668  0.00  0.00    +0.000 C 
ATOM     17  C   UNL     1       0.649   3.567  19.054  0.00  0.00    +0.000 C 
ENDBRANCH  14  17
ENDBRANCH  12  14
ENDBRANCH   1  12
BRANCH   2  18
ATOM     18  O   UNL     1       2.100   7.662  20.513  0.00  0.00    +0.000 OA
ATOM     19  H   UNL     1       1.145   7.848  20.352  0.00  0.00    +0.000 HD
ENDBRANCH   2  18
BRANCH   4  20
ATOM     20  O   UNL     1       3.927   7.531  16.112  0.00  0.00    +0.000 OA
ATOM     21  H   UNL     1       3.157   7.512  15.514  0.00  0.00    +0.000 HD
ENDBRANCH   4  20
BRANCH   3  22
ATOM     22  C   UNL     1       2.547   9.062  18.136  0.00  0.00    +0.000 C 
BRANCH  22  23
ATOM     23  C   UNL     1       1.119   9.261  17.705  0.00  0.00    +0.000 C 
ATOM     24  C   UNL     1       0.170   9.960  18.360  0.00  0.00    +0.000 C 
ATOM     25  C   UNL     1       0.382  10.716  19.644  0.00  0.00    +0.000 C 
ATOM     26  C   UNL     1      -1.222  10.085  17.800  0.00  0.00    +0.000 C 
ENDBRANCH  22  23
ENDBRANCH   3  22
BRANCH   6  27
ATOM     27  C   UNL     1       5.568   5.289  15.300  0.00  0.00    +0.000 C 
BRANCH  27  28
ATOM     28  O   UNL     1       6.482   6.288  15.748  0.00  0.00    +0.000 OA
ATOM     29  H   UNL     1       6.604   6.115  16.699  0.00  0.00    +0.000 HD
ENDBRANCH  27  28
BRANCH  27  30
ATOM     30  C   UNL     1       6.273   4.314  14.339  0.00  0.00    +0.000 C 
ATOM     31  C   UNL     1       5.445   3.885  13.139  0.00  0.00    +0.000 C 
ENDBRANCH  27  30
ENDBRANCH   6  27
TORSDOF 10
ENDMDL
MODEL 5
REMARK VINA RESULT:      -6.4      1.393      1.825
REMARK  Name = 
REMARK  15 active torsions:
REMARK  status: ('A' for Active; 'I' for Inactive)
REMARK    1  A    between atoms: C_1  and  C_2
REMARK    2  A    between atoms: C_2  and  C_3
REMARK    3  A    between atoms: C_3  and  C_4
REMARK    4  A    between atoms: C_3  and  C_5
REMARK    5  A    between atoms: C_5  and  C_7
REMARK    6  A    between atoms: C_8  and  O_9
REMARK    7  A    between atoms: C_10  and  C_11
REMARK    8  A    between atoms: C_11  and  C_12
REMARK    9  A    between atoms: C_13  and  C_14
REMARK   10  A    between atoms: C_13  and  C_15
REMARK   11  A    between atoms: C_16  and  O_17
REMARK   12  A    between atoms: C_19  and  C_20
REMARK   13  A    between atoms: C_20  and  O_21
REMARK   14  A    between atoms: C_20  and  C_22
REMARK   15  A    between atoms: C_22  and  C_23
REMARK                            x       y       z     vdW  Elec       q    Type
REMARK                         _______ _______ _______ _____ _____    ______ ____
ROOT
ATOM      1  C   UNL     1       4.806   5.139  16.878  0.00  0.00    +0.000 A 
ATOM      2  C   UNL     1       4.335   6.453  16.979  0.00  0.00    +0.000 A 
ATOM      3  C   UNL     1       3.348   6.798  17.915  0.00  0.00    +0.000 A 
ATOM      4  C   UNL     1       2.692   5.757  18.610  0.00  0.00    +0.000 A 
ATOM      5  C   UNL     1       2.995   4.396  18.387  0.00  0.00    +0.000 A 
ATOM      6  C   UNL     1       2.235   3.226  18.923  0.00  0.00    +0.000 A 
ATOM      7  C   UNL     1       2.715   1.998  18.668  0.00  0.00    +0.000 A 
ATOM      8  C   UNL     1       3.923   1.717  17.895  0.00  0.00    +0.000 A 
ATOM      9  O   UNL     1       4.335   0.576  17.736  0.00  0.00    +0.000 OA
ATOM     10  O   UNL     1       4.545   2.811  17.341  0.00  0.00    +0.000 OA
ATOM     11  C   UNL     1       4.106   4.132  17.558  0.00  0.00    +0.000 A 
ENDROOT
BRANCH   1  12
ATOM     12  C   UNL     1       6.018   4.887  16.035  0.00  0.00    +0.000 C 
ATOM     13  O   UNL     1       7.046   4.579  16.647  0.00  0.00    +0.000 OA
BRANCH  12  14
ATOM     14  C   UNL     1       5.966   4.950  14.494  0.00  0.00    +0.000 C 
ATOM     15  C   UNL     1       5.240   3.745  13.892  0.00  0.00    +0.000 C 
BRANCH  14  17
ATOM     16  C   UNL     1       7.480   4.896  12.412  0.00  0.00    +0.000 C 
ATOM     17  C   UNL     1       7.400   5.067  13.924  0.00  0.00    +0.000 C 
ENDBRANCH  14  17
ENDBRANCH  12  14
ENDBRANCH   1  12
BRANCH   2  18
ATOM     18  O   UNL     1       4.817   7.452  16.170  0.00  0.00    +0.000 OA
ATOM     19  H   UNL     1       4.543   8.318  16.555  0.00  0.00    +0.000 HD
ENDBRANCH   2  18
BRANCH   4  20
ATOM     20  O   UNL     1       1.761   6.084  19.564  0.00  0.00    +0.000 OA
ATOM     21  H   UNL     1       1.023   6.563  19.144  0.00  0.00    +0.000 HD
ENDBRANCH   4  20
BRANCH   3  22
ATOM     22  C   UNL     1       3.056   8.265  18.182  0.00  0.00    +0.000 C 
BRANCH  22  23
ATOM     23  C   UNL     1       1.708   8.709  17.679  0.00  0.00    +0.000 C 
ATOM     24  C   UNL     1       0.802   9.448  18.351  0.00  0.00    +0.000 C 
ATOM     25  C   UNL     1       0.994  10.007  19.735  0.00  0.00    +0.000 C 
ATOM     26  C   UNL     1      -0.508   9.831  17.714  0.00  0.00    +0.000 C 
ENDBRANCH  22  23
ENDBRANCH   3  22
BRANCH   6  27
ATOM     27  C   UNL     1       0.948   3.311  19.736  0.00  0.00    +0.000 C 
BRANCH  27  28
ATOM     28  O   UNL     1      -0.062   2.524  19.108  0.00  0.00    +0.000 OA
ATOM     29  H   UNL     1      -0.198   2.932  18.234  0.00  0.00    +0.000 HD
ENDBRANCH  27  28
BRANCH  27  30
ATOM     30  C   UNL     1       0.999   3.007  21.245  0.00  0.00    +0.000 C 
ATOM     31  C   UNL     1       2.289   3.414  21.938  0.00  0.00    +0.000 C 
ENDBRANCH  27  30
ENDBRANCH   6  27
TORSDOF 10
ENDMDL
MODEL 6
REMARK VINA RESULT:      -6.4      1.995      7.035
REMARK  Name = 
REMARK  15 active torsions:
REMARK  status: ('A' for Active; 'I' for Inactive)
REMARK    1  A    between atoms: C_1  and  C_2
REMARK    2  A    between atoms: C_2  and  C_3
REMARK    3  A    between atoms: C_3  and  C_4
REMARK    4  A    between atoms: C_3  and  C_5
REMARK    5  A    between atoms: C_5  and  C_7
REMARK    6  A    between atoms: C_8  and  O_9
REMARK    7  A    between atoms: C_10  and  C_11
REMARK    8  A    between atoms: C_11  and  C_12
REMARK    9  A    between atoms: C_13  and  C_14
REMARK   10  A    between atoms: C_13  and  C_15
REMARK   11  A    between atoms: C_16  and  O_17
REMARK   12  A    between atoms: C_19  and  C_20
REMARK   13  A    between atoms: C_20  and  O_21
REMARK   14  A    between atoms: C_20  and  C_22
REMARK   15  A    between atoms: C_22  and  C_23
REMARK                            x       y       z     vdW  Elec       q    Type
REMARK                         _______ _______ _______ _____ _____    ______ ____
ROOT
ATOM      1  C   UNL     1       2.290   5.980  19.860  0.00  0.00    +0.000 A 
ATOM      2  C   UNL     1       3.044   5.784  18.696  0.00  0.00    +0.000 A 
ATOM      3  C   UNL     1       3.377   6.859  17.860  0.00  0.00    +0.000 A 
ATOM      4  C   UNL     1       2.765   8.110  18.103  0.00  0.00    +0.000 A 
ATOM      5  C   UNL     1       1.835   8.302  19.147  0.00  0.00    +0.000 A 
ATOM      6  C   UNL     1       0.997   9.521  19.366  0.00  0.00    +0.000 A 
ATOM      7  C   UNL     1       0.219   9.557  20.460  0.00  0.00    +0.000 A 
ATOM      8  C   UNL     1       0.121   8.487  21.451  0.00  0.00    +0.000 A 
ATOM      9  O   UNL     1      -0.572   8.599  22.453  0.00  0.00    +0.000 OA
ATOM     10  O   UNL     1       0.835   7.347  21.170  0.00  0.00    +0.000 OA
ATOM     11  C   UNL     1       1.674   7.226  20.045  0.00  0.00    +0.000 A 
ENDROOT
BRANCH   1  12
ATOM     12  C   UNL     1       2.174   4.842  20.826  0.00  0.00    +0.000 C 
ATOM     13  O   UNL     1       3.041   4.790  21.705  0.00  0.00    +0.000 OA
BRANCH  12  14
ATOM     14  C   UNL     1       1.008   3.833  20.760  0.00  0.00    +0.000 C 
ATOM     15  C   UNL     1       1.324   2.538  21.511  0.00  0.00    +0.000 C 
BRANCH  14  17
ATOM     16  C   UNL     1       1.017   2.130  18.829  0.00  0.00    +0.000 C 
ATOM     17  C   UNL     1       0.651   3.538  19.284  0.00  0.00    +0.000 C 
ENDBRANCH  14  17
ENDBRANCH  12  14
ENDBRANCH   1  12
BRANCH   2  18
ATOM     18  O   UNL     1       3.484   4.536  18.330  0.00  0.00    +0.000 OA
ATOM     19  H   UNL     1       4.203   4.648  17.664  0.00  0.00    +0.000 HD
ENDBRANCH   2  18
BRANCH   4  20
ATOM     20  O   UNL     1       3.121   9.182  17.323  0.00  0.00    +0.000 OA
ATOM     21  H   UNL     1       3.833   9.681  17.765  0.00  0.00    +0.000 HD
ENDBRANCH   4  20
BRANCH   3  22
ATOM     22  C   UNL     1       4.410   6.658  16.764  0.00  0.00    +0.000 C 
BRANCH  22  23
ATOM     23  C   UNL     1       5.725   6.127  17.270  0.00  0.00    +0.000 C 
ATOM     24  C   UNL     1       6.360   5.015  16.848  0.00  0.00    +0.000 C 
ATOM     25  C   UNL     1       5.881   4.109  15.746  0.00  0.00    +0.000 C 
ATOM     26  C   UNL     1       7.685   4.610  17.439  0.00  0.00    +0.000 C 
ENDBRANCH  22  23
ENDBRANCH   3  22
BRANCH   6  27
ATOM     27  C   UNL     1       0.947  10.732  18.441  0.00  0.00    +0.000 C 
BRANCH  27  28
ATOM     28  O   UNL     1      -0.347  10.823  17.850  0.00  0.00    +0.000 OA
ATOM     29  H   UNL     1      -0.486   9.968  17.403  0.00  0.00    +0.000 HD
ENDBRANCH  27  28
BRANCH  27  30
ATOM     30  C   UNL     1       1.382  12.104  18.988  0.00  0.00    +0.000 C 
ATOM     31  C   UNL     1       2.543  12.750  18.252  0.00  0.00    +0.000 C 
ENDBRANCH  27  30
ENDBRANCH   6  27
TORSDOF 10
ENDMDL
MODEL 7
REMARK VINA RESULT:      -6.3      5.313      9.249
REMARK  Name = 
REMARK  15 active torsions:
REMARK  status: ('A' for Active; 'I' for Inactive)
REMARK    1  A    between atoms: C_1  and  C_2
REMARK    2  A    between atoms: C_2  and  C_3
REMARK    3  A    between atoms: C_3  and  C_4
REMARK    4  A    between atoms: C_3  and  C_5
REMARK    5  A    between atoms: C_5  and  C_7
REMARK    6  A    between atoms: C_8  and  O_9
REMARK    7  A    between atoms: C_10  and  C_11
REMARK    8  A    between atoms: C_11  and  C_12
REMARK    9  A    between atoms: C_13  and  C_14
REMARK   10  A    between atoms: C_13  and  C_15
REMARK   11  A    between atoms: C_16  and  O_17
REMARK   12  A    between atoms: C_19  and  C_20
REMARK   13  A    between atoms: C_20  and  O_21
REMARK   14  A    between atoms: C_20  and  C_22
REMARK   15  A    between atoms: C_22  and  C_23
REMARK                            x       y       z     vdW  Elec       q    Type
REMARK                         _______ _______ _______ _____ _____    ______ ____
ROOT
ATOM      1  C   UNL     1      -0.858  11.553  19.212  0.00  0.00    +0.000 A 
ATOM      2  C   UNL     1      -0.982  12.205  20.445  0.00  0.00    +0.000 A 
ATOM      3  C   UNL     1      -2.242  12.518  20.975  0.00  0.00    +0.000 A 
ATOM      4  C   UNL     1      -3.376  12.350  20.148  0.00  0.00    +0.000 A 
ATOM      5  C   UNL     1      -3.275  11.887  18.818  0.00  0.00    +0.000 A 
ATOM      6  C   UNL     1      -4.379  11.857  17.811  0.00  0.00    +0.000 A 
ATOM      7  C   UNL     1      -4.118  11.310  16.613  0.00  0.00    +0.000 A 
ATOM      8  C   UNL     1      -2.829  10.748  16.214  0.00  0.00    +0.000 A 
ATOM      9  O   UNL     1      -2.667  10.221  15.122  0.00  0.00    +0.000 OA
ATOM     10  O   UNL     1      -1.813  10.875  17.131  0.00  0.00    +0.000 OA
ATOM     11  C   UNL     1      -2.002  11.437  18.410  0.00  0.00    +0.000 A 
ENDROOT
BRANCH   1  12
ATOM     12  C   UNL     1       0.491  11.036  18.819  0.00  0.00    +0.000 C 
ATOM     13  O   UNL     1       1.343  11.894  18.562  0.00  0.00    +0.000 OA
BRANCH  12  14
ATOM     14  C   UNL     1       0.811   9.527  18.796  0.00  0.00    +0.000 C 
ATOM     15  C   UNL     1       1.121   8.982  20.192  0.00  0.00    +0.000 C 
BRANCH  14  17
ATOM     16  C   UNL     1       2.664   7.905  18.043  0.00  0.00    +0.000 C 
ATOM     17  C   UNL     1       1.986   9.253  17.827  0.00  0.00    +0.000 C 
ENDBRANCH  14  17
ENDBRANCH  12  14
ENDBRANCH   1  12
BRANCH   2  18
ATOM     18  O   UNL     1       0.121  12.561  21.180  0.00  0.00    +0.000 OA
ATOM     19  H   UNL     1      -0.119  12.515  22.136  0.00  0.00    +0.000 HD
ENDBRANCH   2  18
BRANCH   4  20
ATOM     20  O   UNL     1      -4.618  12.606  20.671  0.00  0.00    +0.000 OA
ATOM     21  H   UNL     1      -5.293  12.481  19.978  0.00  0.00    +0.000 HD
ENDBRANCH   4  20
BRANCH   3  22
ATOM     22  C   UNL     1      -2.350  12.976  22.420  0.00  0.00    +0.000 C 
BRANCH  22  23
ATOM     23  C   UNL     1      -2.362  14.474  22.575  0.00  0.00    +0.000 C 
ATOM     24  C   UNL     1      -2.722  15.166  23.675  0.00  0.00    +0.000 C 
ATOM     25  C   UNL     1      -3.144  14.555  24.984  0.00  0.00    +0.000 C 
ATOM     26  C   UNL     1      -2.672  16.671  23.691  0.00  0.00    +0.000 C 
ENDBRANCH  22  23
ENDBRANCH   3  22
BRANCH   6  27
ATOM     27  C   UNL     1      -5.784  12.405  18.029  0.00  0.00    +0.000 C 
BRANCH  27  28
ATOM     28  O   UNL     1      -6.066  13.396  17.043  0.00  0.00    +0.000 OA
ATOM     29  H   UNL     1      -7.004  13.268  16.812  0.00  0.00    +0.000 HD
ENDBRANCH  27  28
BRANCH  27  30
ATOM     30  C   UNL     1      -6.960  11.416  18.142  0.00  0.00    +0.000 C 
ATOM     31  C   UNL     1      -6.715  10.230  19.058  0.00  0.00    +0.000 C 
ENDBRANCH  27  30
ENDBRANCH   6  27
TORSDOF 10
ENDMDL
MODEL 8
REMARK VINA RESULT:      -6.3      5.255      9.155
REMARK  Name = 
REMARK  15 active torsions:
REMARK  status: ('A' for Active; 'I' for Inactive)
REMARK    1  A    between atoms: C_1  and  C_2
REMARK    2  A    between atoms: C_2  and  C_3
REMARK    3  A    between atoms: C_3  and  C_4
REMARK    4  A    between atoms: C_3  and  C_5
REMARK    5  A    between atoms: C_5  and  C_7
REMARK    6  A    between atoms: C_8  and  O_9
REMARK    7  A    between atoms: C_10  and  C_11
REMARK    8  A    between atoms: C_11  and  C_12
REMARK    9  A    between atoms: C_13  and  C_14
REMARK   10  A    between atoms: C_13  and  C_15
REMARK   11  A    between atoms: C_16  and  O_17
REMARK   12  A    between atoms: C_19  and  C_20
REMARK   13  A    between atoms: C_20  and  O_21
REMARK   14  A    between atoms: C_20  and  C_22
REMARK   15  A    between atoms: C_22  and  C_23
REMARK                            x       y       z     vdW  Elec       q    Type
REMARK                         _______ _______ _______ _____ _____    ______ ____
ROOT
ATOM      1  C   UNL     1      -0.917  11.585  19.100  0.00  0.00    +0.000 A 
ATOM      2  C   UNL     1      -0.997  12.434  20.211  0.00  0.00    +0.000 A 
ATOM      3  C   UNL     1      -2.237  12.830  20.732  0.00  0.00    +0.000 A 
ATOM      4  C   UNL     1      -3.402  12.526  19.991  0.00  0.00    +0.000 A 
ATOM      5  C   UNL     1      -3.350  11.848  18.753  0.00  0.00    +0.000 A 
ATOM      6  C   UNL     1      -4.493  11.651  17.810  0.00  0.00    +0.000 A 
ATOM      7  C   UNL     1      -4.276  10.912  16.710  0.00  0.00    +0.000 A 
ATOM      8  C   UNL     1      -2.999  10.293  16.359  0.00  0.00    +0.000 A 
ATOM      9  O   UNL     1      -2.877   9.591  15.364  0.00  0.00    +0.000 OA
ATOM     10  O   UNL     1      -1.949  10.570  17.201  0.00  0.00    +0.000 OA
ATOM     11  C   UNL     1      -2.091  11.337  18.375  0.00  0.00    +0.000 A 
ENDROOT
BRANCH   1  12
ATOM     12  C   UNL     1       0.419  11.011  18.744  0.00  0.00    +0.000 C 
ATOM     13  O   UNL     1       1.282  11.826  18.402  0.00  0.00    +0.000 OA
BRANCH  12  14
ATOM     14  C   UNL     1       0.713   9.501  18.858  0.00  0.00    +0.000 C 
ATOM     15  C   UNL     1       1.035   9.082  20.294  0.00  0.00    +0.000 C 
BRANCH  14  17
ATOM     16  C   UNL     1       2.391   7.700  18.102  0.00  0.00    +0.000 C 
ATOM     17  C   UNL     1       1.869   9.117  17.903  0.00  0.00    +0.000 C 
ENDBRANCH  14  17
ENDBRANCH  12  14
ENDBRANCH   1  12
BRANCH   2  18
ATOM     18  O   UNL     1       0.132  12.908  20.832  0.00  0.00    +0.000 OA
ATOM     19  H   UNL     1      -0.119  13.704  21.358  0.00  0.00    +0.000 HD
ENDBRANCH   2  18
BRANCH   4  20
ATOM     20  O   UNL     1      -4.624  12.865  20.514  0.00  0.00    +0.000 OA
ATOM     21  H   UNL     1      -4.535  13.677  21.046  0.00  0.00    +0.000 HD
ENDBRANCH   4  20
BRANCH   3  22
ATOM     22  C   UNL     1      -2.291  13.522  22.084  0.00  0.00    +0.000 C 
BRANCH  22  23
ATOM     23  C   UNL     1      -3.024  12.731  23.134  0.00  0.00    +0.000 C 
ATOM     24  C   UNL     1      -4.069  13.151  23.875  0.00  0.00    +0.000 C 
ATOM     25  C   UNL     1      -4.730  14.498  23.755  0.00  0.00    +0.000 C 
ATOM     26  C   UNL     1      -4.716  12.241  24.885  0.00  0.00    +0.000 C 
ENDBRANCH  22  23
ENDBRANCH   3  22
BRANCH   6  27
ATOM     27  C   UNL     1      -5.893  12.227  17.991  0.00  0.00    +0.000 C 
BRANCH  27  28
ATOM     28  O   UNL     1      -6.479  12.457  16.712  0.00  0.00    +0.000 OA
ATOM     29  H   UNL     1      -7.135  11.745  16.599  0.00  0.00    +0.000 HD
ENDBRANCH  27  28
BRANCH  27  30
ATOM     30  C   UNL     1      -6.887  11.492  18.909  0.00  0.00    +0.000 C 
ATOM     31  C   UNL     1      -6.700   9.986  18.983  0.00  0.00    +0.000 C 
ENDBRANCH  27  30
ENDBRANCH   6  27
TORSDOF 10
ENDMDL
MODEL 9
REMARK VINA RESULT:      -6.2      0.797      1.128
REMARK  Name = 
REMARK  15 active torsions:
REMARK  status: ('A' for Active; 'I' for Inactive)
REMARK    1  A    between atoms: C_1  and  C_2
REMARK    2  A    between atoms: C_2  and  C_3
REMARK    3  A    between atoms: C_3  and  C_4
REMARK    4  A    between atoms: C_3  and  C_5
REMARK    5  A    between atoms: C_5  and  C_7
REMARK    6  A    between atoms: C_8  and  O_9
REMARK    7  A    between atoms: C_10  and  C_11
REMARK    8  A    between atoms: C_11  and  C_12
REMARK    9  A    between atoms: C_13  and  C_14
REMARK   10  A    between atoms: C_13  and  C_15
REMARK   11  A    between atoms: C_16  and  O_17
REMARK   12  A    between atoms: C_19  and  C_20
REMARK   13  A    between atoms: C_20  and  O_21
REMARK   14  A    between atoms: C_20  and  C_22
REMARK   15  A    between atoms: C_22  and  C_23
REMARK                            x       y       z     vdW  Elec       q    Type
REMARK                         _______ _______ _______ _____ _____    ______ ____
ROOT
ATOM      1  C   UNL     1       4.259   5.918  17.191  0.00  0.00    +0.000 A 
ATOM      2  C   UNL     1       3.610   7.116  17.515  0.00  0.00    +0.000 A 
ATOM      3  C   UNL     1       2.647   7.164  18.534  0.00  0.00    +0.000 A 
ATOM      4  C   UNL     1       2.196   5.944  19.087  0.00  0.00    +0.000 A 
ATOM      5  C   UNL     1       2.677   4.693  18.642  0.00  0.00    +0.000 A 
ATOM      6  C   UNL     1       2.132   3.355  19.022  0.00  0.00    +0.000 A 
ATOM      7  C   UNL     1       2.767   2.266  18.559  0.00  0.00    +0.000 A 
ATOM      8  C   UNL     1       3.949   2.290  17.700  0.00  0.00    +0.000 A 
ATOM      9  O   UNL     1       4.511   1.262  17.348  0.00  0.00    +0.000 OA
ATOM     10  O   UNL     1       4.368   3.536  17.297  0.00  0.00    +0.000 OA
ATOM     11  C   UNL     1       3.758   4.728  17.735  0.00  0.00    +0.000 A 
ENDROOT
BRANCH   1  12
ATOM     12  C   UNL     1       5.436   5.982  16.268  0.00  0.00    +0.000 C 
ATOM     13  O   UNL     1       5.175   6.143  15.071  0.00  0.00    +0.000 OA
BRANCH  12  14
ATOM     14  C   UNL     1       6.886   5.910  16.791  0.00  0.00    +0.000 C 
ATOM     15  C   UNL     1       7.292   4.485  17.173  0.00  0.00    +0.000 C 
BRANCH  14  17
ATOM     16  C   UNL     1       7.721   8.196  17.634  0.00  0.00    +0.000 C 
ATOM     17  C   UNL     1       7.060   6.870  17.992  0.00  0.00    +0.000 C 
ENDBRANCH  14  17
ENDBRANCH  12  14
ENDBRANCH   1  12
BRANCH   2  18
ATOM     18  O   UNL     1       3.889   8.285  16.851  0.00  0.00    +0.000 OA
ATOM     19  H   UNL     1       3.106   8.516  16.297  0.00  0.00    +0.000 HD
ENDBRANCH   2  18
BRANCH   4  20
ATOM     20  O   UNL     1       1.292   5.980  20.118  0.00  0.00    +0.000 OA
ATOM     21  H   UNL     1       1.239   5.098  20.532  0.00  0.00    +0.000 HD
ENDBRANCH   4  20
BRANCH   3  22
ATOM     22  C   UNL     1       2.164   8.513  19.039  0.00  0.00    +0.000 C 
BRANCH  22  23
ATOM     23  C   UNL     1       1.499   8.446  20.388  0.00  0.00    +0.000 C 
ATOM     24  C   UNL     1       0.440   9.172  20.800  0.00  0.00    +0.000 C 
ATOM     25  C   UNL     1      -0.307  10.171  19.958  0.00  0.00    +0.000 C 
ATOM     26  C   UNL     1      -0.132   8.988  22.181  0.00  0.00    +0.000 C 
ENDBRANCH  22  23
ENDBRANCH   3  22
BRANCH   6  27
ATOM     27  C   UNL     1       0.902   3.121  19.892  0.00  0.00    +0.000 C 
BRANCH  27  28
ATOM     28  O   UNL     1      -0.002   2.253  19.212  0.00  0.00    +0.000 OA
ATOM     29  H   UNL     1      -0.342   1.650  19.897  0.00  0.00    +0.000 HD
ENDBRANCH  27  28
BRANCH  27  30
ATOM     30  C   UNL     1       1.098   2.653  21.346  0.00  0.00    +0.000 C 
ATOM     31  C   UNL     1       2.304   3.246  22.054  0.00  0.00    +0.000 C 
ENDBRANCH  27  30
ENDBRANCH   6  27
TORSDOF 10
ENDMDL
