MODEL 1
REMARK VINA RESULT:      -5.9      0.000      0.000
REMARK  Name = 
REMARK  3 active torsions:
REMARK  status: ('A' for Active; 'I' for Inactive)
REMARK    1  A    between atoms: N_2  and  C_4
REMARK    2  A    between atoms: C_7  and  C_8
REMARK    3  A    between atoms: N_9  and  O_10
REMARK                            x       y       z     vdW  Elec       q    Type
REMARK                         _______ _______ _______ _____ _____    ______ ____
ROOT
ATOM      1  C   UNL     1       6.589   5.222  15.561  0.00  0.00    +0.000 A 
ATOM      2  C   UNL     1       5.434   5.740  16.096  0.00  0.00    +0.000 A 
ATOM      3  C   UNL     1       5.708   5.917  17.474  0.00  0.00    +0.000 A 
ATOM      4  C   UNL     1       7.011   5.500  17.688  0.00  0.00    +0.000 A 
ATOM      5  O   UNL     1       7.557   5.067  16.506  0.00  0.00    +0.000 OA
ENDROOT
BRANCH   1   7
ATOM      6  O   UNL     1       7.803   5.514  13.670  0.00  0.00    +0.000 OA
ATOM      7  N   UNL     1       6.925   4.840  14.226  0.00  0.00    +0.000 N 
ATOM      8  O   UNL     1       6.325   3.880  13.730  0.00  0.00    +0.000 OA
ENDBRANCH   1   7
BRANCH   4   9
ATOM      9  C   UNL     1       7.818   5.461  18.874  0.00  0.00    +0.000 C 
ATOM     10  N   UNL     1       7.257   5.341  20.036  0.00  0.00    +0.000 NA
BRANCH  10  11
ATOM     11  O   UNL     1       8.246   5.332  21.029  0.00  0.00    +0.000 OA
ATOM     12  H   UNL     1       7.862   4.736  21.701  0.00  0.00    +0.000 HD
ENDBRANCH  10  11
ENDBRANCH   4   9
TORSDOF 3
ENDMDL
MODEL 2
REMARK VINA RESULT:      -5.8      0.591      1.104
REMARK  Name = 
REMARK  3 active torsions:
REMARK  status: ('A' for Active; 'I' for Inactive)
REMARK    1  A    between atoms: N_2  and  C_4
REMARK    2  A    between atoms: C_7  and  C_8
REMARK    3  A    between atoms: N_9  and  O_10
REMARK                            x       y       z     vdW  Elec       q    Type
REMARK                         _______ _______ _______ _____ _____    ______ ____
ROOT
ATOM      1  C   UNL     1       6.577   4.770  15.310  0.00  0.00    +0.000 A 
ATOM      2  C   UNL     1       5.338   4.646  15.894  0.00  0.00    +0.000 A 
ATOM      3  C   UNL     1       5.562   4.807  17.282  0.00  0.00    +0.000 A 
ATOM      4  C   UNL     1       6.920   5.022  17.454  0.00  0.00    +0.000 A 
ATOM      5  O   UNL     1       7.549   4.997  16.236  0.00  0.00    +0.000 OA
ENDROOT
BRANCH   1   7
ATOM      6  O   UNL     1       6.391   3.892  13.229  0.00  0.00    +0.000 OA
ATOM      7  N   UNL     1       6.990   4.707  13.944  0.00  0.00    +0.000 N 
ATOM      8  O   UNL     1       7.902   5.459  13.580  0.00  0.00    +0.000 OA
ENDBRANCH   1   7
BRANCH   4   9
ATOM      9  C   UNL     1       7.706   5.256  18.632  0.00  0.00    +0.000 C 
ATOM     10  N   UNL     1       7.152   5.211  19.802  0.00  0.00    +0.000 NA
BRANCH  10  11
ATOM     11  O   UNL     1       8.117   5.475  20.782  0.00  0.00    +0.000 OA
ATOM     12  H   UNL     1       8.043   6.443  20.894  0.00  0.00    +0.000 HD
ENDBRANCH  10  11
ENDBRANCH   4   9
TORSDOF 3
ENDMDL
MODEL 3
REMARK VINA RESULT:      -5.6      1.465      1.804
REMARK  Name = 
REMARK  3 active torsions:
REMARK  status: ('A' for Active; 'I' for Inactive)
REMARK    1  A    between atoms: N_2  and  C_4
REMARK    2  A    between atoms: C_7  and  C_8
REMARK    3  A    between atoms: N_9  and  O_10
REMARK                            x       y       z     vdW  Elec       q    Type
REMARK                         _______ _______ _______ _____ _____    ______ ____
ROOT
ATOM      1  C   UNL     1       7.138   4.805  14.169  0.00  0.00    +0.000 A 
ATOM      2  C   UNL     1       6.069   3.968  14.384  0.00  0.00    +0.000 A 
ATOM      3  C   UNL     1       5.840   4.008  15.781  0.00  0.00    +0.000 A 
ATOM      4  C   UNL     1       6.780   4.867  16.324  0.00  0.00    +0.000 A 
ATOM      5  O   UNL     1       7.585   5.359  15.330  0.00  0.00    +0.000 OA
ENDROOT
BRANCH   1   7
ATOM      6  O   UNL     1       8.742   5.997  13.100  0.00  0.00    +0.000 OA
ATOM      7  N   UNL     1       7.824   5.175  12.972  0.00  0.00    +0.000 N 
ATOM      8  O   UNL     1       7.457   4.657  11.911  0.00  0.00    +0.000 OA
ENDBRANCH   1   7
BRANCH   4   9
ATOM      9  C   UNL     1       7.015   5.292  17.675  0.00  0.00    +0.000 C 
ATOM     10  N   UNL     1       7.834   4.631  18.430  0.00  0.00    +0.000 NA
BRANCH  10  11
ATOM     11  O   UNL     1       7.890   5.235  19.693  0.00  0.00    +0.000 OA
ATOM     12  H   UNL     1       8.829   5.497  19.759  0.00  0.00    +0.000 HD
ENDBRANCH  10  11
ENDBRANCH   4   9
TORSDOF 3
ENDMDL
MODEL 4
REMARK VINA RESULT:      -5.6      0.653      1.144
REMARK  Name = 
REMARK  3 active torsions:
REMARK  status: ('A' for Active; 'I' for Inactive)
REMARK    1  A    between atoms: N_2  and  C_4
REMARK    2  A    between atoms: C_7  and  C_8
REMARK    3  A    between atoms: N_9  and  O_10
REMARK                            x       y       z     vdW  Elec       q    Type
REMARK                         _______ _______ _______ _____ _____    ______ ____
ROOT
ATOM      1  C   UNL     1       6.375   5.353  15.865  0.00  0.00    +0.000 A 
ATOM      2  C   UNL     1       5.314   6.192  16.106  0.00  0.00    +0.000 A 
ATOM      3  C   UNL     1       5.287   6.363  17.512  0.00  0.00    +0.000 A 
ATOM      4  C   UNL     1       6.333   5.621  18.033  0.00  0.00    +0.000 A 
ATOM      5  O   UNL     1       7.006   4.994  17.017  0.00  0.00    +0.000 OA
ENDROOT
BRANCH   1   7
ATOM      6  O   UNL     1       6.407   3.758  14.255  0.00  0.00    +0.000 OA
ATOM      7  N   UNL     1       6.904   4.822  14.648  0.00  0.00    +0.000 N 
ATOM      8  O   UNL     1       7.805   5.455  14.084  0.00  0.00    +0.000 OA
ENDBRANCH   1   7
BRANCH   4   9
ATOM      9  C   UNL     1       6.788   5.431  19.381  0.00  0.00    +0.000 C 
ATOM     10  N   UNL     1       8.055   5.452  19.648  0.00  0.00    +0.000 NA
BRANCH  10  11
ATOM     11  O   UNL     1       8.244   5.239  21.020  0.00  0.00    +0.000 OA
ATOM     12  H   UNL     1       9.044   5.768  21.206  0.00  0.00    +0.000 HD
ENDBRANCH  10  11
ENDBRANCH   4   9
TORSDOF 3
ENDMDL
MODEL 5
REMARK VINA RESULT:      -5.6      1.397      1.736
REMARK  Name = 
REMARK  3 active torsions:
REMARK  status: ('A' for Active; 'I' for Inactive)
REMARK    1  A    between atoms: N_2  and  C_4
REMARK    2  A    between atoms: C_7  and  C_8
REMARK    3  A    between atoms: N_9  and  O_10
REMARK                            x       y       z     vdW  Elec       q    Type
REMARK                         _______ _______ _______ _____ _____    ______ ____
ROOT
ATOM      1  C   UNL     1       6.971   4.809  14.396  0.00  0.00    +0.000 A 
ATOM      2  C   UNL     1       5.663   4.523  14.707  0.00  0.00    +0.000 A 
ATOM      3  C   UNL     1       5.634   4.398  16.118  0.00  0.00    +0.000 A 
ATOM      4  C   UNL     1       6.923   4.620  16.573  0.00  0.00    +0.000 A 
ATOM      5  O   UNL     1       7.752   4.872  15.510  0.00  0.00    +0.000 OA
ENDROOT
BRANCH   1   7
ATOM      6  O   UNL     1       7.200   4.387  12.181  0.00  0.00    +0.000 OA
ATOM      7  N   UNL     1       7.615   5.048  13.143  0.00  0.00    +0.000 N 
ATOM      8  O   UNL     1       8.526   5.883  13.111  0.00  0.00    +0.000 OA
ENDBRANCH   1   7
BRANCH   4   9
ATOM      9  C   UNL     1       7.478   4.630  17.897  0.00  0.00    +0.000 C 
ATOM     10  N   UNL     1       7.653   5.753  18.519  0.00  0.00    +0.000 NA
BRANCH  10  11
ATOM     11  O   UNL     1       8.207   5.502  19.781  0.00  0.00    +0.000 OA
ATOM     12  H   UNL     1       7.793   6.195  20.333  0.00  0.00    +0.000 HD
ENDBRANCH  10  11
ENDBRANCH   4   9
TORSDOF 3
ENDMDL
MODEL 6
REMARK VINA RESULT:      -5.2      3.372      4.009
REMARK  Name = 
REMARK  3 active torsions:
REMARK  status: ('A' for Active; 'I' for Inactive)
REMARK    1  A    between atoms: N_2  and  C_4
REMARK    2  A    between atoms: C_7  and  C_8
REMARK    3  A    between atoms: N_9  and  O_10
REMARK                            x       y       z     vdW  Elec       q    Type
REMARK                         _______ _______ _______ _____ _____    ______ ____
ROOT
ATOM      1  C   UNL     1       6.014   4.298  17.848  0.00  0.00    +0.000 A 
ATOM      2  C   UNL     1       4.999   4.234  16.924  0.00  0.00    +0.000 A 
ATOM      3  C   UNL     1       3.827   3.972  17.675  0.00  0.00    +0.000 A 
ATOM      4  C   UNL     1       4.204   3.897  19.005  0.00  0.00    +0.000 A 
ATOM      5  O   UNL     1       5.556   4.096  19.114  0.00  0.00    +0.000 OA
ENDROOT
BRANCH   1   7
ATOM      6  O   UNL     1       8.046   4.751  18.744  0.00  0.00    +0.000 OA
ATOM      7  N   UNL     1       7.415   4.538  17.699  0.00  0.00    +0.000 N 
ATOM      8  O   UNL     1       7.888   4.515  16.557  0.00  0.00    +0.000 OA
ENDBRANCH   1   7
BRANCH   4   9
ATOM      9  C   UNL     1       3.443   3.665  20.200  0.00  0.00    +0.000 C 
ATOM     10  N   UNL     1       3.512   2.519  20.801  0.00  0.00    +0.000 NA
BRANCH  10  11
ATOM     11  O   UNL     1       2.683   2.537  21.929  0.00  0.00    +0.000 OA
ATOM     12  H   UNL     1       3.163   3.136  22.534  0.00  0.00    +0.000 HD
ENDBRANCH  10  11
ENDBRANCH   4   9
TORSDOF 3
ENDMDL
MODEL 7
REMARK VINA RESULT:      -5.1      2.100      2.143
REMARK  Name = 
REMARK  3 active torsions:
REMARK  status: ('A' for Active; 'I' for Inactive)
REMARK    1  A    between atoms: N_2  and  C_4
REMARK    2  A    between atoms: C_7  and  C_8
REMARK    3  A    between atoms: N_9  and  O_10
REMARK                            x       y       z     vdW  Elec       q    Type
REMARK                         _______ _______ _______ _____ _____    ______ ____
ROOT
ATOM      1  C   UNL     1       6.797   4.724  14.589  0.00  0.00    +0.000 A 
ATOM      2  C   UNL     1       6.001   3.955  15.403  0.00  0.00    +0.000 A 
ATOM      3  C   UNL     1       6.095   4.548  16.685  0.00  0.00    +0.000 A 
ATOM      4  C   UNL     1       6.938   5.641  16.568  0.00  0.00    +0.000 A 
ATOM      5  O   UNL     1       7.375   5.750  15.273  0.00  0.00    +0.000 OA
ENDROOT
BRANCH   1   7
ATOM      6  O   UNL     1       7.907   5.457  12.754  0.00  0.00    +0.000 OA
ATOM      7  N   UNL     1       7.100   4.628  13.196  0.00  0.00    +0.000 N 
ATOM      8  O   UNL     1       6.542   3.738  12.543  0.00  0.00    +0.000 OA
ENDBRANCH   1   7
BRANCH   4   9
ATOM      9  C   UNL     1       7.384   6.608  17.530  0.00  0.00    +0.000 C 
ATOM     10  N   UNL     1       7.774   7.780  17.140  0.00  0.00    +0.000 NA
BRANCH  10  11
ATOM     11  O   UNL     1       8.162   8.535  18.254  0.00  0.00    +0.000 OA
ATOM     12  H   UNL     1       8.170   9.445  17.898  0.00  0.00    +0.000 HD
ENDBRANCH  10  11
ENDBRANCH   4   9
TORSDOF 3
ENDMDL
MODEL 8
REMARK VINA RESULT:      -5.1      3.535      4.281
REMARK  Name = 
REMARK  3 active torsions:
REMARK  status: ('A' for Active; 'I' for Inactive)
REMARK    1  A    between atoms: N_2  and  C_4
REMARK    2  A    between atoms: C_7  and  C_8
REMARK    3  A    between atoms: N_9  and  O_10
REMARK                            x       y       z     vdW  Elec       q    Type
REMARK                         _______ _______ _______ _____ _____    ______ ____
ROOT
ATOM      1  C   UNL     1       5.908   4.451  18.170  0.00  0.00    +0.000 A 
ATOM      2  C   UNL     1       4.828   4.740  17.370  0.00  0.00    +0.000 A 
ATOM      3  C   UNL     1       3.706   4.215  18.055  0.00  0.00    +0.000 A 
ATOM      4  C   UNL     1       4.173   3.645  19.227  0.00  0.00    +0.000 A 
ATOM      5  O   UNL     1       5.535   3.787  19.299  0.00  0.00    +0.000 OA
ENDROOT
BRANCH   1   7
ATOM      6  O   UNL     1       7.769   4.561  16.882  0.00  0.00    +0.000 OA
ATOM      7  N   UNL     1       7.301   4.729  18.016  0.00  0.00    +0.000 N 
ATOM      8  O   UNL     1       7.928   5.111  19.011  0.00  0.00    +0.000 OA
ENDBRANCH   1   7
BRANCH   4   9
ATOM      9  C   UNL     1       3.492   2.980  20.302  0.00  0.00    +0.000 C 
ATOM     10  N   UNL     1       2.577   3.603  20.974  0.00  0.00    +0.000 NA
BRANCH  10  11
ATOM     11  O   UNL     1       2.069   2.752  21.964  0.00  0.00    +0.000 OA
ATOM     12  H   UNL     1       2.776   2.769  22.638  0.00  0.00    +0.000 HD
ENDBRANCH  10  11
ENDBRANCH   4   9
TORSDOF 3
ENDMDL
MODEL 9
REMARK VINA RESULT:      -5.1      3.156      3.595
REMARK  Name = 
REMARK  3 active torsions:
REMARK  status: ('A' for Active; 'I' for Inactive)
REMARK    1  A    between atoms: N_2  and  C_4
REMARK    2  A    between atoms: C_7  and  C_8
REMARK    3  A    between atoms: N_9  and  O_10
REMARK                            x       y       z     vdW  Elec       q    Type
REMARK                         _______ _______ _______ _____ _____    ______ ____
ROOT
ATOM      1  C   UNL     1       4.120   4.306  17.158  0.00  0.00    +0.000 A 
ATOM      2  C   UNL     1       4.862   4.113  16.018  0.00  0.00    +0.000 A 
ATOM      3  C   UNL     1       6.196   4.414  16.387  0.00  0.00    +0.000 A 
ATOM      4  C   UNL     1       6.180   4.766  17.726  0.00  0.00    +0.000 A 
ATOM      5  O   UNL     1       4.896   4.703  18.204  0.00  0.00    +0.000 OA
ENDROOT
BRANCH   1   7
ATOM      6  O   UNL     1       2.189   3.135  16.961  0.00  0.00    +0.000 OA
ATOM      7  N   UNL     1       2.721   4.158  17.413  0.00  0.00    +0.000 N 
ATOM      8  O   UNL     1       2.153   5.048  18.058  0.00  0.00    +0.000 OA
ENDBRANCH   1   7
BRANCH   4   9
ATOM      9  C   UNL     1       7.231   5.155  18.622  0.00  0.00    +0.000 C 
ATOM     10  N   UNL     1       7.042   5.108  19.903  0.00  0.00    +0.000 NA
BRANCH  10  11
ATOM     11  O   UNL     1       8.203   5.537  20.559  0.00  0.00    +0.000 OA
ATOM     12  H   UNL     1       8.894   4.982  20.146  0.00  0.00    +0.000 HD
ENDBRANCH  10  11
ENDBRANCH   4   9
TORSDOF 3
ENDMDL
