MODEL 1
REMARK VINA RESULT:      -7.8      0.000      0.000
REMARK  Name = 
REMARK  4 active torsions:
REMARK  status: ('A' for Active; 'I' for Inactive)
REMARK    1  A    between atoms: C_1  and  N_2
REMARK    2  A    between atoms: C_3  and  C_4
REMARK    3  A    between atoms: N_14  and  C_15
REMARK    4  A    between atoms: C_15  and  C_16
REMARK                            x       y       z     vdW  Elec       q    Type
REMARK                         _______ _______ _______ _____ _____    ______ ____
ROOT
ATOM      1  C   UNL     1       1.801   6.017  20.478  0.00  0.00    +0.000 C 
ATOM      2  N   UNL     1       2.044   7.028  19.476  0.00  0.00    +0.000 N 
ATOM      3  C   UNL     1       1.669   8.362  19.497  0.00  0.00    +0.000 A 
ATOM      4  C   UNL     1       2.124   8.833  18.274  0.00  0.00    +0.000 A 
ATOM      5  N   UNL     1       2.830   7.883  17.588  0.00  0.00    +0.000 NA
ATOM      6  C   UNL     1       2.773   6.800  18.322  0.00  0.00    +0.000 A 
ATOM      7  N   UNL     1       3.351   5.608  18.081  0.00  0.00    +0.000 N 
ATOM      8  H   UNL     1       2.960   4.738  18.416  0.00  0.00    +0.000 HD
ENDROOT
BRANCH   3   9
ATOM      9  C   UNL     1       0.938   9.073  20.553  0.00  0.00    +0.000 A 
ATOM     10  C   UNL     1       1.181   8.829  21.914  0.00  0.00    +0.000 A 
ATOM     11  C   UNL     1       0.433   9.470  22.905  0.00  0.00    +0.000 A 
ATOM     12  C   UNL     1      -0.527  10.403  22.541  0.00  0.00    +0.000 A 
ATOM     13  F   UNL     1      -1.247  11.015  23.491  0.00  0.00    +0.000 F 
ATOM     14  C   UNL     1      -0.743  10.715  21.206  0.00  0.00    +0.000 A 
ATOM     15  C   UNL     1      -0.015  10.049  20.215  0.00  0.00    +0.000 A 
ENDBRANCH   3   9
BRANCH   7  16
ATOM     16  C   UNL     1       4.382   5.469  17.069  0.00  0.00    +0.000 C 
BRANCH  16  17
ATOM     17  C   UNL     1       5.696   5.939  17.644  0.00  0.00    +0.000 A 
ATOM     18  C   UNL     1       6.372   7.034  17.080  0.00  0.00    +0.000 A 
ATOM     19  C   UNL     1       7.590   7.472  17.607  0.00  0.00    +0.000 A 
ATOM     20  C   UNL     1       8.156   6.816  18.701  0.00  0.00    +0.000 A 
ATOM     21  C   UNL     1       7.499   5.722  19.272  0.00  0.00    +0.000 A 
ATOM     22  C   UNL     1       6.284   5.296  18.736  0.00  0.00    +0.000 A 
ATOM     23  F   UNL     1       5.672   4.245  19.302  0.00  0.00    +0.000 F 
ENDBRANCH  16  17
ENDBRANCH   7  16
TORSDOF 3
ENDMDL
MODEL 2
REMARK VINA RESULT:      -7.8      1.751      8.030
REMARK  Name = 
REMARK  4 active torsions:
REMARK  status: ('A' for Active; 'I' for Inactive)
REMARK    1  A    between atoms: C_1  and  N_2
REMARK    2  A    between atoms: C_3  and  C_4
REMARK    3  A    between atoms: N_14  and  C_15
REMARK    4  A    between atoms: C_15  and  C_16
REMARK                            x       y       z     vdW  Elec       q    Type
REMARK                         _______ _______ _______ _____ _____    ______ ____
ROOT
ATOM      1  C   UNL     1       2.945   8.182  17.699  0.00  0.00    +0.000 C 
ATOM      2  N   UNL     1       2.965   7.083  18.637  0.00  0.00    +0.000 N 
ATOM      3  C   UNL     1       3.737   5.933  18.591  0.00  0.00    +0.000 A 
ATOM      4  C   UNL     1       3.311   5.229  19.708  0.00  0.00    +0.000 A 
ATOM      5  N   UNL     1       2.415   5.943  20.456  0.00  0.00    +0.000 NA
ATOM      6  C   UNL     1       2.214   7.057  19.798  0.00  0.00    +0.000 A 
ATOM      7  N   UNL     1       1.438   8.097  20.156  0.00  0.00    +0.000 N 
ATOM      8  H   UNL     1       0.997   8.704  19.477  0.00  0.00    +0.000 HD
ENDROOT
BRANCH   3   9
ATOM      9  C   UNL     1       4.731   5.558  17.578  0.00  0.00    +0.000 A 
ATOM     10  C   UNL     1       5.995   6.166  17.521  0.00  0.00    +0.000 A 
ATOM     11  C   UNL     1       6.906   5.840  16.513  0.00  0.00    +0.000 A 
ATOM     12  C   UNL     1       6.579   4.859  15.587  0.00  0.00    +0.000 A 
ATOM     13  F   UNL     1       7.451   4.549  14.618  0.00  0.00    +0.000 F 
ATOM     14  C   UNL     1       5.365   4.192  15.660  0.00  0.00    +0.000 A 
ATOM     15  C   UNL     1       4.442   4.543  16.651  0.00  0.00    +0.000 A 
ENDBRANCH   3   9
BRANCH   7  16
ATOM     16  C   UNL     1       0.932   8.221  21.511  0.00  0.00    +0.000 C 
BRANCH  16  17
ATOM     17  C   UNL     1       0.108   9.482  21.610  0.00  0.00    +0.000 A 
ATOM     18  C   UNL     1      -0.250  10.194  20.453  0.00  0.00    +0.000 A 
ATOM     19  C   UNL     1      -1.011  11.363  20.538  0.00  0.00    +0.000 A 
ATOM     20  C   UNL     1      -1.419  11.843  21.783  0.00  0.00    +0.000 A 
ATOM     21  C   UNL     1      -1.068  11.149  22.945  0.00  0.00    +0.000 A 
ATOM     22  C   UNL     1      -0.309   9.983  22.845  0.00  0.00    +0.000 A 
ATOM     23  F   UNL     1       0.013   9.334  23.974  0.00  0.00    +0.000 F 
ENDBRANCH  16  17
ENDBRANCH   7  16
TORSDOF 3
ENDMDL
MODEL 3
REMARK VINA RESULT:      -7.8      0.097      1.032
REMARK  Name = 
REMARK  4 active torsions:
REMARK  status: ('A' for Active; 'I' for Inactive)
REMARK    1  A    between atoms: C_1  and  N_2
REMARK    2  A    between atoms: C_3  and  C_4
REMARK    3  A    between atoms: N_14  and  C_15
REMARK    4  A    between atoms: C_15  and  C_16
REMARK                            x       y       z     vdW  Elec       q    Type
REMARK                         _______ _______ _______ _____ _____    ______ ____
ROOT
ATOM      1  C   UNL     1       1.816   5.958  20.424  0.00  0.00    +0.000 C 
ATOM      2  N   UNL     1       2.069   6.972  19.427  0.00  0.00    +0.000 N 
ATOM      3  C   UNL     1       1.693   8.306  19.448  0.00  0.00    +0.000 A 
ATOM      4  C   UNL     1       2.161   8.781  18.232  0.00  0.00    +0.000 A 
ATOM      5  N   UNL     1       2.877   7.833  17.551  0.00  0.00    +0.000 NA
ATOM      6  C   UNL     1       2.812   6.749  18.281  0.00  0.00    +0.000 A 
ATOM      7  N   UNL     1       3.394   5.558  18.044  0.00  0.00    +0.000 N 
ATOM      8  H   UNL     1       3.000   4.686  18.372  0.00  0.00    +0.000 HD
ENDROOT
BRANCH   3   9
ATOM      9  C   UNL     1       0.948   9.013  20.497  0.00  0.00    +0.000 A 
ATOM     10  C   UNL     1      -0.067   9.934  20.191  0.00  0.00    +0.000 A 
ATOM     11  C   UNL     1      -0.724  10.642  21.200  0.00  0.00    +0.000 A 
ATOM     12  C   UNL     1      -0.410  10.391  22.528  0.00  0.00    +0.000 A 
ATOM     13  F   UNL     1      -1.038  11.073  23.495  0.00  0.00    +0.000 F 
ATOM     14  C   UNL     1       0.540   9.437  22.864  0.00  0.00    +0.000 A 
ATOM     15  C   UNL     1       1.219   8.752  21.851  0.00  0.00    +0.000 A 
ENDBRANCH   3   9
BRANCH   7  16
ATOM     16  C   UNL     1       4.437   5.423  17.044  0.00  0.00    +0.000 C 
BRANCH  16  17
ATOM     17  C   UNL     1       5.737   5.924  17.624  0.00  0.00    +0.000 A 
ATOM     18  C   UNL     1       6.368   7.060  17.088  0.00  0.00    +0.000 A 
ATOM     19  C   UNL     1       7.573   7.527  17.620  0.00  0.00    +0.000 A 
ATOM     20  C   UNL     1       8.170   6.861  18.692  0.00  0.00    +0.000 A 
ATOM     21  C   UNL     1       7.558   5.728  19.234  0.00  0.00    +0.000 A 
ATOM     22  C   UNL     1       6.356   5.272  18.694  0.00  0.00    +0.000 A 
ATOM     23  F   UNL     1       5.787   4.184  19.233  0.00  0.00    +0.000 F 
ENDBRANCH  16  17
ENDBRANCH   7  16
TORSDOF 3
ENDMDL
MODEL 4
REMARK VINA RESULT:      -7.7      2.983      4.500
REMARK  Name = 
REMARK  4 active torsions:
REMARK  status: ('A' for Active; 'I' for Inactive)
REMARK    1  A    between atoms: C_1  and  N_2
REMARK    2  A    between atoms: C_3  and  C_4
REMARK    3  A    between atoms: N_14  and  C_15
REMARK    4  A    between atoms: C_15  and  C_16
REMARK                            x       y       z     vdW  Elec       q    Type
REMARK                         _______ _______ _______ _____ _____    ______ ____
ROOT
ATOM      1  C   UNL     1       1.028   9.028  21.179  0.00  0.00    +0.000 C 
ATOM      2  N   UNL     1       1.463   8.797  19.821  0.00  0.00    +0.000 N 
ATOM      3  C   UNL     1       1.391   9.662  18.740  0.00  0.00    +0.000 A 
ATOM      4  C   UNL     1       1.908   8.903  17.700  0.00  0.00    +0.000 A 
ATOM      5  N   UNL     1       2.372   7.689  18.131  0.00  0.00    +0.000 NA
ATOM      6  C   UNL     1       2.096   7.638  19.409  0.00  0.00    +0.000 A 
ATOM      7  N   UNL     1       2.392   6.653  20.278  0.00  0.00    +0.000 N 
ATOM      8  H   UNL     1       1.827   6.462  21.095  0.00  0.00    +0.000 HD
ENDROOT
BRANCH   3   9
ATOM      9  C   UNL     1       0.859  11.029  18.718  0.00  0.00    +0.000 A 
ATOM     10  C   UNL     1      -0.521  11.285  18.671  0.00  0.00    +0.000 A 
ATOM     11  C   UNL     1      -1.009  12.592  18.589  0.00  0.00    +0.000 A 
ATOM     12  C   UNL     1      -0.119  13.656  18.611  0.00  0.00    +0.000 A 
ATOM     13  F   UNL     1      -0.586  14.909  18.529  0.00  0.00    +0.000 F 
ATOM     14  C   UNL     1       1.247  13.437  18.726  0.00  0.00    +0.000 A 
ATOM     15  C   UNL     1       1.734  12.127  18.776  0.00  0.00    +0.000 A 
ENDBRANCH   3   9
BRANCH   7  16
ATOM     16  C   UNL     1       3.343   5.612  19.932  0.00  0.00    +0.000 C 
BRANCH  16  17
ATOM     17  C   UNL     1       2.583   4.386  19.488  0.00  0.00    +0.000 A 
ATOM     18  C   UNL     1       1.370   4.035  20.104  0.00  0.00    +0.000 A 
ATOM     19  C   UNL     1       0.663   2.900  19.699  0.00  0.00    +0.000 A 
ATOM     20  C   UNL     1       1.162   2.093  18.675  0.00  0.00    +0.000 A 
ATOM     21  C   UNL     1       2.369   2.426  18.054  0.00  0.00    +0.000 A 
ATOM     22  C   UNL     1       3.064   3.561  18.468  0.00  0.00    +0.000 A 
ATOM     23  F   UNL     1       4.219   3.860  17.855  0.00  0.00    +0.000 F 
ENDBRANCH  16  17
ENDBRANCH   7  16
TORSDOF 3
ENDMDL
MODEL 5
REMARK VINA RESULT:      -7.7      0.986      1.421
REMARK  Name = 
REMARK  4 active torsions:
REMARK  status: ('A' for Active; 'I' for Inactive)
REMARK    1  A    between atoms: C_1  and  N_2
REMARK    2  A    between atoms: C_3  and  C_4
REMARK    3  A    between atoms: N_14  and  C_15
REMARK    4  A    between atoms: C_15  and  C_16
REMARK                            x       y       z     vdW  Elec       q    Type
REMARK                         _______ _______ _______ _____ _____    ______ ____
ROOT
ATOM      1  C   UNL     1       1.817   5.852  20.721  0.00  0.00    +0.000 C 
ATOM      2  N   UNL     1       2.062   6.779  19.641  0.00  0.00    +0.000 N 
ATOM      3  C   UNL     1       1.715   8.119  19.567  0.00  0.00    +0.000 A 
ATOM      4  C   UNL     1       2.156   8.485  18.304  0.00  0.00    +0.000 A 
ATOM      5  N   UNL     1       2.831   7.470  17.681  0.00  0.00    +0.000 NA
ATOM      6  C   UNL     1       2.765   6.448  18.496  0.00  0.00    +0.000 A 
ATOM      7  N   UNL     1       3.315   5.229  18.337  0.00  0.00    +0.000 N 
ATOM      8  H   UNL     1       2.912   4.395  18.744  0.00  0.00    +0.000 HD
ENDROOT
BRANCH   3   9
ATOM      9  C   UNL     1       1.017   8.923  20.577  0.00  0.00    +0.000 A 
ATOM     10  C   UNL     1       1.235   8.736  21.951  0.00  0.00    +0.000 A 
ATOM     11  C   UNL     1       0.517   9.468  22.900  0.00  0.00    +0.000 A 
ATOM     12  C   UNL     1      -0.385  10.435  22.479  0.00  0.00    +0.000 A 
ATOM     13  F   UNL     1      -1.076  11.135  23.388  0.00  0.00    +0.000 F 
ATOM     14  C   UNL     1      -0.572  10.690  21.128  0.00  0.00    +0.000 A 
ATOM     15  C   UNL     1       0.124   9.933  20.179  0.00  0.00    +0.000 A 
ENDBRANCH   3   9
BRANCH   7  16
ATOM     16  C   UNL     1       4.324   4.991  17.322  0.00  0.00    +0.000 C 
BRANCH  16  17
ATOM     17  C   UNL     1       5.625   5.609  17.774  0.00  0.00    +0.000 A 
ATOM     18  C   UNL     1       6.274   5.141  18.929  0.00  0.00    +0.000 A 
ATOM     19  C   UNL     1       7.478   5.709  19.354  0.00  0.00    +0.000 A 
ATOM     20  C   UNL     1       8.047   6.761  18.635  0.00  0.00    +0.000 A 
ATOM     21  C   UNL     1       7.413   7.242  17.486  0.00  0.00    +0.000 A 
ATOM     22  C   UNL     1       6.212   6.664  17.073  0.00  0.00    +0.000 A 
ATOM     23  F   UNL     1       5.624   7.142  15.966  0.00  0.00    +0.000 F 
ENDBRANCH  16  17
ENDBRANCH   7  16
TORSDOF 3
ENDMDL
MODEL 6
REMARK VINA RESULT:      -7.7      1.761      8.046
REMARK  Name = 
REMARK  4 active torsions:
REMARK  status: ('A' for Active; 'I' for Inactive)
REMARK    1  A    between atoms: C_1  and  N_2
REMARK    2  A    between atoms: C_3  and  C_4
REMARK    3  A    between atoms: N_14  and  C_15
REMARK    4  A    between atoms: C_15  and  C_16
REMARK                            x       y       z     vdW  Elec       q    Type
REMARK                         _______ _______ _______ _____ _____    ______ ____
ROOT
ATOM      1  C   UNL     1       2.968   8.265  17.706  0.00  0.00    +0.000 C 
ATOM      2  N   UNL     1       2.948   7.145  18.619  0.00  0.00    +0.000 N 
ATOM      3  C   UNL     1       3.683   5.972  18.551  0.00  0.00    +0.000 A 
ATOM      4  C   UNL     1       3.230   5.257  19.650  0.00  0.00    +0.000 A 
ATOM      5  N   UNL     1       2.354   5.984  20.410  0.00  0.00    +0.000 NA
ATOM      6  C   UNL     1       2.191   7.118  19.776  0.00  0.00    +0.000 A 
ATOM      7  N   UNL     1       1.448   8.175  20.154  0.00  0.00    +0.000 N 
ATOM      8  H   UNL     1       1.029   8.810  19.487  0.00  0.00    +0.000 HD
ENDROOT
BRANCH   3   9
ATOM      9  C   UNL     1       4.669   5.587  17.534  0.00  0.00    +0.000 A 
ATOM     10  C   UNL     1       4.449   4.509  16.662  0.00  0.00    +0.000 A 
ATOM     11  C   UNL     1       5.424   4.118  15.740  0.00  0.00    +0.000 A 
ATOM     12  C   UNL     1       6.604   4.841  15.645  0.00  0.00    +0.000 A 
ATOM     13  F   UNL     1       7.540   4.464  14.764  0.00  0.00    +0.000 F 
ATOM     14  C   UNL     1       6.821   5.953  16.447  0.00  0.00    +0.000 A 
ATOM     15  C   UNL     1       5.857   6.323  17.390  0.00  0.00    +0.000 A 
ENDBRANCH   3   9
BRANCH   7  16
ATOM     16  C   UNL     1       0.939   8.285  21.509  0.00  0.00    +0.000 C 
BRANCH  16  17
ATOM     17  C   UNL     1       0.105   9.538  21.616  0.00  0.00    +0.000 A 
ATOM     18  C   UNL     1      -0.244  10.265  20.464  0.00  0.00    +0.000 A 
ATOM     19  C   UNL     1      -1.014  11.426  20.557  0.00  0.00    +0.000 A 
ATOM     20  C   UNL     1      -1.442  11.885  21.804  0.00  0.00    +0.000 A 
ATOM     21  C   UNL     1      -1.102  11.176  22.960  0.00  0.00    +0.000 A 
ATOM     22  C   UNL     1      -0.332  10.018  22.853  0.00  0.00    +0.000 A 
ATOM     23  F   UNL     1      -0.020   9.355  23.976  0.00  0.00    +0.000 F 
ENDBRANCH  16  17
ENDBRANCH   7  16
TORSDOF 3
ENDMDL
MODEL 7
REMARK VINA RESULT:      -7.7      3.106      4.578
REMARK  Name = 
REMARK  4 active torsions:
REMARK  status: ('A' for Active; 'I' for Inactive)
REMARK    1  A    between atoms: C_1  and  N_2
REMARK    2  A    between atoms: C_3  and  C_4
REMARK    3  A    between atoms: N_14  and  C_15
REMARK    4  A    between atoms: C_15  and  C_16
REMARK                            x       y       z     vdW  Elec       q    Type
REMARK                         _______ _______ _______ _____ _____    ______ ____
ROOT
ATOM      1  C   UNL     1       0.994   9.179  21.180  0.00  0.00    +0.000 C 
ATOM      2  N   UNL     1       1.433   8.944  19.824  0.00  0.00    +0.000 N 
ATOM      3  C   UNL     1       1.371   9.809  18.742  0.00  0.00    +0.000 A 
ATOM      4  C   UNL     1       1.887   9.047  17.705  0.00  0.00    +0.000 A 
ATOM      5  N   UNL     1       2.342   7.831  18.137  0.00  0.00    +0.000 NA
ATOM      6  C   UNL     1       2.061   7.781  19.415  0.00  0.00    +0.000 A 
ATOM      7  N   UNL     1       2.348   6.795  20.285  0.00  0.00    +0.000 N 
ATOM      8  H   UNL     1       1.778   6.608  21.100  0.00  0.00    +0.000 HD
ENDROOT
BRANCH   3   9
ATOM      9  C   UNL     1       0.846  11.180  18.717  0.00  0.00    +0.000 A 
ATOM     10  C   UNL     1      -0.526  11.444  18.585  0.00  0.00    +0.000 A 
ATOM     11  C   UNL     1      -1.002  12.755  18.501  0.00  0.00    +0.000 A 
ATOM     12  C   UNL     1      -0.111  13.814  18.608  0.00  0.00    +0.000 A 
ATOM     13  F   UNL     1      -0.567  15.071  18.524  0.00  0.00    +0.000 F 
ATOM     14  C   UNL     1       1.243  13.585  18.807  0.00  0.00    +0.000 A 
ATOM     15  C   UNL     1       1.720  12.271  18.858  0.00  0.00    +0.000 A 
ENDBRANCH   3   9
BRANCH   7  16
ATOM     16  C   UNL     1       3.294   5.749  19.944  0.00  0.00    +0.000 C 
BRANCH  16  17
ATOM     17  C   UNL     1       2.531   4.479  19.651  0.00  0.00    +0.000 A 
ATOM     18  C   UNL     1       2.273   4.091  18.326  0.00  0.00    +0.000 A 
ATOM     19  C   UNL     1       1.566   2.918  18.049  0.00  0.00    +0.000 A 
ATOM     20  C   UNL     1       1.099   2.119  19.093  0.00  0.00    +0.000 A 
ATOM     21  C   UNL     1       1.343   2.493  20.418  0.00  0.00    +0.000 A 
ATOM     22  C   UNL     1       2.051   3.666  20.680  0.00  0.00    +0.000 A 
ATOM     23  F   UNL     1       2.274   4.002  21.959  0.00  0.00    +0.000 F 
ENDBRANCH  16  17
ENDBRANCH   7  16
TORSDOF 3
ENDMDL
MODEL 8
REMARK VINA RESULT:      -7.7      3.150      4.624
REMARK  Name = 
REMARK  4 active torsions:
REMARK  status: ('A' for Active; 'I' for Inactive)
REMARK    1  A    between atoms: C_1  and  N_2
REMARK    2  A    between atoms: C_3  and  C_4
REMARK    3  A    between atoms: N_14  and  C_15
REMARK    4  A    between atoms: C_15  and  C_16
REMARK                            x       y       z     vdW  Elec       q    Type
REMARK                         _______ _______ _______ _____ _____    ______ ____
ROOT
ATOM      1  C   UNL     1       0.949   9.354  21.161  0.00  0.00    +0.000 C 
ATOM      2  N   UNL     1       1.388   9.087  19.811  0.00  0.00    +0.000 N 
ATOM      3  C   UNL     1       1.356   9.936  18.717  0.00  0.00    +0.000 A 
ATOM      4  C   UNL     1       1.856   9.144  17.694  0.00  0.00    +0.000 A 
ATOM      5  N   UNL     1       2.274   7.922  18.147  0.00  0.00    +0.000 NA
ATOM      6  C   UNL     1       1.985   7.900  19.423  0.00  0.00    +0.000 A 
ATOM      7  N   UNL     1       2.240   6.920  20.310  0.00  0.00    +0.000 N 
ATOM      8  H   UNL     1       1.661   6.761  21.125  0.00  0.00    +0.000 HD
ENDROOT
BRANCH   3   9
ATOM      9  C   UNL     1       0.870  11.320  18.668  0.00  0.00    +0.000 A 
ATOM     10  C   UNL     1       1.752  12.412  18.634  0.00  0.00    +0.000 A 
ATOM     11  C   UNL     1       1.274  13.725  18.650  0.00  0.00    +0.000 A 
ATOM     12  C   UNL     1      -0.095  13.954  18.641  0.00  0.00    +0.000 A 
ATOM     13  F   UNL     1      -0.554  15.212  18.659  0.00  0.00    +0.000 F 
ATOM     14  C   UNL     1      -0.991  12.895  18.605  0.00  0.00    +0.000 A 
ATOM     15  C   UNL     1      -0.509  11.582  18.622  0.00  0.00    +0.000 A 
ENDBRANCH   3   9
BRANCH   7  16
ATOM     16  C   UNL     1       3.157   5.842  19.989  0.00  0.00    +0.000 C 
BRANCH  16  17
ATOM     17  C   UNL     1       2.359   4.603  19.663  0.00  0.00    +0.000 A 
ATOM     18  C   UNL     1       2.006   4.310  18.335  0.00  0.00    +0.000 A 
ATOM     19  C   UNL     1       1.265   3.166  18.027  0.00  0.00    +0.000 A 
ATOM     20  C   UNL     1       0.858   2.301  19.043  0.00  0.00    +0.000 A 
ATOM     21  C   UNL     1       1.198   2.580  20.371  0.00  0.00    +0.000 A 
ATOM     22  C   UNL     1       1.937   3.725  20.664  0.00  0.00    +0.000 A 
ATOM     23  F   UNL     1       2.252   3.969  21.945  0.00  0.00    +0.000 F 
ENDBRANCH  16  17
ENDBRANCH   7  16
TORSDOF 3
ENDMDL
MODEL 9
REMARK VINA RESULT:      -7.6      2.690      7.821
REMARK  Name = 
REMARK  4 active torsions:
REMARK  status: ('A' for Active; 'I' for Inactive)
REMARK    1  A    between atoms: C_1  and  N_2
REMARK    2  A    between atoms: C_3  and  C_4
REMARK    3  A    between atoms: N_14  and  C_15
REMARK    4  A    between atoms: C_15  and  C_16
REMARK                            x       y       z     vdW  Elec       q    Type
REMARK                         _______ _______ _______ _____ _____    ______ ____
ROOT
ATOM      1  C   UNL     1       1.321   7.653  20.753  0.00  0.00    +0.000 C 
ATOM      2  N   UNL     1       1.811   8.025  19.446  0.00  0.00    +0.000 N 
ATOM      3  C   UNL     1       2.511   7.245  18.540  0.00  0.00    +0.000 A 
ATOM      4  C   UNL     1       2.753   8.124  17.494  0.00  0.00    +0.000 A 
ATOM      5  N   UNL     1       2.147   9.335  17.691  0.00  0.00    +0.000 NA
ATOM      6  C   UNL     1       1.585   9.263  18.871  0.00  0.00    +0.000 A 
ATOM      7  N   UNL     1       0.839  10.199  19.488  0.00  0.00    +0.000 N 
ATOM      8  H   UNL     1       0.791  10.276  20.496  0.00  0.00    +0.000 HD
ENDROOT
BRANCH   3   9
ATOM      9  C   UNL     1       2.919   5.843  18.688  0.00  0.00    +0.000 A 
ATOM     10  C   UNL     1       4.152   5.487  19.258  0.00  0.00    +0.000 A 
ATOM     11  C   UNL     1       4.550   4.150  19.337  0.00  0.00    +0.000 A 
ATOM     12  C   UNL     1       3.690   3.154  18.897  0.00  0.00    +0.000 A 
ATOM     13  F   UNL     1       4.073   1.872  18.969  0.00  0.00    +0.000 F 
ATOM     14  C   UNL     1       2.437   3.470  18.392  0.00  0.00    +0.000 A 
ATOM     15  C   UNL     1       2.054   4.811  18.285  0.00  0.00    +0.000 A 
ENDBRANCH   3   9
BRANCH   7  16
ATOM     16  C   UNL     1       0.319  11.341  18.759  0.00  0.00    +0.000 C 
BRANCH  16  17
ATOM     17  C   UNL     1      -1.128  11.082  18.416  0.00  0.00    +0.000 A 
ATOM     18  C   UNL     1      -1.479  10.045  17.535  0.00  0.00    +0.000 A 
ATOM     19  C   UNL     1      -2.817   9.802  17.213  0.00  0.00    +0.000 A 
ATOM     20  C   UNL     1      -3.824  10.598  17.759  0.00  0.00    +0.000 A 
ATOM     21  C   UNL     1      -3.492  11.637  18.634  0.00  0.00    +0.000 A 
ATOM     22  C   UNL     1      -2.153  11.868  18.948  0.00  0.00    +0.000 A 
ATOM     23  F   UNL     1      -1.860  12.870  19.791  0.00  0.00    +0.000 F 
ENDBRANCH  16  17
ENDBRANCH   7  16
TORSDOF 3
ENDMDL
