MODEL 1
REMARK VINA RESULT:      -6.9      0.000      0.000
REMARK  Name = 
REMARK  4 active torsions:
REMARK  status: ('A' for Active; 'I' for Inactive)
REMARK    1  A    between atoms: C_1  and  C_2
REMARK    2  A    between atoms: N_4  and  C_5
REMARK    3  A    between atoms: C_6  and  C_7
REMARK    4  A    between atoms: C_10  and  C_11
REMARK                            x       y       z     vdW  Elec       q    Type
REMARK                         _______ _______ _______ _____ _____    ______ ____
ROOT
ATOM      1  C   UNL     1       4.111   4.864  17.132  0.00  0.00    +0.000 A 
ATOM      2  C   UNL     1       3.221   5.655  17.864  0.00  0.00    +0.000 A 
ATOM      3  C   UNL     1       2.234   5.061  18.657  0.00  0.00    +0.000 A 
ATOM      4  C   UNL     1       2.120   3.665  18.730  0.00  0.00    +0.000 A 
ATOM      5  C   UNL     1       3.024   2.876  17.999  0.00  0.00    +0.000 A 
ATOM      6  C   UNL     1       4.013   3.471  17.208  0.00  0.00    +0.000 A 
ENDROOT
BRANCH   4   7
ATOM      7  C   UNL     1       1.047   3.015  19.569  0.00  0.00    +0.000 C 
ATOM      8  F   UNL     1       0.133   2.317  18.839  0.00  0.00    +0.000 F 
ATOM      9  F   UNL     1       1.556   2.129  20.469  0.00  0.00    +0.000 F 
ATOM     10  F   UNL     1       0.330   3.916  20.296  0.00  0.00    +0.000 F 
ENDBRANCH   4   7
BRANCH   1  12
ATOM     11  C   UNL     1       5.786   4.813  15.357  0.00  0.00    +0.000 C 
ATOM     12  C   UNL     1       5.142   5.501  16.308  0.00  0.00    +0.000 C 
BRANCH  11  16
ATOM     13  C   UNL     1       8.279   5.603  12.707  0.00  0.00    +0.000 C 
ATOM     14  C   UNL     1       7.147   4.852  13.356  0.00  0.00    +0.000 C 
ATOM     15  O   UNL     1       6.621   3.883  12.817  0.00  0.00    +0.000 OA
ATOM     16  N   UNL     1       6.785   5.362  14.591  0.00  0.00    +0.000 N 
ATOM     17  H   UNL     1       7.287   6.167  14.950  0.00  0.00    +0.000 HD
ENDBRANCH  11  16
ENDBRANCH   1  12
TORSDOF 3
ENDMDL
MODEL 2
REMARK VINA RESULT:      -6.8      0.590      1.631
REMARK  Name = 
REMARK  4 active torsions:
REMARK  status: ('A' for Active; 'I' for Inactive)
REMARK    1  A    between atoms: C_1  and  C_2
REMARK    2  A    between atoms: N_4  and  C_5
REMARK    3  A    between atoms: C_6  and  C_7
REMARK    4  A    between atoms: C_10  and  C_11
REMARK                            x       y       z     vdW  Elec       q    Type
REMARK                         _______ _______ _______ _____ _____    ______ ____
ROOT
ATOM      1  C   UNL     1       4.073   5.035  17.093  0.00  0.00    +0.000 A 
ATOM      2  C   UNL     1       3.684   3.693  17.094  0.00  0.00    +0.000 A 
ATOM      3  C   UNL     1       2.776   3.219  18.046  0.00  0.00    +0.000 A 
ATOM      4  C   UNL     1       2.240   4.082  19.013  0.00  0.00    +0.000 A 
ATOM      5  C   UNL     1       2.627   5.433  19.000  0.00  0.00    +0.000 A 
ATOM      6  C   UNL     1       3.535   5.906  18.046  0.00  0.00    +0.000 A 
ENDROOT
BRANCH   4   7
ATOM      7  C   UNL     1       1.271   3.577  20.056  0.00  0.00    +0.000 C 
ATOM      8  F   UNL     1       1.864   2.847  21.041  0.00  0.00    +0.000 F 
ATOM      9  F   UNL     1       0.614   4.588  20.687  0.00  0.00    +0.000 F 
ATOM     10  F   UNL     1       0.305   2.775  19.529  0.00  0.00    +0.000 F 
ENDBRANCH   4   7
BRANCH   1  12
ATOM     11  C   UNL     1       6.219   4.932  15.934  0.00  0.00    +0.000 C 
ATOM     12  C   UNL     1       5.024   5.517  16.088  0.00  0.00    +0.000 C 
BRANCH  11  16
ATOM     13  C   UNL     1       8.339   5.518  12.930  0.00  0.00    +0.000 C 
ATOM     14  C   UNL     1       7.226   4.901  13.733  0.00  0.00    +0.000 C 
ATOM     15  O   UNL     1       6.476   4.055  13.254  0.00  0.00    +0.000 OA
ATOM     16  N   UNL     1       7.153   5.378  15.030  0.00  0.00    +0.000 N 
ATOM     17  H   UNL     1       7.824   6.077  15.329  0.00  0.00    +0.000 HD
ENDBRANCH  11  16
ENDBRANCH   1  12
TORSDOF 3
ENDMDL
MODEL 3
REMARK VINA RESULT:      -6.8      1.492      1.722
REMARK  Name = 
REMARK  4 active torsions:
REMARK  status: ('A' for Active; 'I' for Inactive)
REMARK    1  A    between atoms: C_1  and  C_2
REMARK    2  A    between atoms: N_4  and  C_5
REMARK    3  A    between atoms: C_6  and  C_7
REMARK    4  A    between atoms: C_10  and  C_11
REMARK                            x       y       z     vdW  Elec       q    Type
REMARK                         _______ _______ _______ _____ _____    ______ ____
ROOT
ATOM      1  C   UNL     1       4.340   4.905  17.118  0.00  0.00    +0.000 A 
ATOM      2  C   UNL     1       4.320   5.983  18.007  0.00  0.00    +0.000 A 
ATOM      3  C   UNL     1       3.456   5.977  19.107  0.00  0.00    +0.000 A 
ATOM      4  C   UNL     1       2.598   4.892  19.336  0.00  0.00    +0.000 A 
ATOM      5  C   UNL     1       2.632   3.806  18.444  0.00  0.00    +0.000 A 
ATOM      6  C   UNL     1       3.497   3.812  17.345  0.00  0.00    +0.000 A 
ENDROOT
BRANCH   4   7
ATOM      7  C   UNL     1       1.651   4.883  20.512  0.00  0.00    +0.000 C 
ATOM      8  F   UNL     1       0.514   4.166  20.289  0.00  0.00    +0.000 F 
ATOM      9  F   UNL     1       2.214   4.349  21.630  0.00  0.00    +0.000 F 
ATOM     10  F   UNL     1       1.238   6.133  20.862  0.00  0.00    +0.000 F 
ENDBRANCH   4   7
BRANCH   1  12
ATOM     11  C   UNL     1       5.511   3.808  15.278  0.00  0.00    +0.000 C 
ATOM     12  C   UNL     1       5.252   4.924  15.971  0.00  0.00    +0.000 C 
BRANCH  11  16
ATOM     13  C   UNL     1       7.110   3.641  11.920  0.00  0.00    +0.000 C 
ATOM     14  C   UNL     1       5.973   3.678  12.905  0.00  0.00    +0.000 C 
ATOM     15  O   UNL     1       4.802   3.621  12.544  0.00  0.00    +0.000 OA
ATOM     16  N   UNL     1       6.389   3.776  14.222  0.00  0.00    +0.000 N 
ATOM     17  H   UNL     1       7.385   3.815  14.416  0.00  0.00    +0.000 HD
ENDBRANCH  11  16
ENDBRANCH   1  12
TORSDOF 3
ENDMDL
MODEL 4
REMARK VINA RESULT:      -6.7      0.837      1.004
REMARK  Name = 
REMARK  4 active torsions:
REMARK  status: ('A' for Active; 'I' for Inactive)
REMARK    1  A    between atoms: C_1  and  C_2
REMARK    2  A    between atoms: N_4  and  C_5
REMARK    3  A    between atoms: C_6  and  C_7
REMARK    4  A    between atoms: C_10  and  C_11
REMARK                            x       y       z     vdW  Elec       q    Type
REMARK                         _______ _______ _______ _____ _____    ______ ____
ROOT
ATOM      1  C   UNL     1       4.209   4.851  17.235  0.00  0.00    +0.000 A 
ATOM      2  C   UNL     1       3.529   5.796  18.008  0.00  0.00    +0.000 A 
ATOM      3  C   UNL     1       2.730   5.390  19.081  0.00  0.00    +0.000 A 
ATOM      4  C   UNL     1       2.596   4.030  19.398  0.00  0.00    +0.000 A 
ATOM      5  C   UNL     1       3.291   3.086  18.623  0.00  0.00    +0.000 A 
ATOM      6  C   UNL     1       4.092   3.494  17.551  0.00  0.00    +0.000 A 
ENDROOT
BRANCH   4   7
ATOM      7  C   UNL     1       1.722   3.580  20.544  0.00  0.00    +0.000 C 
ATOM      8  F   UNL     1       1.514   2.234  20.573  0.00  0.00    +0.000 F 
ATOM      9  F   UNL     1       2.250   3.901  21.757  0.00  0.00    +0.000 F 
ATOM     10  F   UNL     1       0.484   4.147  20.513  0.00  0.00    +0.000 F 
ENDBRANCH   4   7
BRANCH   1  12
ATOM     11  C   UNL     1       6.345   4.975  16.059  0.00  0.00    +0.000 C 
ATOM     12  C   UNL     1       5.045   5.293  16.115  0.00  0.00    +0.000 C 
BRANCH  11  16
ATOM     13  C   UNL     1       8.166   5.449  12.846  0.00  0.00    +0.000 C 
ATOM     14  C   UNL     1       7.163   4.834  13.786  0.00  0.00    +0.000 C 
ATOM     15  O   UNL     1       6.429   3.915  13.436  0.00  0.00    +0.000 OA
ATOM     16  N   UNL     1       7.170   5.402  15.048  0.00  0.00    +0.000 N 
ATOM     17  H   UNL     1       7.821   6.158  15.237  0.00  0.00    +0.000 HD
ENDBRANCH  11  16
ENDBRANCH   1  12
TORSDOF 3
ENDMDL
MODEL 5
REMARK VINA RESULT:      -6.7      0.928      1.369
REMARK  Name = 
REMARK  4 active torsions:
REMARK  status: ('A' for Active; 'I' for Inactive)
REMARK    1  A    between atoms: C_1  and  C_2
REMARK    2  A    between atoms: N_4  and  C_5
REMARK    3  A    between atoms: C_6  and  C_7
REMARK    4  A    between atoms: C_10  and  C_11
REMARK                            x       y       z     vdW  Elec       q    Type
REMARK                         _______ _______ _______ _____ _____    ______ ____
ROOT
ATOM      1  C   UNL     1       4.527   4.160  17.613  0.00  0.00    +0.000 A 
ATOM      2  C   UNL     1       3.228   4.397  17.157  0.00  0.00    +0.000 A 
ATOM      3  C   UNL     1       2.127   4.071  17.955  0.00  0.00    +0.000 A 
ATOM      4  C   UNL     1       2.307   3.502  19.224  0.00  0.00    +0.000 A 
ATOM      5  C   UNL     1       3.617   3.277  19.681  0.00  0.00    +0.000 A 
ATOM      6  C   UNL     1       4.718   3.605  18.883  0.00  0.00    +0.000 A 
ENDROOT
BRANCH   4   7
ATOM      7  C   UNL     1       1.125   3.131  20.086  0.00  0.00    +0.000 C 
ATOM      8  F   UNL     1       1.449   2.327  21.137  0.00  0.00    +0.000 F 
ATOM      9  F   UNL     1       0.514   4.221  20.628  0.00  0.00    +0.000 F 
ATOM     10  F   UNL     1       0.159   2.466  19.394  0.00  0.00    +0.000 F 
ENDBRANCH   4   7
BRANCH   1  12
ATOM     11  C   UNL     1       5.509   5.241  15.657  0.00  0.00    +0.000 C 
ATOM     12  C   UNL     1       5.671   4.510  16.767  0.00  0.00    +0.000 C 
BRANCH  11  16
ATOM     13  C   UNL     1       8.087   5.296  12.972  0.00  0.00    +0.000 C 
ATOM     14  C   UNL     1       6.907   4.764  13.739  0.00  0.00    +0.000 C 
ATOM     15  O   UNL     1       6.343   3.723  13.417  0.00  0.00    +0.000 OA
ATOM     16  N   UNL     1       6.548   5.556  14.816  0.00  0.00    +0.000 N 
ATOM     17  H   UNL     1       7.083   6.398  14.999  0.00  0.00    +0.000 HD
ENDBRANCH  11  16
ENDBRANCH   1  12
TORSDOF 3
ENDMDL
MODEL 6
REMARK VINA RESULT:      -6.7      1.656      1.941
REMARK  Name = 
REMARK  4 active torsions:
REMARK  status: ('A' for Active; 'I' for Inactive)
REMARK    1  A    between atoms: C_1  and  C_2
REMARK    2  A    between atoms: N_4  and  C_5
REMARK    3  A    between atoms: C_6  and  C_7
REMARK    4  A    between atoms: C_10  and  C_11
REMARK                            x       y       z     vdW  Elec       q    Type
REMARK                         _______ _______ _______ _____ _____    ______ ____
ROOT
ATOM      1  C   UNL     1       3.996   4.113  17.338  0.00  0.00    +0.000 A 
ATOM      2  C   UNL     1       4.797   3.670  18.394  0.00  0.00    +0.000 A 
ATOM      3  C   UNL     1       4.234   3.403  19.646  0.00  0.00    +0.000 A 
ATOM      4  C   UNL     1       2.859   3.573  19.862  0.00  0.00    +0.000 A 
ATOM      5  C   UNL     1       2.058   4.008  18.793  0.00  0.00    +0.000 A 
ATOM      6  C   UNL     1       2.622   4.274  17.541  0.00  0.00    +0.000 A 
ENDROOT
BRANCH   4   7
ATOM      7  C   UNL     1       2.245   3.303  21.214  0.00  0.00    +0.000 C 
ATOM      8  F   UNL     1       0.927   2.961  21.155  0.00  0.00    +0.000 F 
ATOM      9  F   UNL     1       2.863   2.284  21.872  0.00  0.00    +0.000 F 
ATOM     10  F   UNL     1       2.312   4.379  22.046  0.00  0.00    +0.000 F 
ENDBRANCH   4   7
BRANCH   1  12
ATOM     11  C   UNL     1       5.675   3.707  15.613  0.00  0.00    +0.000 C 
ATOM     12  C   UNL     1       4.599   4.387  16.031  0.00  0.00    +0.000 C 
BRANCH  11  16
ATOM     13  C   UNL     1       7.754   5.077  12.845  0.00  0.00    +0.000 C 
ATOM     14  C   UNL     1       7.224   4.972  14.250  0.00  0.00    +0.000 C 
ATOM     15  O   UNL     1       7.599   5.729  15.140  0.00  0.00    +0.000 OA
ATOM     16  N   UNL     1       6.293   3.961  14.413  0.00  0.00    +0.000 N 
ATOM     17  H   UNL     1       6.049   3.391  13.610  0.00  0.00    +0.000 HD
ENDBRANCH  11  16
ENDBRANCH   1  12
TORSDOF 3
ENDMDL
MODEL 7
REMARK VINA RESULT:      -6.6      0.920      1.516
REMARK  Name = 
REMARK  4 active torsions:
REMARK  status: ('A' for Active; 'I' for Inactive)
REMARK    1  A    between atoms: C_1  and  C_2
REMARK    2  A    between atoms: N_4  and  C_5
REMARK    3  A    between atoms: C_6  and  C_7
REMARK    4  A    between atoms: C_10  and  C_11
REMARK                            x       y       z     vdW  Elec       q    Type
REMARK                         _______ _______ _______ _____ _____    ______ ____
ROOT
ATOM      1  C   UNL     1       4.521   4.360  17.718  0.00  0.00    +0.000 A 
ATOM      2  C   UNL     1       4.722   3.676  18.921  0.00  0.00    +0.000 A 
ATOM      3  C   UNL     1       3.632   3.290  19.706  0.00  0.00    +0.000 A 
ATOM      4  C   UNL     1       2.321   3.580  19.302  0.00  0.00    +0.000 A 
ATOM      5  C   UNL     1       2.126   4.258  18.087  0.00  0.00    +0.000 A 
ATOM      6  C   UNL     1       3.217   4.643  17.300  0.00  0.00    +0.000 A 
ENDROOT
BRANCH   4   7
ATOM      7  C   UNL     1       1.138   3.181  20.151  0.00  0.00    +0.000 C 
ATOM      8  F   UNL     1       0.480   4.240  20.699  0.00  0.00    +0.000 F 
ATOM      9  F   UNL     1       0.202   2.488  19.446  0.00  0.00    +0.000 F 
ATOM     10  F   UNL     1       1.488   2.380  21.195  0.00  0.00    +0.000 F 
ENDBRANCH   4   7
BRANCH   1  12
ATOM     11  C   UNL     1       5.518   5.146  15.633  0.00  0.00    +0.000 C 
ATOM     12  C   UNL     1       5.673   4.757  16.905  0.00  0.00    +0.000 C 
BRANCH  11  16
ATOM     13  C   UNL     1       8.123   5.313  12.979  0.00  0.00    +0.000 C 
ATOM     14  C   UNL     1       6.919   4.765  13.696  0.00  0.00    +0.000 C 
ATOM     15  O   UNL     1       6.325   3.769  13.295  0.00  0.00    +0.000 OA
ATOM     16  N   UNL     1       6.575   5.487  14.826  0.00  0.00    +0.000 N 
ATOM     17  H   UNL     1       7.135   6.296  15.074  0.00  0.00    +0.000 HD
ENDBRANCH  11  16
ENDBRANCH   1  12
TORSDOF 3
ENDMDL
MODEL 8
REMARK VINA RESULT:      -6.6      1.094      1.278
REMARK  Name = 
REMARK  4 active torsions:
REMARK  status: ('A' for Active; 'I' for Inactive)
REMARK    1  A    between atoms: C_1  and  C_2
REMARK    2  A    between atoms: N_4  and  C_5
REMARK    3  A    between atoms: C_6  and  C_7
REMARK    4  A    between atoms: C_10  and  C_11
REMARK                            x       y       z     vdW  Elec       q    Type
REMARK                         _______ _______ _______ _____ _____    ______ ____
ROOT
ATOM      1  C   UNL     1       4.508   5.099  17.696  0.00  0.00    +0.000 A 
ATOM      2  C   UNL     1       3.202   5.582  17.817  0.00  0.00    +0.000 A 
ATOM      3  C   UNL     1       2.347   5.070  18.798  0.00  0.00    +0.000 A 
ATOM      4  C   UNL     1       2.783   4.067  19.675  0.00  0.00    +0.000 A 
ATOM      5  C   UNL     1       4.101   3.594  19.554  0.00  0.00    +0.000 A 
ATOM      6  C   UNL     1       4.957   4.107  18.574  0.00  0.00    +0.000 A 
ENDROOT
BRANCH   4   7
ATOM      7  C   UNL     1       1.862   3.496  20.726  0.00  0.00    +0.000 C 
ATOM      8  F   UNL     1       0.591   3.982  20.657  0.00  0.00    +0.000 F 
ATOM      9  F   UNL     1       1.748   2.143  20.638  0.00  0.00    +0.000 F 
ATOM     10  F   UNL     1       2.289   3.754  21.993  0.00  0.00    +0.000 F 
ENDBRANCH   4   7
BRANCH   1  12
ATOM     11  C   UNL     1       6.201   4.848  15.955  0.00  0.00    +0.000 C 
ATOM     12  C   UNL     1       5.394   5.646  16.665  0.00  0.00    +0.000 C 
BRANCH  11  16
ATOM     13  C   UNL     1       8.195   5.466  12.872  0.00  0.00    +0.000 C 
ATOM     14  C   UNL     1       7.156   4.797  13.731  0.00  0.00    +0.000 C 
ATOM     15  O   UNL     1       6.469   3.871  13.312  0.00  0.00    +0.000 OA
ATOM     16  N   UNL     1       7.073   5.326  15.008  0.00  0.00    +0.000 N 
ATOM     17  H   UNL     1       7.691   6.092  15.258  0.00  0.00    +0.000 HD
ENDBRANCH  11  16
ENDBRANCH   1  12
TORSDOF 3
ENDMDL
MODEL 9
REMARK VINA RESULT:      -6.6      1.597      2.198
REMARK  Name = 
REMARK  4 active torsions:
REMARK  status: ('A' for Active; 'I' for Inactive)
REMARK    1  A    between atoms: C_1  and  C_2
REMARK    2  A    between atoms: N_4  and  C_5
REMARK    3  A    between atoms: C_6  and  C_7
REMARK    4  A    between atoms: C_10  and  C_11
REMARK                            x       y       z     vdW  Elec       q    Type
REMARK                         _______ _______ _______ _____ _____    ______ ____
ROOT
ATOM      1  C   UNL     1       4.649   4.715  17.343  0.00  0.00    +0.000 A 
ATOM      2  C   UNL     1       3.459   3.991  17.242  0.00  0.00    +0.000 A 
ATOM      3  C   UNL     1       2.512   4.038  18.270  0.00  0.00    +0.000 A 
ATOM      4  C   UNL     1       2.740   4.812  19.417  0.00  0.00    +0.000 A 
ATOM      5  C   UNL     1       3.935   5.546  19.507  0.00  0.00    +0.000 A 
ATOM      6  C   UNL     1       4.881   5.499  18.477  0.00  0.00    +0.000 A 
ENDROOT
BRANCH   4   7
ATOM      7  C   UNL     1       1.732   4.857  20.540  0.00  0.00    +0.000 C 
ATOM      8  F   UNL     1       1.323   6.117  20.853  0.00  0.00    +0.000 F 
ATOM      9  F   UNL     1       0.599   4.160  20.249  0.00  0.00    +0.000 F 
ATOM     10  F   UNL     1       2.212   4.323  21.697  0.00  0.00    +0.000 F 
ENDBRANCH   4   7
BRANCH   1  12
ATOM     11  C   UNL     1       5.390   3.946  15.148  0.00  0.00    +0.000 C 
ATOM     12  C   UNL     1       5.631   4.657  16.257  0.00  0.00    +0.000 C 
BRANCH  11  16
ATOM     13  C   UNL     1       7.090   3.531  11.862  0.00  0.00    +0.000 C 
ATOM     14  C   UNL     1       5.924   3.643  12.806  0.00  0.00    +0.000 C 
ATOM     15  O   UNL     1       4.764   3.563  12.414  0.00  0.00    +0.000 OA
ATOM     16  N   UNL     1       6.300   3.835  14.125  0.00  0.00    +0.000 N 
ATOM     17  H   UNL     1       7.289   3.884  14.346  0.00  0.00    +0.000 HD
ENDBRANCH  11  16
ENDBRANCH   1  12
TORSDOF 3
ENDMDL
