MODEL 1
REMARK VINA RESULT:      -7.5      0.000      0.000
REMARK  Name = 
REMARK  4 active torsions:
REMARK  status: ('A' for Active; 'I' for Inactive)
REMARK    1  A    between atoms: C_4  and  N_5
REMARK    2  A    between atoms: N_5  and  C_6
REMARK    3  A    between atoms: C_6  and  C_7
REMARK    4  A    between atoms: C_14  and  C_15
REMARK                            x       y       z     vdW  Elec       q    Type
REMARK                         _______ _______ _______ _____ _____    ______ ____
ROOT
ATOM      1  O   UNL     1       3.739   2.041  21.539  0.00  0.00    +0.000 OA
ATOM      2  C   UNL     1       3.403   2.347  20.395  0.00  0.00    +0.000 C 
ATOM      3  C   UNL     1       4.451   2.613  19.381  0.00  0.00    +0.000 C 
ATOM      4  C   UNL     1       4.131   2.868  18.103  0.00  0.00    +0.000 C 
ATOM      5  C   UNL     1       2.682   2.950  17.663  0.00  0.00    +0.000 C 
ATOM      6  C   UNL     1       1.729   3.367  18.806  0.00  0.00    +0.000 C 
ATOM      7  C   UNL     1       1.948   2.414  19.985  0.00  0.00    +0.000 C 
ENDROOT
BRANCH   6   8
ATOM      8  C   UNL     1       1.818   4.865  19.118  0.00  0.00    +0.000 A 
ATOM      9  C   UNL     1       1.496   5.307  20.416  0.00  0.00    +0.000 A 
ATOM     10  C   UNL     1       1.526   6.665  20.749  0.00  0.00    +0.000 A 
ATOM     11  C   UNL     1       1.898   7.602  19.793  0.00  0.00    +0.000 A 
ATOM     12 CL   UNL     1       1.923   9.275  20.195  0.00  0.00    +0.000 Cl
ATOM     13  C   UNL     1       2.249   7.191  18.512  0.00  0.00    +0.000 A 
ATOM     14  C   UNL     1       2.215   5.833  18.180  0.00  0.00    +0.000 A 
ENDBRANCH   6   8
BRANCH   4  15
ATOM     15  N   UNL     1       5.067   3.166  17.120  0.00  0.00    +0.000 N 
ATOM     16  H   UNL     1       5.087   2.436  16.407  0.00  0.00    +0.000 HD
BRANCH  15  17
ATOM     17  C   UNL     1       5.081   4.467  16.442  0.00  0.00    +0.000 C 
BRANCH  17  18
ATOM     18  C   UNL     1       6.084   5.373  17.111  0.00  0.00    +0.000 A 
ATOM     19  C   UNL     1       6.985   4.884  18.067  0.00  0.00    +0.000 A 
ATOM     20  C   UNL     1       7.895   5.745  18.686  0.00  0.00    +0.000 A 
ATOM     21  C   UNL     1       7.916   7.099  18.355  0.00  0.00    +0.000 A 
ATOM     22  C   UNL     1       7.035   7.595  17.399  0.00  0.00    +0.000 A 
ATOM     23  C   UNL     1       6.128   6.736  16.778  0.00  0.00    +0.000 A 
ENDBRANCH  17  18
ENDBRANCH  15  17
ENDBRANCH   4  15
TORSDOF 4
ENDMDL
MODEL 2
REMARK VINA RESULT:      -7.5      0.498      1.140
REMARK  Name = 
REMARK  4 active torsions:
REMARK  status: ('A' for Active; 'I' for Inactive)
REMARK    1  A    between atoms: C_4  and  N_5
REMARK    2  A    between atoms: N_5  and  C_6
REMARK    3  A    between atoms: C_6  and  C_7
REMARK    4  A    between atoms: C_14  and  C_15
REMARK                            x       y       z     vdW  Elec       q    Type
REMARK                         _______ _______ _______ _____ _____    ______ ____
ROOT
ATOM      1  O   UNL     1       2.995   2.397  22.003  0.00  0.00    +0.000 OA
ATOM      2  C   UNL     1       2.803   2.614  20.806  0.00  0.00    +0.000 C 
ATOM      3  C   UNL     1       3.966   2.679  19.890  0.00  0.00    +0.000 C 
ATOM      4  C   UNL     1       3.799   2.831  18.567  0.00  0.00    +0.000 C 
ATOM      5  C   UNL     1       2.415   3.000  17.970  0.00  0.00    +0.000 C 
ATOM      6  C   UNL     1       1.403   3.618  18.961  0.00  0.00    +0.000 C 
ATOM      7  C   UNL     1       1.409   2.773  20.240  0.00  0.00    +0.000 C 
ENDROOT
BRANCH   6   8
ATOM      8  C   UNL     1       1.614   5.125  19.143  0.00  0.00    +0.000 A 
ATOM      9  C   UNL     1       1.313   5.705  20.391  0.00  0.00    +0.000 A 
ATOM     10  C   UNL     1       1.452   7.081  20.604  0.00  0.00    +0.000 A 
ATOM     11  C   UNL     1       1.914   7.895  19.576  0.00  0.00    +0.000 A 
ATOM     12 CL   UNL     1       2.073   9.589  19.830  0.00  0.00    +0.000 Cl
ATOM     13  C   UNL     1       2.245   7.344  18.344  0.00  0.00    +0.000 A 
ATOM     14  C   UNL     1       2.101   5.969  18.131  0.00  0.00    +0.000 A 
ENDBRANCH   6   8
BRANCH   4  15
ATOM     15  N   UNL     1       4.850   2.940  17.665  0.00  0.00    +0.000 N 
ATOM     16  H   UNL     1       4.982   2.067  17.154  0.00  0.00    +0.000 HD
BRANCH  15  17
ATOM     17  C   UNL     1       4.927   4.046  16.704  0.00  0.00    +0.000 C 
BRANCH  17  18
ATOM     18  C   UNL     1       5.884   5.093  17.215  0.00  0.00    +0.000 A 
ATOM     19  C   UNL     1       5.818   6.421  16.770  0.00  0.00    +0.000 A 
ATOM     20  C   UNL     1       6.726   7.371  17.246  0.00  0.00    +0.000 A 
ATOM     21  C   UNL     1       7.704   7.007  18.170  0.00  0.00    +0.000 A 
ATOM     22  C   UNL     1       7.772   5.694  18.629  0.00  0.00    +0.000 A 
ATOM     23  C   UNL     1       6.865   4.746  18.157  0.00  0.00    +0.000 A 
ENDBRANCH  17  18
ENDBRANCH  15  17
ENDBRANCH   4  15
TORSDOF 4
ENDMDL
MODEL 3
REMARK VINA RESULT:      -7.3      3.504      6.587
REMARK  Name = 
REMARK  4 active torsions:
REMARK  status: ('A' for Active; 'I' for Inactive)
REMARK    1  A    between atoms: C_4  and  N_5
REMARK    2  A    between atoms: N_5  and  C_6
REMARK    3  A    between atoms: C_6  and  C_7
REMARK    4  A    between atoms: C_14  and  C_15
REMARK                            x       y       z     vdW  Elec       q    Type
REMARK                         _______ _______ _______ _____ _____    ______ ____
ROOT
ATOM      1  O   UNL     1       8.058   7.077  18.146  0.00  0.00    +0.000 OA
ATOM      2  C   UNL     1       7.000   6.501  17.892  0.00  0.00    +0.000 C 
ATOM      3  C   UNL     1       6.763   5.149  18.452  0.00  0.00    +0.000 C 
ATOM      4  C   UNL     1       5.592   4.519  18.270  0.00  0.00    +0.000 C 
ATOM      5  C   UNL     1       4.491   5.145  17.435  0.00  0.00    +0.000 C 
ATOM      6  C   UNL     1       5.028   6.120  16.364  0.00  0.00    +0.000 C 
ATOM      7  C   UNL     1       5.918   7.155  17.061  0.00  0.00    +0.000 C 
ENDROOT
BRANCH   6   8
ATOM      8  C   UNL     1       5.649   5.387  15.169  0.00  0.00    +0.000 A 
ATOM      9  C   UNL     1       4.873   4.431  14.485  0.00  0.00    +0.000 A 
ATOM     10  C   UNL     1       5.398   3.705  13.410  0.00  0.00    +0.000 A 
ATOM     11  C   UNL     1       6.703   3.939  12.991  0.00  0.00    +0.000 A 
ATOM     12 CL   UNL     1       7.356   3.039  11.678  0.00  0.00    +0.000 Cl
ATOM     13  C   UNL     1       7.480   4.897  13.631  0.00  0.00    +0.000 A 
ATOM     14  C   UNL     1       6.955   5.619  14.708  0.00  0.00    +0.000 A 
ENDBRANCH   6   8
BRANCH   4  15
ATOM     15  N   UNL     1       5.328   3.237  18.734  0.00  0.00    +0.000 N 
ATOM     16  H   UNL     1       6.163   2.652  18.681  0.00  0.00    +0.000 HD
BRANCH  15  17
ATOM     17  C   UNL     1       4.693   3.006  20.037  0.00  0.00    +0.000 C 
BRANCH  17  18
ATOM     18  C   UNL     1       3.194   3.029  19.879  0.00  0.00    +0.000 A 
ATOM     19  C   UNL     1       2.551   2.254  18.903  0.00  0.00    +0.000 A 
ATOM     20  C   UNL     1       1.162   2.302  18.764  0.00  0.00    +0.000 A 
ATOM     21  C   UNL     1       0.401   3.121  19.597  0.00  0.00    +0.000 A 
ATOM     22  C   UNL     1       1.026   3.886  20.578  0.00  0.00    +0.000 A 
ATOM     23  C   UNL     1       2.413   3.837  20.719  0.00  0.00    +0.000 A 
ENDBRANCH  17  18
ENDBRANCH  15  17
ENDBRANCH   4  15
TORSDOF 4
ENDMDL
MODEL 4
REMARK VINA RESULT:      -7.3      1.303      1.851
REMARK  Name = 
REMARK  4 active torsions:
REMARK  status: ('A' for Active; 'I' for Inactive)
REMARK    1  A    between atoms: C_4  and  N_5
REMARK    2  A    between atoms: N_5  and  C_6
REMARK    3  A    between atoms: C_6  and  C_7
REMARK    4  A    between atoms: C_14  and  C_15
REMARK                            x       y       z     vdW  Elec       q    Type
REMARK                         _______ _______ _______ _____ _____    ______ ____
ROOT
ATOM      1  O   UNL     1       1.619   2.496  22.286  0.00  0.00    +0.000 OA
ATOM      2  C   UNL     1       1.986   2.685  21.126  0.00  0.00    +0.000 C 
ATOM      3  C   UNL     1       3.437   2.732  20.828  0.00  0.00    +0.000 C 
ATOM      4  C   UNL     1       3.883   2.852  19.567  0.00  0.00    +0.000 C 
ATOM      5  C   UNL     1       2.915   3.003  18.409  0.00  0.00    +0.000 C 
ATOM      6  C   UNL     1       1.570   3.640  18.827  0.00  0.00    +0.000 C 
ATOM      7  C   UNL     1       0.996   2.825  19.991  0.00  0.00    +0.000 C 
ENDROOT
BRANCH   6   8
ATOM      8  C   UNL     1       1.689   5.152  19.051  0.00  0.00    +0.000 A 
ATOM      9  C   UNL     1       1.403   5.672  20.328  0.00  0.00    +0.000 A 
ATOM     10  C   UNL     1       1.460   7.047  20.581  0.00  0.00    +0.000 A 
ATOM     11  C   UNL     1       1.823   7.922  19.564  0.00  0.00    +0.000 A 
ATOM     12 CL   UNL     1       1.882   9.614  19.868  0.00  0.00    +0.000 Cl
ATOM     13  C   UNL     1       2.138   7.432  18.302  0.00  0.00    +0.000 A 
ATOM     14  C   UNL     1       2.077   6.058  18.049  0.00  0.00    +0.000 A 
ENDBRANCH   6   8
BRANCH   4  15
ATOM     15  N   UNL     1       5.227   2.944  19.232  0.00  0.00    +0.000 N 
ATOM     16  H   UNL     1       5.424   2.423  18.376  0.00  0.00    +0.000 HD
BRANCH  15  17
ATOM     17  C   UNL     1       5.912   4.239  19.143  0.00  0.00    +0.000 C 
BRANCH  17  18
ATOM     18  C   UNL     1       5.723   4.816  17.763  0.00  0.00    +0.000 A 
ATOM     19  C   UNL     1       5.787   4.007  16.619  0.00  0.00    +0.000 A 
ATOM     20  C   UNL     1       5.624   4.565  15.349  0.00  0.00    +0.000 A 
ATOM     21  C   UNL     1       5.393   5.933  15.207  0.00  0.00    +0.000 A 
ATOM     22  C   UNL     1       5.315   6.744  16.335  0.00  0.00    +0.000 A 
ATOM     23  C   UNL     1       5.474   6.188  17.604  0.00  0.00    +0.000 A 
ENDBRANCH  17  18
ENDBRANCH  15  17
ENDBRANCH   4  15
TORSDOF 4
ENDMDL
MODEL 5
REMARK VINA RESULT:      -7.3      2.193      4.938
REMARK  Name = 
REMARK  4 active torsions:
REMARK  status: ('A' for Active; 'I' for Inactive)
REMARK    1  A    between atoms: C_4  and  N_5
REMARK    2  A    between atoms: N_5  and  C_6
REMARK    3  A    between atoms: C_6  and  C_7
REMARK    4  A    between atoms: C_14  and  C_15
REMARK                            x       y       z     vdW  Elec       q    Type
REMARK                         _______ _______ _______ _____ _____    ______ ____
ROOT
ATOM      1  O   UNL     1       7.092   5.532  15.347  0.00  0.00    +0.000 OA
ATOM      2  C   UNL     1       6.561   5.070  16.357  0.00  0.00    +0.000 C 
ATOM      3  C   UNL     1       5.611   3.940  16.220  0.00  0.00    +0.000 C 
ATOM      4  C   UNL     1       5.072   3.352  17.299  0.00  0.00    +0.000 C 
ATOM      5  C   UNL     1       5.371   3.862  18.696  0.00  0.00    +0.000 C 
ATOM      6  C   UNL     1       5.735   5.364  18.724  0.00  0.00    +0.000 C 
ATOM      7  C   UNL     1       6.885   5.597  17.738  0.00  0.00    +0.000 C 
ENDROOT
BRANCH   6   8
ATOM      8  C   UNL     1       4.504   6.262  18.555  0.00  0.00    +0.000 A 
ATOM      9  C   UNL     1       4.491   7.204  17.508  0.00  0.00    +0.000 A 
ATOM     10  C   UNL     1       3.411   8.074  17.328  0.00  0.00    +0.000 A 
ATOM     11  C   UNL     1       2.316   8.001  18.182  0.00  0.00    +0.000 A 
ATOM     12 CL   UNL     1       0.992   9.079  17.971  0.00  0.00    +0.000 Cl
ATOM     13  C   UNL     1       2.290   7.062  19.205  0.00  0.00    +0.000 A 
ATOM     14  C   UNL     1       3.373   6.195  19.387  0.00  0.00    +0.000 A 
ENDBRANCH   6   8
BRANCH   4  15
ATOM     15  N   UNL     1       4.147   2.319  17.231  0.00  0.00    +0.000 N 
ATOM     16  H   UNL     1       4.373   1.678  16.469  0.00  0.00    +0.000 HD
BRANCH  15  17
ATOM     17  C   UNL     1       3.800   1.518  18.411  0.00  0.00    +0.000 C 
BRANCH  17  18
ATOM     18  C   UNL     1       2.818   2.279  19.265  0.00  0.00    +0.000 A 
ATOM     19  C   UNL     1       1.626   2.788  18.730  0.00  0.00    +0.000 A 
ATOM     20  C   UNL     1       0.737   3.503  19.537  0.00  0.00    +0.000 A 
ATOM     21  C   UNL     1       1.027   3.715  20.884  0.00  0.00    +0.000 A 
ATOM     22  C   UNL     1       2.201   3.204  21.430  0.00  0.00    +0.000 A 
ATOM     23  C   UNL     1       3.087   2.487  20.627  0.00  0.00    +0.000 A 
ENDBRANCH  17  18
ENDBRANCH  15  17
ENDBRANCH   4  15
TORSDOF 4
ENDMDL
MODEL 6
REMARK VINA RESULT:      -7.3      2.254      4.890
REMARK  Name = 
REMARK  4 active torsions:
REMARK  status: ('A' for Active; 'I' for Inactive)
REMARK    1  A    between atoms: C_4  and  N_5
REMARK    2  A    between atoms: N_5  and  C_6
REMARK    3  A    between atoms: C_6  and  C_7
REMARK    4  A    between atoms: C_14  and  C_15
REMARK                            x       y       z     vdW  Elec       q    Type
REMARK                         _______ _______ _______ _____ _____    ______ ____
ROOT
ATOM      1  O   UNL     1       6.564   5.507  14.699  0.00  0.00    +0.000 OA
ATOM      2  C   UNL     1       6.222   5.074  15.800  0.00  0.00    +0.000 C 
ATOM      3  C   UNL     1       5.258   3.949  15.865  0.00  0.00    +0.000 C 
ATOM      4  C   UNL     1       4.921   3.391  17.038  0.00  0.00    +0.000 C 
ATOM      5  C   UNL     1       5.471   3.931  18.344  0.00  0.00    +0.000 C 
ATOM      6  C   UNL     1       5.839   5.430  18.269  0.00  0.00    +0.000 C 
ATOM      7  C   UNL     1       6.793   5.630  17.086  0.00  0.00    +0.000 C 
ENDROOT
BRANCH   6   8
ATOM      8  C   UNL     1       4.602   6.334  18.304  0.00  0.00    +0.000 A 
ATOM      9  C   UNL     1       3.621   6.102  19.288  0.00  0.00    +0.000 A 
ATOM     10  C   UNL     1       2.455   6.873  19.346  0.00  0.00    +0.000 A 
ATOM     11  C   UNL     1       2.262   7.903  18.432  0.00  0.00    +0.000 A 
ATOM     12 CL   UNL     1       0.824   8.844  18.493  0.00  0.00    +0.000 Cl
ATOM     13  C   UNL     1       3.228   8.172  17.470  0.00  0.00    +0.000 A 
ATOM     14  C   UNL     1       4.392   7.398  17.411  0.00  0.00    +0.000 A 
ENDBRANCH   6   8
BRANCH   4  15
ATOM     15  N   UNL     1       3.994   2.365  17.164  0.00  0.00    +0.000 N 
ATOM     16  H   UNL     1       4.102   1.684  16.411  0.00  0.00    +0.000 HD
BRANCH  15  17
ATOM     17  C   UNL     1       3.828   1.629  18.422  0.00  0.00    +0.000 C 
BRANCH  17  18
ATOM     18  C   UNL     1       2.841   2.352  19.303  0.00  0.00    +0.000 A 
ATOM     19  C   UNL     1       1.616   2.814  18.800  0.00  0.00    +0.000 A 
ATOM     20  C   UNL     1       0.723   3.496  19.630  0.00  0.00    +0.000 A 
ATOM     21  C   UNL     1       1.040   3.720  20.969  0.00  0.00    +0.000 A 
ATOM     22  C   UNL     1       2.247   3.255  21.484  0.00  0.00    +0.000 A 
ATOM     23  C   UNL     1       3.139   2.572  20.657  0.00  0.00    +0.000 A 
ENDBRANCH  17  18
ENDBRANCH  15  17
ENDBRANCH   4  15
TORSDOF 4
ENDMDL
MODEL 7
REMARK VINA RESULT:      -7.3      0.867      1.372
REMARK  Name = 
REMARK  4 active torsions:
REMARK  status: ('A' for Active; 'I' for Inactive)
REMARK    1  A    between atoms: C_4  and  N_5
REMARK    2  A    between atoms: N_5  and  C_6
REMARK    3  A    between atoms: C_6  and  C_7
REMARK    4  A    between atoms: C_14  and  C_15
REMARK                            x       y       z     vdW  Elec       q    Type
REMARK                         _______ _______ _______ _____ _____    ______ ____
ROOT
ATOM      1  O   UNL     1       4.341   1.770  20.203  0.00  0.00    +0.000 OA
ATOM      2  C   UNL     1       3.827   2.347  19.246  0.00  0.00    +0.000 C 
ATOM      3  C   UNL     1       4.700   3.020  18.255  0.00  0.00    +0.000 C 
ATOM      4  C   UNL     1       4.188   3.590  17.153  0.00  0.00    +0.000 C 
ATOM      5  C   UNL     1       2.690   3.614  16.912  0.00  0.00    +0.000 C 
ATOM      6  C   UNL     1       1.869   3.565  18.219  0.00  0.00    +0.000 C 
ATOM      7  C   UNL     1       2.329   2.348  19.029  0.00  0.00    +0.000 C 
ENDROOT
BRANCH   6   8
ATOM      8  C   UNL     1       1.869   4.910  18.956  0.00  0.00    +0.000 A 
ATOM      9  C   UNL     1       1.429   4.949  20.293  0.00  0.00    +0.000 A 
ATOM     10  C   UNL     1       1.374   6.153  21.004  0.00  0.00    +0.000 A 
ATOM     11  C   UNL     1       1.778   7.335  20.393  0.00  0.00    +0.000 A 
ATOM     12 CL   UNL     1       1.700   8.818  21.259  0.00  0.00    +0.000 Cl
ATOM     13  C   UNL     1       2.244   7.319  19.084  0.00  0.00    +0.000 A 
ATOM     14  C   UNL     1       2.295   6.115  18.373  0.00  0.00    +0.000 A 
ENDBRANCH   6   8
BRANCH   4  15
ATOM     15  N   UNL     1       4.951   4.270  16.212  0.00  0.00    +0.000 N 
ATOM     16  H   UNL     1       4.696   5.258  16.185  0.00  0.00    +0.000 HD
BRANCH  15  17
ATOM     17  C   UNL     1       6.415   4.176  16.196  0.00  0.00    +0.000 C 
BRANCH  17  18
ATOM     18  C   UNL     1       7.000   5.287  17.032  0.00  0.00    +0.000 A 
ATOM     19  C   UNL     1       6.968   6.620  16.599  0.00  0.00    +0.000 A 
ATOM     20  C   UNL     1       7.530   7.631  17.383  0.00  0.00    +0.000 A 
ATOM     21  C   UNL     1       8.126   7.323  18.604  0.00  0.00    +0.000 A 
ATOM     22  C   UNL     1       8.155   6.005  19.051  0.00  0.00    +0.000 A 
ATOM     23  C   UNL     1       7.591   4.995  18.271  0.00  0.00    +0.000 A 
ENDBRANCH  17  18
ENDBRANCH  15  17
ENDBRANCH   4  15
TORSDOF 4
ENDMDL
MODEL 8
REMARK VINA RESULT:      -7.3      2.258      3.190
REMARK  Name = 
REMARK  4 active torsions:
REMARK  status: ('A' for Active; 'I' for Inactive)
REMARK    1  A    between atoms: C_4  and  N_5
REMARK    2  A    between atoms: N_5  and  C_6
REMARK    3  A    between atoms: C_6  and  C_7
REMARK    4  A    between atoms: C_14  and  C_15
REMARK                            x       y       z     vdW  Elec       q    Type
REMARK                         _______ _______ _______ _____ _____    ______ ____
ROOT
ATOM      1  O   UNL     1       4.973   2.327  20.309  0.00  0.00    +0.000 OA
ATOM      2  C   UNL     1       4.482   2.904  19.339  0.00  0.00    +0.000 C 
ATOM      3  C   UNL     1       5.337   3.796  18.521  0.00  0.00    +0.000 C 
ATOM      4  C   UNL     1       4.866   4.380  17.408  0.00  0.00    +0.000 C 
ATOM      5  C   UNL     1       3.423   4.192  16.981  0.00  0.00    +0.000 C 
ATOM      6  C   UNL     1       2.477   3.893  18.166  0.00  0.00    +0.000 C 
ATOM      7  C   UNL     1       3.040   2.691  18.935  0.00  0.00    +0.000 C 
ENDROOT
BRANCH   6   8
ATOM      8  C   UNL     1       2.170   5.145  18.994  0.00  0.00    +0.000 A 
ATOM      9  C   UNL     1       2.405   6.410  18.422  0.00  0.00    +0.000 A 
ATOM     10  C   UNL     1       2.176   7.587  19.144  0.00  0.00    +0.000 A 
ATOM     11  C   UNL     1       1.690   7.516  20.444  0.00  0.00    +0.000 A 
ATOM     12 CL   UNL     1       1.420   8.960  21.338  0.00  0.00    +0.000 Cl
ATOM     13  C   UNL     1       1.422   6.281  21.022  0.00  0.00    +0.000 A 
ATOM     14  C   UNL     1       1.655   5.105  20.301  0.00  0.00    +0.000 A 
ENDBRANCH   6   8
BRANCH   4  15
ATOM     15  N   UNL     1       5.606   5.257  16.626  0.00  0.00    +0.000 N 
ATOM     16  H   UNL     1       5.633   6.185  17.049  0.00  0.00    +0.000 HD
BRANCH  15  17
ATOM     17  C   UNL     1       6.961   4.924  16.170  0.00  0.00    +0.000 C 
BRANCH  17  18
ATOM     18  C   UNL     1       6.946   4.675  14.683  0.00  0.00    +0.000 A 
ATOM     19  C   UNL     1       7.808   5.365  13.819  0.00  0.00    +0.000 A 
ATOM     20  C   UNL     1       7.766   5.128  12.442  0.00  0.00    +0.000 A 
ATOM     21  C   UNL     1       6.867   4.201  11.916  0.00  0.00    +0.000 A 
ATOM     22  C   UNL     1       6.014   3.501  12.765  0.00  0.00    +0.000 A 
ATOM     23  C   UNL     1       6.057   3.734  14.140  0.00  0.00    +0.000 A 
ENDBRANCH  17  18
ENDBRANCH  15  17
ENDBRANCH   4  15
TORSDOF 4
ENDMDL
MODEL 9
REMARK VINA RESULT:      -7.2      3.495      6.532
REMARK  Name = 
REMARK  4 active torsions:
REMARK  status: ('A' for Active; 'I' for Inactive)
REMARK    1  A    between atoms: C_4  and  N_5
REMARK    2  A    between atoms: N_5  and  C_6
REMARK    3  A    between atoms: C_6  and  C_7
REMARK    4  A    between atoms: C_14  and  C_15
REMARK                            x       y       z     vdW  Elec       q    Type
REMARK                         _______ _______ _______ _____ _____    ______ ____
ROOT
ATOM      1  O   UNL     1       8.239   7.078  18.143  0.00  0.00    +0.000 OA
ATOM      2  C   UNL     1       7.150   6.528  17.977  0.00  0.00    +0.000 C 
ATOM      3  C   UNL     1       6.909   5.203  18.596  0.00  0.00    +0.000 C 
ATOM      4  C   UNL     1       5.711   4.605  18.511  0.00  0.00    +0.000 C 
ATOM      5  C   UNL     1       4.577   5.239  17.727  0.00  0.00    +0.000 C 
ATOM      6  C   UNL     1       5.073   6.161  16.591  0.00  0.00    +0.000 C 
ATOM      7  C   UNL     1       6.037   7.189  17.195  0.00  0.00    +0.000 C 
ENDROOT
BRANCH   6   8
ATOM      8  C   UNL     1       5.592   5.370  15.385  0.00  0.00    +0.000 A 
ATOM      9  C   UNL     1       6.890   5.638  14.908  0.00  0.00    +0.000 A 
ATOM     10  C   UNL     1       7.404   4.972  13.789  0.00  0.00    +0.000 A 
ATOM     11  C   UNL     1       6.633   4.013  13.143  0.00  0.00    +0.000 A 
ATOM     12 CL   UNL     1       7.256   3.203  11.759  0.00  0.00    +0.000 Cl
ATOM     13  C   UNL     1       5.360   3.709  13.610  0.00  0.00    +0.000 A 
ATOM     14  C   UNL     1       4.846   4.379  14.726  0.00  0.00    +0.000 A 
ENDBRANCH   6   8
BRANCH   4  15
ATOM     15  N   UNL     1       5.439   3.347  19.034  0.00  0.00    +0.000 N 
ATOM     16  H   UNL     1       5.362   3.387  20.051  0.00  0.00    +0.000 HD
BRANCH  15  17
ATOM     17  C   UNL     1       4.335   2.525  18.526  0.00  0.00    +0.000 C 
BRANCH  17  18
ATOM     18  C   UNL     1       3.132   2.687  19.420  0.00  0.00    +0.000 A 
ATOM     19  C   UNL     1       3.255   2.677  20.817  0.00  0.00    +0.000 A 
ATOM     20  C   UNL     1       2.124   2.814  21.627  0.00  0.00    +0.000 A 
ATOM     21  C   UNL     1       0.863   2.965  21.053  0.00  0.00    +0.000 A 
ATOM     22  C   UNL     1       0.729   2.989  19.667  0.00  0.00    +0.000 A 
ATOM     23  C   UNL     1       1.857   2.855  18.858  0.00  0.00    +0.000 A 
ENDBRANCH  17  18
ENDBRANCH  15  17
ENDBRANCH   4  15
TORSDOF 4
ENDMDL
