MODEL 1
REMARK VINA RESULT:      -6.9      0.000      0.000
REMARK  Name = 
REMARK  13 active torsions:
REMARK  status: ('A' for Active; 'I' for Inactive)
REMARK    1  A    between atoms: C_1  and  C_2
REMARK    2  A    between atoms: C_2  and  C_3
REMARK    3  A    between atoms: C_3  and  C_4
REMARK    4  A    between atoms: C_4  and  N_5
REMARK    5  A    between atoms: N_5  and  C_6
REMARK    6  A    between atoms: C_6  and  C_7
REMARK    7  A    between atoms: N_9  and  C_10
REMARK    8  A    between atoms: C_10  and  C_11
REMARK    9  A    between atoms: C_10  and  C_12
REMARK   10  A    between atoms: C_13  and  C_15
REMARK   11  A    between atoms: C_15  and  N_16
REMARK   12  A    between atoms: C_20  and  C_21
REMARK   13  A    between atoms: N_22  and  O_23
REMARK                            x       y       z     vdW  Elec       q    Type
REMARK                         _______ _______ _______ _____ _____    ______ ____
ROOT
ATOM      1  N   UNL     1       6.106   5.189  17.318  0.00  0.00    +0.000 N 
ATOM      2  C   UNL     1       5.468   4.214  18.091  0.00  0.00    +0.000 C 
ATOM      3  O   UNL     1       5.918   3.908  19.198  0.00  0.00    +0.000 OA
ENDROOT
BRANCH   1   4
ATOM      4  C   UNL     1       7.262   5.883  17.915  0.00  0.00    +0.000 C 
BRANCH   4   5
ATOM      5  C   UNL     1       7.453   7.361  17.541  0.00  0.00    +0.000 C 
BRANCH   5   7
ATOM      6  C   UNL     1       8.446   9.668  18.072  0.00  0.00    +0.000 C 
ATOM      7  C   UNL     1       8.397   8.188  18.420  0.00  0.00    +0.000 C 
ENDBRANCH   5   7
ENDBRANCH   4   5
ENDBRANCH   1   4
BRANCH   1   8
ATOM      8  C   UNL     1       5.681   5.557  15.961  0.00  0.00    +0.000 C 
BRANCH   8   9
ATOM      9  C   UNL     1       6.467   5.023  14.744  0.00  0.00    +0.000 C 
ATOM     10  O   UNL     1       7.686   5.182  14.688  0.00  0.00    +0.000 OA
ATOM     11  N   UNL     1       5.789   4.240  13.837  0.00  0.00    +0.000 N 
ATOM     12  H   UNL     1       4.777   4.277  13.817  0.00  0.00    +0.000 HD
BRANCH  11  13
ATOM     13  C   UNL     1       6.498   3.587  12.729  0.00  0.00    +0.000 C 
ATOM     14  C   UNL     1       5.555   2.738  11.882  0.00  0.00    +0.000 C 
ATOM     15  C   UNL     1       7.237   4.598  11.856  0.00  0.00    +0.000 C 
ENDBRANCH  11  13
ENDBRANCH   8   9
ENDBRANCH   1   8
BRANCH   2  16
ATOM     16  C   UNL     1       4.250   3.472  17.547  0.00  0.00    +0.000 C 
BRANCH  16  17
ATOM     17  N   UNL     1       3.102   3.462  18.441  0.00  0.00    +0.000 N 
ATOM     18  C   UNL     1       2.757   2.403  19.247  0.00  0.00    +0.000 A 
ATOM     19  C   UNL     1       1.623   2.803  19.909  0.00  0.00    +0.000 A 
ATOM     20  N   UNL     1       1.273   4.070  19.537  0.00  0.00    +0.000 NA
ATOM     21  C   UNL     1       2.217   4.486  18.707  0.00  0.00    +0.000 A 
BRANCH  21  22
ATOM     22  C   UNL     1       2.230   5.843  18.228  0.00  0.00    +0.000 C 
ATOM     23  N   UNL     1       3.004   6.742  18.749  0.00  0.00    +0.000 NA
BRANCH  23  24
ATOM     24  O   UNL     1       2.819   7.956  18.075  0.00  0.00    +0.000 OA
ATOM     25  H   UNL     1       3.687   8.088  17.648  0.00  0.00    +0.000 HD
ENDBRANCH  23  24
ENDBRANCH  21  22
ENDBRANCH  16  17
ENDBRANCH   2  16
TORSDOF 10
ENDMDL
MODEL 2
REMARK VINA RESULT:      -6.8      2.636      7.123
REMARK  Name = 
REMARK  13 active torsions:
REMARK  status: ('A' for Active; 'I' for Inactive)
REMARK    1  A    between atoms: C_1  and  C_2
REMARK    2  A    between atoms: C_2  and  C_3
REMARK    3  A    between atoms: C_3  and  C_4
REMARK    4  A    between atoms: C_4  and  N_5
REMARK    5  A    between atoms: N_5  and  C_6
REMARK    6  A    between atoms: C_6  and  C_7
REMARK    7  A    between atoms: N_9  and  C_10
REMARK    8  A    between atoms: C_10  and  C_11
REMARK    9  A    between atoms: C_10  and  C_12
REMARK   10  A    between atoms: C_13  and  C_15
REMARK   11  A    between atoms: C_15  and  N_16
REMARK   12  A    between atoms: C_20  and  C_21
REMARK   13  A    between atoms: N_22  and  O_23
REMARK                            x       y       z     vdW  Elec       q    Type
REMARK                         _______ _______ _______ _____ _____    ______ ____
ROOT
ATOM      1  N   UNL     1       2.618   5.875  18.595  0.00  0.00    +0.000 N 
ATOM      2  C   UNL     1       3.562   5.421  17.669  0.00  0.00    +0.000 C 
ATOM      3  O   UNL     1       3.482   4.277  17.212  0.00  0.00    +0.000 OA
ENDROOT
BRANCH   1   4
ATOM      4  C   UNL     1       1.497   4.975  18.922  0.00  0.00    +0.000 C 
BRANCH   4   5
ATOM      5  C   UNL     1       1.227   4.717  20.412  0.00  0.00    +0.000 C 
BRANCH   5   7
ATOM      6  C   UNL     1       1.700   2.577  21.748  0.00  0.00    +0.000 C 
ATOM      7  C   UNL     1       2.253   3.871  21.173  0.00  0.00    +0.000 C 
ENDBRANCH   5   7
ENDBRANCH   4   5
ENDBRANCH   1   4
BRANCH   1   8
ATOM      8  C   UNL     1       2.684   7.192  19.243  0.00  0.00    +0.000 C 
BRANCH   8   9
ATOM      9  C   UNL     1       2.090   8.425  18.529  0.00  0.00    +0.000 C 
ATOM     10  O   UNL     1       2.263   8.571  17.319  0.00  0.00    +0.000 OA
ATOM     11  N   UNL     1       1.244   9.236  19.249  0.00  0.00    +0.000 N 
ATOM     12  H   UNL     1       1.264   9.191  20.261  0.00  0.00    +0.000 HD
BRANCH  11  13
ATOM     13  C   UNL     1       0.536  10.348  18.602  0.00  0.00    +0.000 C 
ATOM     14  C   UNL     1      -0.810   9.903  18.036  0.00  0.00    +0.000 C 
ATOM     15  C   UNL     1       0.352  11.531  19.550  0.00  0.00    +0.000 C 
ENDBRANCH  11  13
ENDBRANCH   8   9
ENDBRANCH   1   8
BRANCH   2  16
ATOM     16  C   UNL     1       4.737   6.307  17.264  0.00  0.00    +0.000 C 
BRANCH  16  17
ATOM     17  N   UNL     1       5.811   5.607  16.577  0.00  0.00    +0.000 N 
ATOM     18  C   UNL     1       5.941   5.538  15.210  0.00  0.00    +0.000 A 
ATOM     19  C   UNL     1       7.068   4.786  14.989  0.00  0.00    +0.000 A 
ATOM     20  N   UNL     1       7.629   4.403  16.175  0.00  0.00    +0.000 NA
ATOM     21  C   UNL     1       6.904   4.968  17.126  0.00  0.00    +0.000 A 
BRANCH  21  22
ATOM     22  C   UNL     1       7.305   4.883  18.506  0.00  0.00    +0.000 C 
ATOM     23  N   UNL     1       7.823   5.893  19.129  0.00  0.00    +0.000 NA
BRANCH  23  24
ATOM     24  O   UNL     1       8.096   5.527  20.453  0.00  0.00    +0.000 OA
ATOM     25  H   UNL     1       7.935   6.362  20.934  0.00  0.00    +0.000 HD
ENDBRANCH  23  24
ENDBRANCH  21  22
ENDBRANCH  16  17
ENDBRANCH   2  16
TORSDOF 10
ENDMDL
MODEL 3
REMARK VINA RESULT:      -6.7      1.837      2.948
REMARK  Name = 
REMARK  13 active torsions:
REMARK  status: ('A' for Active; 'I' for Inactive)
REMARK    1  A    between atoms: C_1  and  C_2
REMARK    2  A    between atoms: C_2  and  C_3
REMARK    3  A    between atoms: C_3  and  C_4
REMARK    4  A    between atoms: C_4  and  N_5
REMARK    5  A    between atoms: N_5  and  C_6
REMARK    6  A    between atoms: C_6  and  C_7
REMARK    7  A    between atoms: N_9  and  C_10
REMARK    8  A    between atoms: C_10  and  C_11
REMARK    9  A    between atoms: C_10  and  C_12
REMARK   10  A    between atoms: C_13  and  C_15
REMARK   11  A    between atoms: C_15  and  N_16
REMARK   12  A    between atoms: C_20  and  C_21
REMARK   13  A    between atoms: N_22  and  O_23
REMARK                            x       y       z     vdW  Elec       q    Type
REMARK                         _______ _______ _______ _____ _____    ______ ____
ROOT
ATOM      1  N   UNL     1       5.125   5.004  16.337  0.00  0.00    +0.000 N 
ATOM      2  C   UNL     1       4.017   4.703  17.136  0.00  0.00    +0.000 C 
ATOM      3  O   UNL     1       3.427   5.602  17.740  0.00  0.00    +0.000 OA
ENDROOT
BRANCH   1   4
ATOM      4  C   UNL     1       5.488   6.424  16.183  0.00  0.00    +0.000 C 
BRANCH   4   5
ATOM      5  C   UNL     1       6.563   6.972  17.135  0.00  0.00    +0.000 C 
BRANCH   5   7
ATOM      6  C   UNL     1       8.198   6.563  19.071  0.00  0.00    +0.000 C 
ATOM      7  C   UNL     1       7.342   5.953  17.971  0.00  0.00    +0.000 C 
ENDBRANCH   5   7
ENDBRANCH   4   5
ENDBRANCH   1   4
BRANCH   1   8
ATOM      8  C   UNL     1       5.928   3.986  15.647  0.00  0.00    +0.000 C 
BRANCH   8   9
ATOM      9  C   UNL     1       6.080   4.046  14.111  0.00  0.00    +0.000 C 
ATOM     10  O   UNL     1       7.009   4.684  13.615  0.00  0.00    +0.000 OA
ATOM     11  N   UNL     1       5.258   3.243  13.354  0.00  0.00    +0.000 N 
ATOM     12  H   UNL     1       4.410   2.877  13.771  0.00  0.00    +0.000 HD
BRANCH  11  13
ATOM     13  C   UNL     1       5.434   3.145  11.900  0.00  0.00    +0.000 C 
ATOM     14  C   UNL     1       6.083   1.823  11.500  0.00  0.00    +0.000 C 
ATOM     15  C   UNL     1       4.115   3.339  11.155  0.00  0.00    +0.000 C 
ENDBRANCH  11  13
ENDBRANCH   8   9
ENDBRANCH   1   8
BRANCH   2  16
ATOM     16  C   UNL     1       3.567   3.256  17.322  0.00  0.00    +0.000 C 
BRANCH  16  17
ATOM     17  N   UNL     1       2.682   3.042  18.456  0.00  0.00    +0.000 N 
ATOM     18  C   UNL     1       1.319   3.220  18.420  0.00  0.00    +0.000 A 
ATOM     19  C   UNL     1       0.879   2.924  19.686  0.00  0.00    +0.000 A 
ATOM     20  N   UNL     1       1.927   2.565  20.486  0.00  0.00    +0.000 NA
ATOM     21  C   UNL     1       3.001   2.567  19.712  0.00  0.00    +0.000 A 
BRANCH  21  22
ATOM     22  C   UNL     1       4.267   2.098  20.209  0.00  0.00    +0.000 C 
ATOM     23  N   UNL     1       4.411   1.689  21.430  0.00  0.00    +0.000 NA
BRANCH  23  24
ATOM     24  O   UNL     1       5.735   1.276  21.624  0.00  0.00    +0.000 OA
ATOM     25  H   UNL     1       5.798   1.240  22.598  0.00  0.00    +0.000 HD
ENDBRANCH  23  24
ENDBRANCH  21  22
ENDBRANCH  16  17
ENDBRANCH   2  16
TORSDOF 10
ENDMDL
MODEL 4
REMARK VINA RESULT:      -6.7      1.796      2.908
REMARK  Name = 
REMARK  13 active torsions:
REMARK  status: ('A' for Active; 'I' for Inactive)
REMARK    1  A    between atoms: C_1  and  C_2
REMARK    2  A    between atoms: C_2  and  C_3
REMARK    3  A    between atoms: C_3  and  C_4
REMARK    4  A    between atoms: C_4  and  N_5
REMARK    5  A    between atoms: N_5  and  C_6
REMARK    6  A    between atoms: C_6  and  C_7
REMARK    7  A    between atoms: N_9  and  C_10
REMARK    8  A    between atoms: C_10  and  C_11
REMARK    9  A    between atoms: C_10  and  C_12
REMARK   10  A    between atoms: C_13  and  C_15
REMARK   11  A    between atoms: C_15  and  N_16
REMARK   12  A    between atoms: C_20  and  C_21
REMARK   13  A    between atoms: N_22  and  O_23
REMARK                            x       y       z     vdW  Elec       q    Type
REMARK                         _______ _______ _______ _____ _____    ______ ____
ROOT
ATOM      1  N   UNL     1       6.851   6.236  17.872  0.00  0.00    +0.000 N 
ATOM      2  C   UNL     1       6.393   5.301  18.805  0.00  0.00    +0.000 C 
ATOM      3  O   UNL     1       6.892   5.256  19.933  0.00  0.00    +0.000 OA
ENDROOT
BRANCH   1   4
ATOM      4  C   UNL     1       7.870   7.202  18.319  0.00  0.00    +0.000 C 
BRANCH   4   5
ATOM      5  C   UNL     1       7.666   8.667  17.906  0.00  0.00    +0.000 C 
BRANCH   5   7
ATOM      6  C   UNL     1       9.152  10.134  19.399  0.00  0.00    +0.000 C 
ATOM      7  C   UNL     1       8.880   9.597  18.003  0.00  0.00    +0.000 C 
ENDBRANCH   5   7
ENDBRANCH   4   5
ENDBRANCH   1   4
BRANCH   1   8
ATOM      8  C   UNL     1       6.366   6.306  16.487  0.00  0.00    +0.000 C 
BRANCH   8   9
ATOM      9  C   UNL     1       6.877   5.286  15.446  0.00  0.00    +0.000 C 
ATOM     10  O   UNL     1       7.834   4.562  15.721  0.00  0.00    +0.000 OA
ATOM     11  N   UNL     1       6.133   5.112  14.301  0.00  0.00    +0.000 N 
ATOM     12  H   UNL     1       5.470   5.829  14.032  0.00  0.00    +0.000 HD
BRANCH  11  13
ATOM     13  C   UNL     1       6.481   4.066  13.330  0.00  0.00    +0.000 C 
ATOM     14  C   UNL     1       5.237   3.467  12.681  0.00  0.00    +0.000 C 
ATOM     15  C   UNL     1       7.445   4.581  12.265  0.00  0.00    +0.000 C 
ENDBRANCH  11  13
ENDBRANCH   8   9
ENDBRANCH   1   8
BRANCH   2  16
ATOM     16  C   UNL     1       5.321   4.285  18.420  0.00  0.00    +0.000 C 
BRANCH  16  17
ATOM     17  N   UNL     1       4.217   4.188  19.363  0.00  0.00    +0.000 N 
ATOM     18  C   UNL     1       3.230   5.134  19.502  0.00  0.00    +0.000 A 
ATOM     19  C   UNL     1       2.406   4.661  20.492  0.00  0.00    +0.000 A 
ATOM     20  N   UNL     1       2.856   3.456  20.954  0.00  0.00    +0.000 NA
ATOM     21  C   UNL     1       3.907   3.145  20.212  0.00  0.00    +0.000 A 
BRANCH  21  22
ATOM     22  C   UNL     1       4.546   1.861  20.342  0.00  0.00    +0.000 C 
ATOM     23  N   UNL     1       5.374   1.607  21.304  0.00  0.00    +0.000 NA
BRANCH  23  24
ATOM     24  O   UNL     1       5.820   0.284  21.190  0.00  0.00    +0.000 OA
ATOM     25  H   UNL     1       6.734   0.345  21.530  0.00  0.00    +0.000 HD
ENDBRANCH  23  24
ENDBRANCH  21  22
ENDBRANCH  16  17
ENDBRANCH   2  16
TORSDOF 10
ENDMDL
MODEL 5
REMARK VINA RESULT:      -6.6      2.057      6.997
REMARK  Name = 
REMARK  13 active torsions:
REMARK  status: ('A' for Active; 'I' for Inactive)
REMARK    1  A    between atoms: C_1  and  C_2
REMARK    2  A    between atoms: C_2  and  C_3
REMARK    3  A    between atoms: C_3  and  C_4
REMARK    4  A    between atoms: C_4  and  N_5
REMARK    5  A    between atoms: N_5  and  C_6
REMARK    6  A    between atoms: C_6  and  C_7
REMARK    7  A    between atoms: N_9  and  C_10
REMARK    8  A    between atoms: C_10  and  C_11
REMARK    9  A    between atoms: C_10  and  C_12
REMARK   10  A    between atoms: C_13  and  C_15
REMARK   11  A    between atoms: C_15  and  N_16
REMARK   12  A    between atoms: C_20  and  C_21
REMARK   13  A    between atoms: N_22  and  O_23
REMARK                            x       y       z     vdW  Elec       q    Type
REMARK                         _______ _______ _______ _____ _____    ______ ____
ROOT
ATOM      1  N   UNL     1       3.146   4.910  19.117  0.00  0.00    +0.000 N 
ATOM      2  C   UNL     1       4.263   4.196  18.672  0.00  0.00    +0.000 C 
ATOM      3  O   UNL     1       4.934   3.535  19.470  0.00  0.00    +0.000 OA
ENDROOT
BRANCH   1   4
ATOM      4  C   UNL     1       2.764   4.764  20.533  0.00  0.00    +0.000 C 
BRANCH   4   5
ATOM      5  C   UNL     1       1.446   4.030  20.824  0.00  0.00    +0.000 C 
BRANCH   5   7
ATOM      6  C   UNL     1       0.710   2.383  18.996  0.00  0.00    +0.000 C 
ATOM      7  C   UNL     1       1.343   2.571  20.366  0.00  0.00    +0.000 C 
ENDBRANCH   5   7
ENDBRANCH   4   5
ENDBRANCH   1   4
BRANCH   1   8
ATOM      8  C   UNL     1       2.340   5.780  18.250  0.00  0.00    +0.000 C 
BRANCH   8   9
ATOM      9  C   UNL     1       2.428   7.313  18.413  0.00  0.00    +0.000 C 
ATOM     10  O   UNL     1       3.328   7.936  17.848  0.00  0.00    +0.000 OA
ATOM     11  N   UNL     1       1.392   7.949  19.057  0.00  0.00    +0.000 N 
ATOM     12  H   UNL     1       0.775   7.406  19.649  0.00  0.00    +0.000 HD
BRANCH  11  13
ATOM     13  C   UNL     1       1.339   9.415  19.132  0.00  0.00    +0.000 C 
ATOM     14  C   UNL     1       0.423   9.999  18.061  0.00  0.00    +0.000 C 
ATOM     15  C   UNL     1       0.916   9.896  20.518  0.00  0.00    +0.000 C 
ENDBRANCH  11  13
ENDBRANCH   8   9
ENDBRANCH   1   8
BRANCH   2  16
ATOM     16  C   UNL     1       4.704   4.280  17.213  0.00  0.00    +0.000 C 
BRANCH  16  17
ATOM     17  N   UNL     1       5.819   5.183  16.971  0.00  0.00    +0.000 N 
ATOM     18  C   UNL     1       6.211   6.178  17.834  0.00  0.00    +0.000 A 
ATOM     19  C   UNL     1       7.279   6.789  17.226  0.00  0.00    +0.000 A 
ATOM     20  N   UNL     1       7.552   6.193  16.026  0.00  0.00    +0.000 NA
ATOM     21  C   UNL     1       6.711   5.176  15.919  0.00  0.00    +0.000 A 
BRANCH  21  22
ATOM     22  C   UNL     1       6.820   4.245  14.827  0.00  0.00    +0.000 C 
ATOM     23  N   UNL     1       5.897   4.143  13.924  0.00  0.00    +0.000 NA
BRANCH  23  24
ATOM     24  O   UNL     1       6.278   3.178  12.983  0.00  0.00    +0.000 OA
ATOM     25  H   UNL     1       5.432   2.727  12.798  0.00  0.00    +0.000 HD
ENDBRANCH  23  24
ENDBRANCH  21  22
ENDBRANCH  16  17
ENDBRANCH   2  16
TORSDOF 10
ENDMDL
MODEL 6
REMARK VINA RESULT:      -6.6      2.745      7.351
REMARK  Name = 
REMARK  13 active torsions:
REMARK  status: ('A' for Active; 'I' for Inactive)
REMARK    1  A    between atoms: C_1  and  C_2
REMARK    2  A    between atoms: C_2  and  C_3
REMARK    3  A    between atoms: C_3  and  C_4
REMARK    4  A    between atoms: C_4  and  N_5
REMARK    5  A    between atoms: N_5  and  C_6
REMARK    6  A    between atoms: C_6  and  C_7
REMARK    7  A    between atoms: N_9  and  C_10
REMARK    8  A    between atoms: C_10  and  C_11
REMARK    9  A    between atoms: C_10  and  C_12
REMARK   10  A    between atoms: C_13  and  C_15
REMARK   11  A    between atoms: C_15  and  N_16
REMARK   12  A    between atoms: C_20  and  C_21
REMARK   13  A    between atoms: N_22  and  O_23
REMARK                            x       y       z     vdW  Elec       q    Type
REMARK                         _______ _______ _______ _____ _____    ______ ____
ROOT
ATOM      1  N   UNL     1       2.568   6.005  18.407  0.00  0.00    +0.000 N 
ATOM      2  C   UNL     1       3.868   5.493  18.361  0.00  0.00    +0.000 C 
ATOM      3  O   UNL     1       4.098   4.351  18.768  0.00  0.00    +0.000 OA
ENDROOT
BRANCH   1   4
ATOM      4  C   UNL     1       1.496   5.105  18.867  0.00  0.00    +0.000 C 
BRANCH   4   5
ATOM      5  C   UNL     1       1.459   4.782  20.369  0.00  0.00    +0.000 C 
BRANCH   5   7
ATOM      6  C   UNL     1       2.151   2.714  21.723  0.00  0.00    +0.000 C 
ATOM      7  C   UNL     1       1.146   3.335  20.766  0.00  0.00    +0.000 C 
ENDBRANCH   5   7
ENDBRANCH   4   5
ENDBRANCH   1   4
BRANCH   1   8
ATOM      8  C   UNL     1       2.223   7.378  18.013  0.00  0.00    +0.000 C 
BRANCH   8   9
ATOM      9  C   UNL     1       1.699   8.368  19.077  0.00  0.00    +0.000 C 
ATOM     10  O   UNL     1       2.006   8.211  20.259  0.00  0.00    +0.000 OA
ATOM     11  N   UNL     1       1.038   9.491  18.636  0.00  0.00    +0.000 N 
ATOM     12  H   UNL     1       0.656   9.500  17.698  0.00  0.00    +0.000 HD
BRANCH  11  13
ATOM     13  C   UNL     1       0.630  10.542  19.578  0.00  0.00    +0.000 C 
ATOM     14  C   UNL     1       1.430  11.825  19.367  0.00  0.00    +0.000 C 
ATOM     15  C   UNL     1      -0.867  10.826  19.496  0.00  0.00    +0.000 C 
ENDBRANCH  11  13
ENDBRANCH   8   9
ENDBRANCH   1   8
BRANCH   2  16
ATOM     16  C   UNL     1       5.025   6.359  17.871  0.00  0.00    +0.000 C 
BRANCH  16  17
ATOM     17  N   UNL     1       6.001   5.655  17.053  0.00  0.00    +0.000 N 
ATOM     18  C   UNL     1       5.858   5.420  15.707  0.00  0.00    +0.000 A 
ATOM     19  C   UNL     1       6.984   4.729  15.335  0.00  0.00    +0.000 A 
ATOM     20  N   UNL     1       7.808   4.543  16.409  0.00  0.00    +0.000 NA
ATOM     21  C   UNL     1       7.239   5.173  17.425  0.00  0.00    +0.000 A 
BRANCH  21  22
ATOM     22  C   UNL     1       7.918   5.295  18.688  0.00  0.00    +0.000 C 
ATOM     23  N   UNL     1       7.274   5.284  19.812  0.00  0.00    +0.000 NA
BRANCH  23  24
ATOM     24  O   UNL     1       8.187   5.400  20.867  0.00  0.00    +0.000 OA
ATOM     25  H   UNL     1       9.027   5.146  20.440  0.00  0.00    +0.000 HD
ENDBRANCH  23  24
ENDBRANCH  21  22
ENDBRANCH  16  17
ENDBRANCH   2  16
TORSDOF 10
ENDMDL
MODEL 7
REMARK VINA RESULT:      -6.6      2.520      6.707
REMARK  Name = 
REMARK  13 active torsions:
REMARK  status: ('A' for Active; 'I' for Inactive)
REMARK    1  A    between atoms: C_1  and  C_2
REMARK    2  A    between atoms: C_2  and  C_3
REMARK    3  A    between atoms: C_3  and  C_4
REMARK    4  A    between atoms: C_4  and  N_5
REMARK    5  A    between atoms: N_5  and  C_6
REMARK    6  A    between atoms: C_6  and  C_7
REMARK    7  A    between atoms: N_9  and  C_10
REMARK    8  A    between atoms: C_10  and  C_11
REMARK    9  A    between atoms: C_10  and  C_12
REMARK   10  A    between atoms: C_13  and  C_15
REMARK   11  A    between atoms: C_15  and  N_16
REMARK   12  A    between atoms: C_20  and  C_21
REMARK   13  A    between atoms: N_22  and  O_23
REMARK                            x       y       z     vdW  Elec       q    Type
REMARK                         _______ _______ _______ _____ _____    ______ ____
ROOT
ATOM      1  N   UNL     1       3.337   4.966  18.518  0.00  0.00    +0.000 N 
ATOM      2  C   UNL     1       4.540   4.451  19.007  0.00  0.00    +0.000 C 
ATOM      3  O   UNL     1       4.559   3.355  19.575  0.00  0.00    +0.000 OA
ENDROOT
BRANCH   1   4
ATOM      4  C   UNL     1       2.137   4.118  18.627  0.00  0.00    +0.000 C 
BRANCH   4   5
ATOM      5  C   UNL     1       1.211   4.377  19.825  0.00  0.00    +0.000 C 
BRANCH   5   7
ATOM      6  C   UNL     1       1.716   2.741  21.738  0.00  0.00    +0.000 C 
ATOM      7  C   UNL     1       1.802   4.170  21.224  0.00  0.00    +0.000 C 
ENDBRANCH   5   7
ENDBRANCH   4   5
ENDBRANCH   1   4
BRANCH   1   8
ATOM      8  C   UNL     1       3.214   6.293  17.898  0.00  0.00    +0.000 C 
BRANCH   8   9
ATOM      9  C   UNL     1       2.415   7.401  18.619  0.00  0.00    +0.000 C 
ATOM     10  O   UNL     1       2.419   7.454  19.849  0.00  0.00    +0.000 OA
ATOM     11  N   UNL     1       1.856   8.393  17.847  0.00  0.00    +0.000 N 
ATOM     12  H   UNL     1       1.723   8.228  16.856  0.00  0.00    +0.000 HD
BRANCH  11  13
ATOM     13  C   UNL     1       1.198   9.550  18.468  0.00  0.00    +0.000 C 
ATOM     14  C   UNL     1       2.018  10.825  18.290  0.00  0.00    +0.000 C 
ATOM     15  C   UNL     1      -0.219   9.747  17.938  0.00  0.00    +0.000 C 
ENDBRANCH  11  13
ENDBRANCH   8   9
ENDBRANCH   1   8
BRANCH   2  16
ATOM     16  C   UNL     1       5.829   5.263  18.906  0.00  0.00    +0.000 C 
BRANCH  16  17
ATOM     17  N   UNL     1       6.420   5.291  17.577  0.00  0.00    +0.000 N 
ATOM     18  C   UNL     1       6.387   4.240  16.692  0.00  0.00    +0.000 A 
ATOM     19  C   UNL     1       7.059   4.678  15.578  0.00  0.00    +0.000 A 
ATOM     20  N   UNL     1       7.493   5.962  15.756  0.00  0.00    +0.000 NA
ATOM     21  C   UNL     1       7.035   6.347  16.937  0.00  0.00    +0.000 A 
BRANCH  21  22
ATOM     22  C   UNL     1       7.195   7.707  17.380  0.00  0.00    +0.000 C 
ATOM     23  N   UNL     1       8.278   8.110  17.966  0.00  0.00    +0.000 NA
BRANCH  23  24
ATOM     24  O   UNL     1       8.159   9.473  18.266  0.00  0.00    +0.000 OA
ATOM     25  H   UNL     1       7.589   9.794  17.540  0.00  0.00    +0.000 HD
ENDBRANCH  23  24
ENDBRANCH  21  22
ENDBRANCH  16  17
ENDBRANCH   2  16
TORSDOF 10
ENDMDL
MODEL 8
REMARK VINA RESULT:      -6.6      1.604      2.704
REMARK  Name = 
REMARK  13 active torsions:
REMARK  status: ('A' for Active; 'I' for Inactive)
REMARK    1  A    between atoms: C_1  and  C_2
REMARK    2  A    between atoms: C_2  and  C_3
REMARK    3  A    between atoms: C_3  and  C_4
REMARK    4  A    between atoms: C_4  and  N_5
REMARK    5  A    between atoms: N_5  and  C_6
REMARK    6  A    between atoms: C_6  and  C_7
REMARK    7  A    between atoms: N_9  and  C_10
REMARK    8  A    between atoms: C_10  and  C_11
REMARK    9  A    between atoms: C_10  and  C_12
REMARK   10  A    between atoms: C_13  and  C_15
REMARK   11  A    between atoms: C_15  and  N_16
REMARK   12  A    between atoms: C_20  and  C_21
REMARK   13  A    between atoms: N_22  and  O_23
REMARK                            x       y       z     vdW  Elec       q    Type
REMARK                         _______ _______ _______ _____ _____    ______ ____
ROOT
ATOM      1  N   UNL     1       5.781   4.992  17.255  0.00  0.00    +0.000 N 
ATOM      2  C   UNL     1       4.672   4.666  18.041  0.00  0.00    +0.000 C 
ATOM      3  O   UNL     1       4.298   5.433  18.933  0.00  0.00    +0.000 OA
ENDROOT
BRANCH   1   4
ATOM      4  C   UNL     1       6.411   6.306  17.476  0.00  0.00    +0.000 C 
BRANCH   4   5
ATOM      5  C   UNL     1       7.479   6.387  18.577  0.00  0.00    +0.000 C 
BRANCH   5   7
ATOM      6  C   UNL     1       7.882   8.801  17.803  0.00  0.00    +0.000 C 
ATOM      7  C   UNL     1       8.426   7.591  18.545  0.00  0.00    +0.000 C 
ENDBRANCH   5   7
ENDBRANCH   4   5
ENDBRANCH   1   4
BRANCH   1   8
ATOM      8  C   UNL     1       6.336   4.102  16.226  0.00  0.00    +0.000 C 
BRANCH   8   9
ATOM      9  C   UNL     1       5.865   4.240  14.762  0.00  0.00    +0.000 C 
ATOM     10  O   UNL     1       5.123   5.170  14.446  0.00  0.00    +0.000 OA
ATOM     11  N   UNL     1       6.430   3.405  13.826  0.00  0.00    +0.000 N 
ATOM     12  H   UNL     1       6.890   2.557  14.138  0.00  0.00    +0.000 HD
BRANCH  11  13
ATOM     13  C   UNL     1       6.133   3.566  12.397  0.00  0.00    +0.000 C 
ATOM     14  C   UNL     1       7.273   4.267  11.662  0.00  0.00    +0.000 C 
ATOM     15  C   UNL     1       5.809   2.231  11.731  0.00  0.00    +0.000 C 
ENDBRANCH  11  13
ENDBRANCH   8   9
ENDBRANCH   1   8
BRANCH   2  16
ATOM     16  C   UNL     1       3.954   3.333  17.851  0.00  0.00    +0.000 C 
BRANCH  16  17
ATOM     17  N   UNL     1       2.804   3.138  18.723  0.00  0.00    +0.000 N 
ATOM     18  C   UNL     1       1.496   3.253  18.316  0.00  0.00    +0.000 A 
ATOM     19  C   UNL     1       0.743   3.003  19.437  0.00  0.00    +0.000 A 
ATOM     20  N   UNL     1       1.550   2.735  20.506  0.00  0.00    +0.000 NA
ATOM     21  C   UNL     1       2.791   2.745  20.045  0.00  0.00    +0.000 A 
BRANCH  21  22
ATOM     22  C   UNL     1       3.893   2.360  20.888  0.00  0.00    +0.000 C 
ATOM     23  N   UNL     1       4.756   1.469  20.516  0.00  0.00    +0.000 NA
BRANCH  23  24
ATOM     24  O   UNL     1       5.719   1.314  21.521  0.00  0.00    +0.000 OA
ATOM     25  H   UNL     1       6.323   0.655  21.127  0.00  0.00    +0.000 HD
ENDBRANCH  23  24
ENDBRANCH  21  22
ENDBRANCH  16  17
ENDBRANCH   2  16
TORSDOF 10
ENDMDL
MODEL 9
REMARK VINA RESULT:      -6.5      2.104      7.126
REMARK  Name = 
REMARK  13 active torsions:
REMARK  status: ('A' for Active; 'I' for Inactive)
REMARK    1  A    between atoms: C_1  and  C_2
REMARK    2  A    between atoms: C_2  and  C_3
REMARK    3  A    between atoms: C_3  and  C_4
REMARK    4  A    between atoms: C_4  and  N_5
REMARK    5  A    between atoms: N_5  and  C_6
REMARK    6  A    between atoms: C_6  and  C_7
REMARK    7  A    between atoms: N_9  and  C_10
REMARK    8  A    between atoms: C_10  and  C_11
REMARK    9  A    between atoms: C_10  and  C_12
REMARK   10  A    between atoms: C_13  and  C_15
REMARK   11  A    between atoms: C_15  and  N_16
REMARK   12  A    between atoms: C_20  and  C_21
REMARK   13  A    between atoms: N_22  and  O_23
REMARK                            x       y       z     vdW  Elec       q    Type
REMARK                         _______ _______ _______ _____ _____    ______ ____
ROOT
ATOM      1  N   UNL     1       3.285   4.628  18.575  0.00  0.00    +0.000 N 
ATOM      2  C   UNL     1       4.366   3.905  18.061  0.00  0.00    +0.000 C 
ATOM      3  O   UNL     1       4.175   3.006  17.238  0.00  0.00    +0.000 OA
ENDROOT
BRANCH   1   4
ATOM      4  C   UNL     1       1.947   4.333  18.030  0.00  0.00    +0.000 C 
BRANCH   4   5
ATOM      5  C   UNL     1       1.231   3.092  18.584  0.00  0.00    +0.000 C 
BRANCH   5   7
ATOM      6  C   UNL     1       1.626   2.651  21.082  0.00  0.00    +0.000 C 
ATOM      7  C   UNL     1       0.683   3.180  20.012  0.00  0.00    +0.000 C 
ENDBRANCH   5   7
ENDBRANCH   4   5
ENDBRANCH   1   4
BRANCH   1   8
ATOM      8  C   UNL     1       3.418   5.660  19.612  0.00  0.00    +0.000 C 
BRANCH   8   9
ATOM      9  C   UNL     1       2.237   6.614  19.896  0.00  0.00    +0.000 C 
ATOM     10  O   UNL     1       1.447   6.353  20.803  0.00  0.00    +0.000 OA
ATOM     11  N   UNL     1       2.206   7.813  19.222  0.00  0.00    +0.000 N 
ATOM     12  H   UNL     1       2.756   7.915  18.376  0.00  0.00    +0.000 HD
BRANCH  11  13
ATOM     13  C   UNL     1       1.192   8.827  19.536  0.00  0.00    +0.000 C 
ATOM     14  C   UNL     1       1.367   9.379  20.948  0.00  0.00    +0.000 C 
ATOM     15  C   UNL     1       1.190   9.962  18.515  0.00  0.00    +0.000 C 
ENDBRANCH  11  13
ENDBRANCH   8   9
ENDBRANCH   1   8
BRANCH   2  16
ATOM     16  C   UNL     1       5.783   4.173  18.560  0.00  0.00    +0.000 C 
BRANCH  16  17
ATOM     17  N   UNL     1       6.486   5.225  17.841  0.00  0.00    +0.000 N 
ATOM     18  C   UNL     1       6.962   6.376  18.422  0.00  0.00    +0.000 A 
ATOM     19  C   UNL     1       7.541   7.088  17.401  0.00  0.00    +0.000 A 
ATOM     20  N   UNL     1       7.439   6.404  16.222  0.00  0.00    +0.000 NA
ATOM     21  C   UNL     1       6.867   5.247  16.515  0.00  0.00    +0.000 A 
BRANCH  21  22
ATOM     22  C   UNL     1       6.733   4.219  15.516  0.00  0.00    +0.000 C 
ATOM     23  N   UNL     1       6.391   4.494  14.297  0.00  0.00    +0.000 NA
BRANCH  23  24
ATOM     24  O   UNL     1       6.360   3.310  13.550  0.00  0.00    +0.000 OA
ATOM     25  H   UNL     1       5.702   2.777  14.037  0.00  0.00    +0.000 HD
ENDBRANCH  23  24
ENDBRANCH  21  22
ENDBRANCH  16  17
ENDBRANCH   2  16
TORSDOF 10
ENDMDL
