MODEL 1
REMARK VINA RESULT:      -7.3      0.000      0.000
REMARK  Name = 
REMARK  10 active torsions:
REMARK  status: ('A' for Active; 'I' for Inactive)
REMARK    1  A    between atoms: C_1  and  O_2
REMARK    2  A    between atoms: O_2  and  C_3
REMARK    3  A    between atoms: C_3  and  C_5
REMARK    4  A    between atoms: C_9  and  N_10
REMARK    5  A    between atoms: C_11  and  C_13
REMARK    6  A    between atoms: C_13  and  C_14
REMARK    7  A    between atoms: C_14  and  N_15
REMARK    8  A    between atoms: N_15  and  C_16
REMARK    9  A    between atoms: N_15  and  C_17
REMARK   10  A    between atoms: N_20  and  C_21
REMARK                            x       y       z     vdW  Elec       q    Type
REMARK                         _______ _______ _______ _____ _____    ______ ____
ROOT
ATOM      1  C   UNL     1       0.231  10.064  19.019  0.00  0.00    +0.000 C 
ATOM      2  C   UNL     1       0.391   9.023  20.189  0.00  0.00    +0.000 C 
ATOM      3  C   UNL     1       1.794   8.449  20.368  0.00  0.00    +0.000 C 
ATOM      4  N   UNL     1       2.315   7.993  19.081  0.00  0.00    +0.000 N 
ATOM      5  C   UNL     1       2.307   8.984  18.009  0.00  0.00    +0.000 C 
ATOM      6  C   UNL     1       0.864   9.440  17.758  0.00  0.00    +0.000 C 
ENDROOT
BRANCH   4   7
ATOM      7  C   UNL     1       2.647   6.672  18.814  0.00  0.00    +0.000 A 
ATOM      8  C   UNL     1       3.488   6.363  17.724  0.00  0.00    +0.000 A 
ATOM      9  C   UNL     1       3.806   5.049  17.397  0.00  0.00    +0.000 A 
ATOM     10  N   UNL     1       3.373   3.956  18.054  0.00  0.00    +0.000 NA
ATOM     11  C   UNL     1       2.596   4.272  19.104  0.00  0.00    +0.000 A 
ATOM     12  N   UNL     1       2.019   3.376  19.952  0.00  0.00    +0.000 N 
ATOM     13  N   UNL     1       1.265   3.940  20.914  0.00  0.00    +0.000 NA
ATOM     14  C   UNL     1       1.386   5.249  20.659  0.00  0.00    +0.000 A 
ATOM     15  C   UNL     1       2.209   5.537  19.540  0.00  0.00    +0.000 A 
ATOM     16  H   UNL     1       2.097   2.367  19.910  0.00  0.00    +0.000 HD
ENDBRANCH   4   7
BRANCH   1  18
ATOM     17  N   UNL     1       1.237  12.231  18.325  0.00  0.00    +0.000 N 
ATOM     18  C   UNL     1       0.950  11.386  19.389  0.00  0.00    +0.000 C 
ATOM     19  O   UNL     1       1.298  11.594  20.551  0.00  0.00    +0.000 OA
ATOM     20  H   UNL     1       0.879  11.961  17.416  0.00  0.00    +0.000 HD
BRANCH  17  25
ATOM     21  C   UNL     1       1.825  15.906  18.637  0.00  0.00    +0.000 A 
ATOM     22  C   UNL     1       3.215  15.972  18.489  0.00  0.00    +0.000 A 
ATOM     23  C   UNL     1       3.951  14.809  18.298  0.00  0.00    +0.000 A 
ATOM     24  C   UNL     1       3.304  13.574  18.238  0.00  0.00    +0.000 A 
ATOM     25  C   UNL     1       1.919  13.473  18.387  0.00  0.00    +0.000 A 
ATOM     26  C   UNL     1       1.183  14.650  18.610  0.00  0.00    +0.000 A 
BRANCH  21  27
ATOM     27  C   UNL     1       1.014  17.149  18.804  0.00  0.00    +0.000 C 
ATOM     28  O   UNL     1      -0.011  17.212  19.461  0.00  0.00    +0.000 OA
BRANCH  27  30
ATOM     29  C   UNL     1       1.023  18.414  16.809  0.00  0.00    +0.000 C 
ATOM     30  O   UNL     1       1.579  18.167  18.104  0.00  0.00    +0.000 OA
ENDBRANCH  27  30
ENDBRANCH  21  27
ENDBRANCH  17  25
ENDBRANCH   1  18
BRANCH   1  31
ATOM     31  C   UNL     1      -1.308  10.300  18.915  0.00  0.00    +0.000 C 
BRANCH  31  32
ATOM     32  N   UNL     1      -1.903  11.466  18.223  0.00  0.00    +0.000 NA
ATOM     33  C   UNL     1      -2.472  11.171  16.907  0.00  0.00    +0.000 C 
ATOM     34  C   UNL     1      -3.001  11.971  19.080  0.00  0.00    +0.000 C 
ENDBRANCH  31  32
ENDBRANCH   1  31
TORSDOF 7
ENDMDL
MODEL 2
REMARK VINA RESULT:      -7.3      0.841      1.798
REMARK  Name = 
REMARK  10 active torsions:
REMARK  status: ('A' for Active; 'I' for Inactive)
REMARK    1  A    between atoms: C_1  and  O_2
REMARK    2  A    between atoms: O_2  and  C_3
REMARK    3  A    between atoms: C_3  and  C_5
REMARK    4  A    between atoms: C_9  and  N_10
REMARK    5  A    between atoms: C_11  and  C_13
REMARK    6  A    between atoms: C_13  and  C_14
REMARK    7  A    between atoms: C_14  and  N_15
REMARK    8  A    between atoms: N_15  and  C_16
REMARK    9  A    between atoms: N_15  and  C_17
REMARK   10  A    between atoms: N_20  and  C_21
REMARK                            x       y       z     vdW  Elec       q    Type
REMARK                         _______ _______ _______ _____ _____    ______ ____
ROOT
ATOM      1  C   UNL     1       0.067  10.074  19.263  0.00  0.00    +0.000 C 
ATOM      2  C   UNL     1       0.109   9.158  20.542  0.00  0.00    +0.000 C 
ATOM      3  C   UNL     1       1.473   8.557  20.874  0.00  0.00    +0.000 C 
ATOM      4  N   UNL     1       2.055   7.951  19.679  0.00  0.00    +0.000 N 
ATOM      5  C   UNL     1       2.157   8.824  18.512  0.00  0.00    +0.000 C 
ATOM      6  C   UNL     1       0.753   9.300  18.119  0.00  0.00    +0.000 C 
ENDROOT
BRANCH   4   7
ATOM      7  C   UNL     1       2.349   6.599  19.572  0.00  0.00    +0.000 A 
ATOM      8  C   UNL     1       1.791   5.680  20.487  0.00  0.00    +0.000 A 
ATOM      9  C   UNL     1       2.099   4.326  20.440  0.00  0.00    +0.000 A 
ATOM     10  N   UNL     1       2.928   3.744  19.552  0.00  0.00    +0.000 NA
ATOM     11  C   UNL     1       3.427   4.630  18.673  0.00  0.00    +0.000 A 
ATOM     12  N   UNL     1       4.289   4.332  17.662  0.00  0.00    +0.000 N 
ATOM     13  N   UNL     1       4.665   5.397  16.931  0.00  0.00    +0.000 NA
ATOM     14  C   UNL     1       3.999   6.405  17.508  0.00  0.00    +0.000 A 
ATOM     15  C   UNL     1       3.197   6.002  18.607  0.00  0.00    +0.000 A 
ATOM     16  H   UNL     1       4.662   3.418  17.435  0.00  0.00    +0.000 HD
ENDBRANCH   4   7
BRANCH   1  18
ATOM     17  N   UNL     1       1.043  12.209  18.436  0.00  0.00    +0.000 N 
ATOM     18  C   UNL     1       0.815  11.403  19.544  0.00  0.00    +0.000 C 
ATOM     19  O   UNL     1       1.233  11.648  20.675  0.00  0.00    +0.000 OA
ATOM     20  H   UNL     1       0.630  11.911  17.559  0.00  0.00    +0.000 HD
BRANCH  17  25
ATOM     21  C   UNL     1       1.673  15.886  18.597  0.00  0.00    +0.000 A 
ATOM     22  C   UNL     1       3.051  15.936  18.352  0.00  0.00    +0.000 A 
ATOM     23  C   UNL     1       3.764  14.762  18.146  0.00  0.00    +0.000 A 
ATOM     24  C   UNL     1       3.108  13.531  18.168  0.00  0.00    +0.000 A 
ATOM     25  C   UNL     1       1.735  13.446  18.413  0.00  0.00    +0.000 A 
ATOM     26  C   UNL     1       1.024  14.635  18.651  0.00  0.00    +0.000 A 
BRANCH  21  27
ATOM     27  C   UNL     1       0.883  17.140  18.782  0.00  0.00    +0.000 C 
ATOM     28  O   UNL     1       1.296  18.126  19.369  0.00  0.00    +0.000 OA
BRANCH  27  30
ATOM     29  C   UNL     1      -0.908  18.182  17.647  0.00  0.00    +0.000 C 
ATOM     30  O   UNL     1      -0.346  16.999  18.224  0.00  0.00    +0.000 OA
ENDBRANCH  27  30
ENDBRANCH  21  27
ENDBRANCH  17  25
ENDBRANCH   1  18
BRANCH   1  31
ATOM     31  C   UNL     1      -1.451  10.352  19.031  0.00  0.00    +0.000 C 
BRANCH  31  32
ATOM     32  N   UNL     1      -1.963  11.607  18.436  0.00  0.00    +0.000 NA
ATOM     33  C   UNL     1      -2.746  11.430  17.212  0.00  0.00    +0.000 C 
ATOM     34  C   UNL     1      -2.848  12.240  19.442  0.00  0.00    +0.000 C 
ENDBRANCH  31  32
ENDBRANCH   1  31
TORSDOF 7
ENDMDL
MODEL 3
REMARK VINA RESULT:      -7.2      1.454      2.154
REMARK  Name = 
REMARK  10 active torsions:
REMARK  status: ('A' for Active; 'I' for Inactive)
REMARK    1  A    between atoms: C_1  and  O_2
REMARK    2  A    between atoms: O_2  and  C_3
REMARK    3  A    between atoms: C_3  and  C_5
REMARK    4  A    between atoms: C_9  and  N_10
REMARK    5  A    between atoms: C_11  and  C_13
REMARK    6  A    between atoms: C_13  and  C_14
REMARK    7  A    between atoms: C_14  and  N_15
REMARK    8  A    between atoms: N_15  and  C_16
REMARK    9  A    between atoms: N_15  and  C_17
REMARK   10  A    between atoms: N_20  and  C_21
REMARK                            x       y       z     vdW  Elec       q    Type
REMARK                         _______ _______ _______ _____ _____    ______ ____
ROOT
ATOM      1  C   UNL     1       0.114  10.030  18.989  0.00  0.00    +0.000 C 
ATOM      2  C   UNL     1       0.247   8.975  20.149  0.00  0.00    +0.000 C 
ATOM      3  C   UNL     1       1.658   8.449  20.398  0.00  0.00    +0.000 C 
ATOM      4  N   UNL     1       2.267   8.036  19.136  0.00  0.00    +0.000 N 
ATOM      5  C   UNL     1       2.283   9.047  18.082  0.00  0.00    +0.000 C 
ATOM      6  C   UNL     1       0.840   9.454  17.756  0.00  0.00    +0.000 C 
ENDROOT
BRANCH   4   7
ATOM      7  C   UNL     1       2.664   6.734  18.867  0.00  0.00    +0.000 A 
ATOM      8  C   UNL     1       3.529   6.469  17.783  0.00  0.00    +0.000 A 
ATOM      9  C   UNL     1       3.911   5.174  17.454  0.00  0.00    +0.000 A 
ATOM     10  N   UNL     1       3.524   4.058  18.102  0.00  0.00    +0.000 NA
ATOM     11  C   UNL     1       2.722   4.333  19.145  0.00  0.00    +0.000 A 
ATOM     12  N   UNL     1       2.180   3.407  19.984  0.00  0.00    +0.000 N 
ATOM     13  N   UNL     1       1.391   3.930  20.940  0.00  0.00    +0.000 NA
ATOM     14  C   UNL     1       1.452   5.244  20.692  0.00  0.00    +0.000 A 
ATOM     15  C   UNL     1       2.273   5.576  19.583  0.00  0.00    +0.000 A 
ATOM     16  H   UNL     1       2.306   2.403  19.938  0.00  0.00    +0.000 HD
ENDBRANCH   4   7
BRANCH   1  18
ATOM     17  N   UNL     1       0.926  12.311  18.412  0.00  0.00    +0.000 N 
ATOM     18  C   UNL     1       0.761  11.371  19.422  0.00  0.00    +0.000 C 
ATOM     19  O   UNL     1       1.161  11.518  20.576  0.00  0.00    +0.000 OA
ATOM     20  H   UNL     1       0.535  12.083  17.505  0.00  0.00    +0.000 HD
BRANCH  17  25
ATOM     21  C   UNL     1       3.547  14.969  18.528  0.00  0.00    +0.000 A 
ATOM     22  C   UNL     1       2.771  16.103  18.792  0.00  0.00    +0.000 A 
ATOM     23  C   UNL     1       1.393  15.990  18.921  0.00  0.00    +0.000 A 
ATOM     24  C   UNL     1       0.779  14.742  18.801  0.00  0.00    +0.000 A 
ATOM     25  C   UNL     1       1.524  13.591  18.533  0.00  0.00    +0.000 A 
ATOM     26  C   UNL     1       2.915  13.717  18.374  0.00  0.00    +0.000 A 
BRANCH  21  27
ATOM     27  C   UNL     1       5.034  15.066  18.425  0.00  0.00    +0.000 C 
ATOM     28  O   UNL     1       5.713  14.379  17.680  0.00  0.00    +0.000 OA
BRANCH  27  30
ATOM     29  C   UNL     1       6.544  16.844  18.797  0.00  0.00    +0.000 C 
ATOM     30  O   UNL     1       5.497  16.003  19.292  0.00  0.00    +0.000 OA
ENDBRANCH  27  30
ENDBRANCH  21  27
ENDBRANCH  17  25
ENDBRANCH   1  18
BRANCH   1  31
ATOM     31  C   UNL     1      -1.425  10.213  18.800  0.00  0.00    +0.000 C 
BRANCH  31  32
ATOM     32  N   UNL     1      -2.018  11.321  18.018  0.00  0.00    +0.000 NA
ATOM     33  C   UNL     1      -2.442  10.955  16.665  0.00  0.00    +0.000 C 
ATOM     34  C   UNL     1      -3.221  11.780  18.752  0.00  0.00    +0.000 C 
ENDBRANCH  31  32
ENDBRANCH   1  31
TORSDOF 7
ENDMDL
MODEL 4
REMARK VINA RESULT:      -7.2      1.499      2.646
REMARK  Name = 
REMARK  10 active torsions:
REMARK  status: ('A' for Active; 'I' for Inactive)
REMARK    1  A    between atoms: C_1  and  O_2
REMARK    2  A    between atoms: O_2  and  C_3
REMARK    3  A    between atoms: C_3  and  C_5
REMARK    4  A    between atoms: C_9  and  N_10
REMARK    5  A    between atoms: C_11  and  C_13
REMARK    6  A    between atoms: C_13  and  C_14
REMARK    7  A    between atoms: C_14  and  N_15
REMARK    8  A    between atoms: N_15  and  C_16
REMARK    9  A    between atoms: N_15  and  C_17
REMARK   10  A    between atoms: N_20  and  C_21
REMARK                            x       y       z     vdW  Elec       q    Type
REMARK                         _______ _______ _______ _____ _____    ______ ____
ROOT
ATOM      1  C   UNL     1      -0.272  10.225  19.095  0.00  0.00    +0.000 C 
ATOM      2  C   UNL     1      -0.209   9.273  20.346  0.00  0.00    +0.000 C 
ATOM      3  C   UNL     1       1.190   8.815  20.752  0.00  0.00    +0.000 C 
ATOM      4  N   UNL     1       1.911   8.320  19.582  0.00  0.00    +0.000 N 
ATOM      5  C   UNL     1       1.989   9.241  18.451  0.00  0.00    +0.000 C 
ATOM      6  C   UNL     1       0.568   9.574  17.977  0.00  0.00    +0.000 C 
ENDROOT
BRANCH   4   7
ATOM      7  C   UNL     1       2.362   7.014  19.455  0.00  0.00    +0.000 A 
ATOM      8  C   UNL     1       1.920   6.024  20.360  0.00  0.00    +0.000 A 
ATOM      9  C   UNL     1       2.385   4.716  20.294  0.00  0.00    +0.000 A 
ATOM     10  N   UNL     1       3.272   4.248  19.395  0.00  0.00    +0.000 NA
ATOM     11  C   UNL     1       3.660   5.198  18.527  0.00  0.00    +0.000 A 
ATOM     12  N   UNL     1       4.546   5.016  17.509  0.00  0.00    +0.000 N 
ATOM     13  N   UNL     1       4.791   6.128  16.791  0.00  0.00    +0.000 NA
ATOM     14  C   UNL     1       4.014   7.043  17.384  0.00  0.00    +0.000 A 
ATOM     15  C   UNL     1       3.270   6.534  18.480  0.00  0.00    +0.000 A 
ATOM     16  H   UNL     1       5.024   4.156  17.269  0.00  0.00    +0.000 HD
ENDBRANCH   4   7
BRANCH   1  18
ATOM     17  N   UNL     1       0.331  12.547  18.432  0.00  0.00    +0.000 N 
ATOM     18  C   UNL     1       0.302  11.617  19.464  0.00  0.00    +0.000 C 
ATOM     19  O   UNL     1       0.766  11.815  20.586  0.00  0.00    +0.000 OA
ATOM     20  H   UNL     1      -0.101  12.274  17.556  0.00  0.00    +0.000 HD
BRANCH  17  25
ATOM     21  C   UNL     1       2.749  15.390  18.312  0.00  0.00    +0.000 A 
ATOM     22  C   UNL     1       1.916  16.468  18.631  0.00  0.00    +0.000 A 
ATOM     23  C   UNL     1       0.565  16.256  18.873  0.00  0.00    +0.000 A 
ATOM     24  C   UNL     1       0.037  14.966  18.814  0.00  0.00    +0.000 A 
ATOM     25  C   UNL     1       0.840  13.869  18.494  0.00  0.00    +0.000 A 
ATOM     26  C   UNL     1       2.201  14.093  18.221  0.00  0.00    +0.000 A 
BRANCH  21  27
ATOM     27  C   UNL     1       4.212  15.594  18.087  0.00  0.00    +0.000 C 
ATOM     28  O   UNL     1       4.979  14.711  17.744  0.00  0.00    +0.000 OA
BRANCH  27  30
ATOM     29  C   UNL     1       5.581  17.081  19.309  0.00  0.00    +0.000 C 
ATOM     30  O   UNL     1       4.543  16.885  18.344  0.00  0.00    +0.000 OA
ENDBRANCH  27  30
ENDBRANCH  21  27
ENDBRANCH  17  25
ENDBRANCH   1  18
BRANCH   1  31
ATOM     31  C   UNL     1      -1.794  10.342  18.769  0.00  0.00    +0.000 C 
BRANCH  31  32
ATOM     32  N   UNL     1      -2.342  11.319  17.801  0.00  0.00    +0.000 NA
ATOM     33  C   UNL     1      -2.462  10.822  16.430  0.00  0.00    +0.000 C 
ATOM     34  C   UNL     1      -3.703  11.678  18.265  0.00  0.00    +0.000 C 
ENDBRANCH  31  32
ENDBRANCH   1  31
TORSDOF 7
ENDMDL
MODEL 5
REMARK VINA RESULT:      -7.2      5.556      7.213
REMARK  Name = 
REMARK  10 active torsions:
REMARK  status: ('A' for Active; 'I' for Inactive)
REMARK    1  A    between atoms: C_1  and  O_2
REMARK    2  A    between atoms: O_2  and  C_3
REMARK    3  A    between atoms: C_3  and  C_5
REMARK    4  A    between atoms: C_9  and  N_10
REMARK    5  A    between atoms: C_11  and  C_13
REMARK    6  A    between atoms: C_13  and  C_14
REMARK    7  A    between atoms: C_14  and  N_15
REMARK    8  A    between atoms: N_15  and  C_16
REMARK    9  A    between atoms: N_15  and  C_17
REMARK   10  A    between atoms: N_20  and  C_21
REMARK                            x       y       z     vdW  Elec       q    Type
REMARK                         _______ _______ _______ _____ _____    ______ ____
ROOT
ATOM      1  C   UNL     1       6.730   6.102  17.301  0.00  0.00    +0.000 C 
ATOM      2  C   UNL     1       5.311   6.720  17.019  0.00  0.00    +0.000 C 
ATOM      3  C   UNL     1       4.418   6.898  18.244  0.00  0.00    +0.000 C 
ATOM      4  N   UNL     1       4.393   5.664  19.027  0.00  0.00    +0.000 N 
ATOM      5  C   UNL     1       5.697   5.141  19.423  0.00  0.00    +0.000 C 
ATOM      6  C   UNL     1       6.521   4.841  18.164  0.00  0.00    +0.000 C 
ENDROOT
BRANCH   4   7
ATOM      7  C   UNL     1       3.241   4.925  19.256  0.00  0.00    +0.000 A 
ATOM      8  C   UNL     1       2.265   5.400  20.159  0.00  0.00    +0.000 A 
ATOM      9  C   UNL     1       1.121   4.666  20.449  0.00  0.00    +0.000 A 
ATOM     10  N   UNL     1       0.811   3.465  19.924  0.00  0.00    +0.000 NA
ATOM     11  C   UNL     1       1.738   3.043  19.046  0.00  0.00    +0.000 A 
ATOM     12  N   UNL     1       1.690   1.869  18.358  0.00  0.00    +0.000 N 
ATOM     13  N   UNL     1       2.750   1.661  17.556  0.00  0.00    +0.000 NA
ATOM     14  C   UNL     1       3.489   2.762  17.746  0.00  0.00    +0.000 A 
ATOM     15  C   UNL     1       2.916   3.679  18.665  0.00  0.00    +0.000 A 
ATOM     16  H   UNL     1       0.962   1.167  18.410  0.00  0.00    +0.000 HD
ENDBRANCH   4   7
BRANCH   1  18
ATOM     17  N   UNL     1       7.519   8.443  17.601  0.00  0.00    +0.000 N 
ATOM     18  C   UNL     1       7.612   7.132  18.051  0.00  0.00    +0.000 C 
ATOM     19  O   UNL     1       8.390   6.755  18.927  0.00  0.00    +0.000 OA
ATOM     20  H   UNL     1       6.825   8.634  16.887  0.00  0.00    +0.000 HD
BRANCH  17  25
ATOM     21  C   UNL     1       8.616  11.980  18.080  0.00  0.00    +0.000 A 
ATOM     22  C   UNL     1       9.669  11.817  18.989  0.00  0.00    +0.000 A 
ATOM     23  C   UNL     1      10.004  10.549  19.445  0.00  0.00    +0.000 A 
ATOM     24  C   UNL     1       9.303   9.432  18.988  0.00  0.00    +0.000 A 
ATOM     25  C   UNL     1       8.245   9.561  18.085  0.00  0.00    +0.000 A 
ATOM     26  C   UNL     1       7.890  10.849  17.650  0.00  0.00    +0.000 A 
BRANCH  21  27
ATOM     27  C   UNL     1       8.267  13.332  17.549  0.00  0.00    +0.000 C 
ATOM     28  O   UNL     1       7.138  13.672  17.238  0.00  0.00    +0.000 OA
BRANCH  27  30
ATOM     29  C   UNL     1       9.292  15.413  17.995  0.00  0.00    +0.000 C 
ATOM     30  O   UNL     1       9.387  14.093  17.450  0.00  0.00    +0.000 OA
ENDBRANCH  27  30
ENDBRANCH  21  27
ENDBRANCH  17  25
ENDBRANCH   1  18
BRANCH   1  31
ATOM     31  C   UNL     1       7.322   5.819  15.885  0.00  0.00    +0.000 C 
BRANCH  31  32
ATOM     32  N   UNL     1       6.542   5.194  14.792  0.00  0.00    +0.000 NA
ATOM     33  C   UNL     1       7.263   5.062  13.525  0.00  0.00    +0.000 C 
ATOM     34  C   UNL     1       6.176   3.830  15.240  0.00  0.00    +0.000 C 
ENDBRANCH  31  32
ENDBRANCH   1  31
TORSDOF 7
ENDMDL
MODEL 6
REMARK VINA RESULT:      -7.1      5.777      7.435
REMARK  Name = 
REMARK  10 active torsions:
REMARK  status: ('A' for Active; 'I' for Inactive)
REMARK    1  A    between atoms: C_1  and  O_2
REMARK    2  A    between atoms: O_2  and  C_3
REMARK    3  A    between atoms: C_3  and  C_5
REMARK    4  A    between atoms: C_9  and  N_10
REMARK    5  A    between atoms: C_11  and  C_13
REMARK    6  A    between atoms: C_13  and  C_14
REMARK    7  A    between atoms: C_14  and  N_15
REMARK    8  A    between atoms: N_15  and  C_16
REMARK    9  A    between atoms: N_15  and  C_17
REMARK   10  A    between atoms: N_20  and  C_21
REMARK                            x       y       z     vdW  Elec       q    Type
REMARK                         _______ _______ _______ _____ _____    ______ ____
ROOT
ATOM      1  C   UNL     1       6.820   6.091  16.841  0.00  0.00    +0.000 C 
ATOM      2  C   UNL     1       5.322   6.553  16.709  0.00  0.00    +0.000 C 
ATOM      3  C   UNL     1       4.458   6.340  17.949  0.00  0.00    +0.000 C 
ATOM      4  N   UNL     1       4.625   4.976  18.445  0.00  0.00    +0.000 N 
ATOM      5  C   UNL     1       6.001   4.564  18.710  0.00  0.00    +0.000 C 
ATOM      6  C   UNL     1       6.811   4.657  17.410  0.00  0.00    +0.000 C 
ENDROOT
BRANCH   4   7
ATOM      7  C   UNL     1       3.590   4.053  18.515  0.00  0.00    +0.000 A 
ATOM      8  C   UNL     1       3.604   2.913  17.683  0.00  0.00    +0.000 A 
ATOM      9  C   UNL     1       2.563   1.992  17.691  0.00  0.00    +0.000 A 
ATOM     10  N   UNL     1       1.462   2.067  18.463  0.00  0.00    +0.000 NA
ATOM     11  C   UNL     1       1.480   3.144  19.267  0.00  0.00    +0.000 A 
ATOM     12  N   UNL     1       0.505   3.476  20.157  0.00  0.00    +0.000 N 
ATOM     13  N   UNL     1       0.743   4.617  20.830  0.00  0.00    +0.000 NA
ATOM     14  C   UNL     1       1.928   5.008  20.344  0.00  0.00    +0.000 A 
ATOM     15  C   UNL     1       2.457   4.132  19.360  0.00  0.00    +0.000 A 
ATOM     16  H   UNL     1      -0.352   2.966  20.333  0.00  0.00    +0.000 HD
ENDBRANCH   4   7
BRANCH   1  18
ATOM     17  N   UNL     1       7.607   8.382  17.409  0.00  0.00    +0.000 N 
ATOM     18  C   UNL     1       7.584   7.047  17.792  0.00  0.00    +0.000 C 
ATOM     19  O   UNL     1       8.185   6.597  18.766  0.00  0.00    +0.000 OA
ATOM     20  H   UNL     1       7.055   8.636  16.597  0.00  0.00    +0.000 HD
BRANCH  17  25
ATOM     21  C   UNL     1       8.779  11.835  18.213  0.00  0.00    +0.000 A 
ATOM     22  C   UNL     1       9.574  11.596  19.341  0.00  0.00    +0.000 A 
ATOM     23  C   UNL     1       9.711  10.305  19.834  0.00  0.00    +0.000 A 
ATOM     24  C   UNL     1       9.069   9.241  19.200  0.00  0.00    +0.000 A 
ATOM     25  C   UNL     1       8.266   9.446  18.076  0.00  0.00    +0.000 A 
ATOM     26  C   UNL     1       8.106  10.758  17.598  0.00  0.00    +0.000 A 
BRANCH  21  27
ATOM     27  C   UNL     1       8.652  13.211  17.645  0.00  0.00    +0.000 C 
ATOM     28  O   UNL     1       7.627  13.654  17.155  0.00  0.00    +0.000 OA
BRANCH  27  30
ATOM     29  C   UNL     1      10.852  13.448  16.819  0.00  0.00    +0.000 C 
ATOM     30  O   UNL     1       9.839  13.862  17.741  0.00  0.00    +0.000 OA
ENDBRANCH  27  30
ENDBRANCH  21  27
ENDBRANCH  17  25
ENDBRANCH   1  18
BRANCH   1  31
ATOM     31  C   UNL     1       7.393   6.202  15.393  0.00  0.00    +0.000 C 
BRANCH  31  32
ATOM     32  N   UNL     1       7.548   5.038  14.492  0.00  0.00    +0.000 NA
ATOM     33  C   UNL     1       6.297   4.360  14.148  0.00  0.00    +0.000 C 
ATOM     34  C   UNL     1       8.145   5.536  13.231  0.00  0.00    +0.000 C 
ENDBRANCH  31  32
ENDBRANCH   1  31
TORSDOF 7
ENDMDL
MODEL 7
REMARK VINA RESULT:      -7.1      1.692      2.847
REMARK  Name = 
REMARK  10 active torsions:
REMARK  status: ('A' for Active; 'I' for Inactive)
REMARK    1  A    between atoms: C_1  and  O_2
REMARK    2  A    between atoms: O_2  and  C_3
REMARK    3  A    between atoms: C_3  and  C_5
REMARK    4  A    between atoms: C_9  and  N_10
REMARK    5  A    between atoms: C_11  and  C_13
REMARK    6  A    between atoms: C_13  and  C_14
REMARK    7  A    between atoms: C_14  and  N_15
REMARK    8  A    between atoms: N_15  and  C_16
REMARK    9  A    between atoms: N_15  and  C_17
REMARK   10  A    between atoms: N_20  and  C_21
REMARK                            x       y       z     vdW  Elec       q    Type
REMARK                         _______ _______ _______ _____ _____    ______ ____
ROOT
ATOM      1  C   UNL     1       0.013  10.097  19.221  0.00  0.00    +0.000 C 
ATOM      2  C   UNL     1       0.041   9.113  20.448  0.00  0.00    +0.000 C 
ATOM      3  C   UNL     1       1.415   8.550  20.807  0.00  0.00    +0.000 C 
ATOM      4  N   UNL     1       2.071   8.036  19.607  0.00  0.00    +0.000 N 
ATOM      5  C   UNL     1       2.184   8.976  18.495  0.00  0.00    +0.000 C 
ATOM      6  C   UNL     1       0.778   9.416  18.067  0.00  0.00    +0.000 C 
ENDROOT
BRANCH   4   7
ATOM      7  C   UNL     1       2.428   6.705  19.440  0.00  0.00    +0.000 A 
ATOM      8  C   UNL     1       1.893   5.718  20.296  0.00  0.00    +0.000 A 
ATOM      9  C   UNL     1       2.262   4.383  20.190  0.00  0.00    +0.000 A 
ATOM     10  N   UNL     1       3.133   3.883  19.292  0.00  0.00    +0.000 NA
ATOM     11  C   UNL     1       3.610   4.833  18.469  0.00  0.00    +0.000 A 
ATOM     12  N   UNL     1       4.504   4.624  17.463  0.00  0.00    +0.000 N 
ATOM     13  N   UNL     1       4.846   5.740  16.794  0.00  0.00    +0.000 NA
ATOM     14  C   UNL     1       4.125   6.688  17.405  0.00  0.00    +0.000 A 
ATOM     15  C   UNL     1       3.320   6.195  18.466  0.00  0.00    +0.000 A 
ATOM     16  H   UNL     1       4.922   3.740  17.200  0.00  0.00    +0.000 HD
ENDBRANCH   4   7
BRANCH   1  18
ATOM     17  N   UNL     1       0.875  12.337  18.563  0.00  0.00    +0.000 N 
ATOM     18  C   UNL     1       0.690  11.437  19.605  0.00  0.00    +0.000 C 
ATOM     19  O   UNL     1       1.096  11.615  20.752  0.00  0.00    +0.000 OA
ATOM     20  H   UNL     1       0.477  12.086  17.665  0.00  0.00    +0.000 HD
BRANCH  17  25
ATOM     21  C   UNL     1       3.561  14.923  18.770  0.00  0.00    +0.000 A 
ATOM     22  C   UNL     1       2.803  16.098  18.816  0.00  0.00    +0.000 A 
ATOM     23  C   UNL     1       1.416  16.034  18.770  0.00  0.00    +0.000 A 
ATOM     24  C   UNL     1       0.774  14.798  18.691  0.00  0.00    +0.000 A 
ATOM     25  C   UNL     1       1.501  13.607  18.638  0.00  0.00    +0.000 A 
ATOM     26  C   UNL     1       2.905  13.679  18.655  0.00  0.00    +0.000 A 
BRANCH  21  27
ATOM     27  C   UNL     1       5.051  14.970  18.858  0.00  0.00    +0.000 C 
ATOM     28  O   UNL     1       5.665  15.310  19.855  0.00  0.00    +0.000 OA
BRANCH  27  30
ATOM     29  C   UNL     1       7.017  14.431  17.664  0.00  0.00    +0.000 C 
ATOM     30  O   UNL     1       5.597  14.605  17.669  0.00  0.00    +0.000 OA
ENDBRANCH  27  30
ENDBRANCH  21  27
ENDBRANCH  17  25
ENDBRANCH   1  18
BRANCH   1  31
ATOM     31  C   UNL     1      -1.505  10.325  18.937  0.00  0.00    +0.000 C 
BRANCH  31  32
ATOM     32  N   UNL     1      -2.041  11.577  18.357  0.00  0.00    +0.000 NA
ATOM     33  C   UNL     1      -2.810  11.399  17.124  0.00  0.00    +0.000 C 
ATOM     34  C   UNL     1      -2.948  12.174  19.366  0.00  0.00    +0.000 C 
ENDBRANCH  31  32
ENDBRANCH   1  31
TORSDOF 7
ENDMDL
MODEL 8
REMARK VINA RESULT:      -7.1      5.898      7.352
REMARK  Name = 
REMARK  10 active torsions:
REMARK  status: ('A' for Active; 'I' for Inactive)
REMARK    1  A    between atoms: C_1  and  O_2
REMARK    2  A    between atoms: O_2  and  C_3
REMARK    3  A    between atoms: C_3  and  C_5
REMARK    4  A    between atoms: C_9  and  N_10
REMARK    5  A    between atoms: C_11  and  C_13
REMARK    6  A    between atoms: C_13  and  C_14
REMARK    7  A    between atoms: C_14  and  N_15
REMARK    8  A    between atoms: N_15  and  C_16
REMARK    9  A    between atoms: N_15  and  C_17
REMARK   10  A    between atoms: N_20  and  C_21
REMARK                            x       y       z     vdW  Elec       q    Type
REMARK                         _______ _______ _______ _____ _____    ______ ____
ROOT
ATOM      1  C   UNL     1       6.683   5.854  17.163  0.00  0.00    +0.000 C 
ATOM      2  C   UNL     1       5.280   6.466  16.799  0.00  0.00    +0.000 C 
ATOM      3  C   UNL     1       4.288   6.568  17.955  0.00  0.00    +0.000 C 
ATOM      4  N   UNL     1       4.223   5.295  18.669  0.00  0.00    +0.000 N 
ATOM      5  C   UNL     1       5.500   4.769  19.143  0.00  0.00    +0.000 C 
ATOM      6  C   UNL     1       6.427   4.547  17.941  0.00  0.00    +0.000 C 
ENDROOT
BRANCH   4   7
ATOM      7  C   UNL     1       3.069   4.529  18.766  0.00  0.00    +0.000 A 
ATOM      8  C   UNL     1       2.291   4.277  17.615  0.00  0.00    +0.000 A 
ATOM      9  C   UNL     1       1.106   3.554  17.681  0.00  0.00    +0.000 A 
ATOM     10  N   UNL     1       0.577   3.023  18.800  0.00  0.00    +0.000 NA
ATOM     11  C   UNL     1       1.345   3.251  19.879  0.00  0.00    +0.000 A 
ATOM     12  N   UNL     1       1.065   2.833  21.144  0.00  0.00    +0.000 N 
ATOM     13  N   UNL     1       1.979   3.207  22.059  0.00  0.00    +0.000 NA
ATOM     14  C   UNL     1       2.874   3.882  21.328  0.00  0.00    +0.000 A 
ATOM     15  C   UNL     1       2.548   3.950  19.948  0.00  0.00    +0.000 A 
ATOM     16  H   UNL     1       0.256   2.300  21.440  0.00  0.00    +0.000 HD
ENDBRANCH   4   7
BRANCH   1  18
ATOM     17  N   UNL     1       7.538   8.158  17.554  0.00  0.00    +0.000 N 
ATOM     18  C   UNL     1       7.483   6.856  18.034  0.00  0.00    +0.000 C 
ATOM     19  O   UNL     1       8.084   6.461  19.033  0.00  0.00    +0.000 OA
ATOM     20  H   UNL     1       6.983   8.367  16.732  0.00  0.00    +0.000 HD
BRANCH  17  25
ATOM     21  C   UNL     1       8.753  11.641  18.138  0.00  0.00    +0.000 A 
ATOM     22  C   UNL     1       9.610  11.450  19.228  0.00  0.00    +0.000 A 
ATOM     23  C   UNL     1       9.775  10.182  19.770  0.00  0.00    +0.000 A 
ATOM     24  C   UNL     1       9.099   9.092  19.220  0.00  0.00    +0.000 A 
ATOM     25  C   UNL     1       8.233   9.249  18.135  0.00  0.00    +0.000 A 
ATOM     26  C   UNL     1       8.047  10.539  17.610  0.00  0.00    +0.000 A 
BRANCH  21  27
ATOM     27  C   UNL     1       8.594  12.990  17.517  0.00  0.00    +0.000 C 
ATOM     28  O   UNL     1       7.612  13.338  16.883  0.00  0.00    +0.000 OA
BRANCH  27  30
ATOM     29  C   UNL     1      10.733  13.646  16.761  0.00  0.00    +0.000 C 
ATOM     30  O   UNL     1       9.702  13.740  17.749  0.00  0.00    +0.000 OA
ENDBRANCH  27  30
ENDBRANCH  21  27
ENDBRANCH  17  25
ENDBRANCH   1  18
BRANCH   1  31
ATOM     31  C   UNL     1       7.391   5.654  15.787  0.00  0.00    +0.000 C 
BRANCH  31  32
ATOM     32  N   UNL     1       6.680   5.208  14.568  0.00  0.00    +0.000 NA
ATOM     33  C   UNL     1       7.504   5.170  13.358  0.00  0.00    +0.000 C 
ATOM     34  C   UNL     1       6.198   3.829  14.821  0.00  0.00    +0.000 C 
ENDBRANCH  31  32
ENDBRANCH   1  31
TORSDOF 7
ENDMDL
MODEL 9
REMARK VINA RESULT:      -7.0      0.761      1.073
REMARK  Name = 
REMARK  10 active torsions:
REMARK  status: ('A' for Active; 'I' for Inactive)
REMARK    1  A    between atoms: C_1  and  O_2
REMARK    2  A    between atoms: O_2  and  C_3
REMARK    3  A    between atoms: C_3  and  C_5
REMARK    4  A    between atoms: C_9  and  N_10
REMARK    5  A    between atoms: C_11  and  C_13
REMARK    6  A    between atoms: C_13  and  C_14
REMARK    7  A    between atoms: C_14  and  N_15
REMARK    8  A    between atoms: N_15  and  C_16
REMARK    9  A    between atoms: N_15  and  C_17
REMARK   10  A    between atoms: N_20  and  C_21
REMARK                            x       y       z     vdW  Elec       q    Type
REMARK                         _______ _______ _______ _____ _____    ______ ____
ROOT
ATOM      1  C   UNL     1       0.189   9.979  19.048  0.00  0.00    +0.000 C 
ATOM      2  C   UNL     1       0.360   8.938  20.216  0.00  0.00    +0.000 C 
ATOM      3  C   UNL     1       1.774   8.393  20.407  0.00  0.00    +0.000 C 
ATOM      4  N   UNL     1       2.316   7.953  19.123  0.00  0.00    +0.000 N 
ATOM      5  C   UNL     1       2.297   8.948  18.054  0.00  0.00    +0.000 C 
ATOM      6  C   UNL     1       0.847   9.374  17.791  0.00  0.00    +0.000 C 
ENDROOT
BRANCH   4   7
ATOM      7  C   UNL     1       2.679   6.641  18.855  0.00  0.00    +0.000 A 
ATOM      8  C   UNL     1       3.555   6.356  17.785  0.00  0.00    +0.000 A 
ATOM      9  C   UNL     1       3.905   5.051  17.456  0.00  0.00    +0.000 A 
ATOM     10  N   UNL     1       3.474   3.945  18.093  0.00  0.00    +0.000 NA
ATOM     11  C   UNL     1       2.664   4.238  19.124  0.00  0.00    +0.000 A 
ATOM     12  N   UNL     1       2.080   3.325  19.949  0.00  0.00    +0.000 N 
ATOM     13  N   UNL     1       1.291   3.867  20.894  0.00  0.00    +0.000 NA
ATOM     14  C   UNL     1       1.394   5.180  20.653  0.00  0.00    +0.000 A 
ATOM     15  C   UNL     1       2.243   5.492  19.559  0.00  0.00    +0.000 A 
ATOM     16  H   UNL     1       2.178   2.318  19.901  0.00  0.00    +0.000 HD
ENDBRANCH   4   7
BRANCH   1  18
ATOM     17  N   UNL     1       1.129  12.183  18.375  0.00  0.00    +0.000 N 
ATOM     18  C   UNL     1       0.876  11.315  19.430  0.00  0.00    +0.000 C 
ATOM     19  O   UNL     1       1.229  11.517  20.591  0.00  0.00    +0.000 OA
ATOM     20  H   UNL     1       0.770  11.915  17.465  0.00  0.00    +0.000 HD
BRANCH  17  25
ATOM     21  C   UNL     1       1.625  15.863  18.766  0.00  0.00    +0.000 A 
ATOM     22  C   UNL     1       3.008  15.972  18.573  0.00  0.00    +0.000 A 
ATOM     23  C   UNL     1       3.768  14.836  18.326  0.00  0.00    +0.000 A 
ATOM     24  C   UNL     1       3.154  13.585  18.254  0.00  0.00    +0.000 A 
ATOM     25  C   UNL     1       1.778  13.441  18.447  0.00  0.00    +0.000 A 
ATOM     26  C   UNL     1       1.018  14.590  18.726  0.00  0.00    +0.000 A 
BRANCH  21  27
ATOM     27  C   UNL     1       0.787  17.078  18.994  0.00  0.00    +0.000 C 
ATOM     28  O   UNL     1      -0.212  17.348  18.348  0.00  0.00    +0.000 OA
BRANCH  27  30
ATOM     29  C   UNL     1       0.889  17.488  21.317  0.00  0.00    +0.000 C 
ATOM     30  O   UNL     1       1.318  17.825  19.995  0.00  0.00    +0.000 OA
ENDBRANCH  27  30
ENDBRANCH  21  27
ENDBRANCH  17  25
ENDBRANCH   1  18
BRANCH   1  31
ATOM     31  C   UNL     1      -1.354  10.183  18.930  0.00  0.00    +0.000 C 
BRANCH  31  32
ATOM     32  N   UNL     1      -2.074  10.183  17.636  0.00  0.00    +0.000 NA
ATOM     33  C   UNL     1      -3.388   9.540  17.667  0.00  0.00    +0.000 C 
ATOM     34  C   UNL     1      -2.280  11.599  17.250  0.00  0.00    +0.000 C 
ENDBRANCH  31  32
ENDBRANCH   1  31
TORSDOF 7
ENDMDL
