MODEL 1
REMARK VINA RESULT:      -7.5      0.000      0.000
REMARK  Name = 
REMARK  9 active torsions:
REMARK  status: ('A' for Active; 'I' for Inactive)
REMARK    1  A    between atoms: C_1  and  C_2
REMARK    2  A    between atoms: C_2  and  C_3
REMARK    3  A    between atoms: N_5  and  C_6
REMARK    4  A    between atoms: N_5  and  C_20
REMARK    5  A    between atoms: C_6  and  C_7
REMARK    6  A    between atoms: C_7  and  C_8
REMARK    7  A    between atoms: C_8  and  C_9
REMARK    8  A    between atoms: C_8  and  C_15
REMARK    9  A    between atoms: C_20  and  C_21
REMARK                            x       y       z     vdW  Elec       q    Type
REMARK                         _______ _______ _______ _____ _____    ______ ____
ROOT
ATOM      1  C   UNL     1       4.440   3.974  16.794  0.00  0.00    +0.000 C 
ENDROOT
BRANCH   1   2
ATOM      2  C   UNL     1       3.098   4.404  17.404  0.00  0.00    +0.000 C 
BRANCH   2   5
ATOM      3  C   UNL     1       2.660   3.449  19.723  0.00  0.00    +0.000 C 
ATOM      4  O   UNL     1       2.701   3.551  20.952  0.00  0.00    +0.000 OA
ATOM      5  N   UNL     1       3.130   4.455  18.882  0.00  0.00    +0.000 N 
BRANCH   3   7
ATOM      6  C   UNL     1       0.594   2.295  18.801  0.00  0.00    +0.000 C 
ATOM      7  C   UNL     1       2.090   2.201  19.060  0.00  0.00    +0.000 C 
ENDBRANCH   3   7
BRANCH   5   8
ATOM      8  C   UNL     1       3.677   5.663  19.505  0.00  0.00    +0.000 C 
BRANCH   8   9
ATOM      9  C   UNL     1       2.912   6.887  19.074  0.00  0.00    +0.000 A 
ATOM     10  C   UNL     1       3.020   7.607  17.898  0.00  0.00    +0.000 A 
ATOM     11  C   UNL     1       2.180   8.756  17.877  0.00  0.00    +0.000 A 
ATOM     12  C   UNL     1       1.459   8.888  19.043  0.00  0.00    +0.000 A 
ATOM     13  S   UNL     1       1.787   7.621  20.144  0.00  0.00    +0.000 S 
ENDBRANCH   8   9
ENDBRANCH   5   8
ENDBRANCH   2   5
ENDBRANCH   1   2
BRANCH   1  14
ATOM     14  C   UNL     1       5.230   5.129  16.118  0.00  0.00    +0.000 C 
BRANCH  14  15
ATOM     15  C   UNL     1       6.247   5.808  17.034  0.00  0.00    +0.000 A 
ATOM     16  C   UNL     1       6.581   7.166  16.902  0.00  0.00    +0.000 A 
ATOM     17  C   UNL     1       7.552   7.751  17.721  0.00  0.00    +0.000 A 
ATOM     18  C   UNL     1       8.207   6.989  18.688  0.00  0.00    +0.000 A 
ATOM     19  C   UNL     1       7.877   5.647  18.846  0.00  0.00    +0.000 A 
ATOM     20  C   UNL     1       6.903   5.061  18.030  0.00  0.00    +0.000 A 
ENDBRANCH  14  15
BRANCH  14  21
ATOM     21  C   UNL     1       5.829   4.638  14.825  0.00  0.00    +0.000 A 
ATOM     22  C   UNL     1       7.054   4.838  14.215  0.00  0.00    +0.000 A 
ATOM     23  C   UNL     1       6.982   4.201  12.948  0.00  0.00    +0.000 A 
ATOM     24  C   UNL     1       5.735   3.636  12.874  0.00  0.00    +0.000 A 
ATOM     25  O   UNL     1       5.026   3.898  14.001  0.00  0.00    +0.000 OA
ENDBRANCH  14  21
ENDBRANCH   1  14
TORSDOF 8
ENDMDL
MODEL 2
REMARK VINA RESULT:      -7.4      2.285      6.668
REMARK  Name = 
REMARK  9 active torsions:
REMARK  status: ('A' for Active; 'I' for Inactive)
REMARK    1  A    between atoms: C_1  and  C_2
REMARK    2  A    between atoms: C_2  and  C_3
REMARK    3  A    between atoms: N_5  and  C_6
REMARK    4  A    between atoms: N_5  and  C_20
REMARK    5  A    between atoms: C_6  and  C_7
REMARK    6  A    between atoms: C_7  and  C_8
REMARK    7  A    between atoms: C_8  and  C_9
REMARK    8  A    between atoms: C_8  and  C_15
REMARK    9  A    between atoms: C_20  and  C_21
REMARK                            x       y       z     vdW  Elec       q    Type
REMARK                         _______ _______ _______ _____ _____    ______ ____
ROOT
ATOM      1  C   UNL     1       3.056   6.309  17.933  0.00  0.00    +0.000 C 
ENDROOT
BRANCH   1   2
ATOM      2  C   UNL     1       4.466   6.752  17.517  0.00  0.00    +0.000 C 
BRANCH   2   5
ATOM      3  C   UNL     1       6.670   5.650  16.878  0.00  0.00    +0.000 C 
ATOM      4  O   UNL     1       7.299   4.696  16.412  0.00  0.00    +0.000 OA
ATOM      5  N   UNL     1       5.281   5.639  16.982  0.00  0.00    +0.000 N 
BRANCH   3   7
ATOM      6  C   UNL     1       8.054   6.702  18.730  0.00  0.00    +0.000 C 
ATOM      7  C   UNL     1       7.394   6.896  17.373  0.00  0.00    +0.000 C 
ENDBRANCH   3   7
BRANCH   5   8
ATOM      8  C   UNL     1       4.572   4.449  16.506  0.00  0.00    +0.000 C 
BRANCH   8   9
ATOM      9  C   UNL     1       4.330   3.478  17.632  0.00  0.00    +0.000 A 
ATOM     10  C   UNL     1       4.980   3.383  18.850  0.00  0.00    +0.000 A 
ATOM     11  C   UNL     1       4.523   2.284  19.633  0.00  0.00    +0.000 A 
ATOM     12  C   UNL     1       3.542   1.566  18.989  0.00  0.00    +0.000 A 
ATOM     13  S   UNL     1       3.167   2.227  17.456  0.00  0.00    +0.000 S 
ENDBRANCH   8   9
ENDBRANCH   5   8
ENDBRANCH   2   5
ENDBRANCH   1   2
BRANCH   1  14
ATOM     14  C   UNL     1       2.746   6.514  19.442  0.00  0.00    +0.000 C 
BRANCH  14  15
ATOM     15  C   UNL     1       1.902   7.751  19.742  0.00  0.00    +0.000 A 
ATOM     16  C   UNL     1       1.268   7.941  20.982  0.00  0.00    +0.000 A 
ATOM     17  C   UNL     1       0.461   9.059  21.213  0.00  0.00    +0.000 A 
ATOM     18  C   UNL     1       0.272  10.009  20.210  0.00  0.00    +0.000 A 
ATOM     19  C   UNL     1       0.904   9.847  18.982  0.00  0.00    +0.000 A 
ATOM     20  C   UNL     1       1.716   8.732  18.750  0.00  0.00    +0.000 A 
ENDBRANCH  14  15
BRANCH  14  21
ATOM     21  C   UNL     1       2.163   5.245  20.012  0.00  0.00    +0.000 A 
ATOM     22  C   UNL     1       1.135   4.414  19.609  0.00  0.00    +0.000 A 
ATOM     23  C   UNL     1       0.986   3.434  20.627  0.00  0.00    +0.000 A 
ATOM     24  C   UNL     1       1.942   3.714  21.570  0.00  0.00    +0.000 A 
ATOM     25  O   UNL     1       2.657   4.810  21.212  0.00  0.00    +0.000 OA
ENDBRANCH  14  21
ENDBRANCH   1  14
TORSDOF 8
ENDMDL
MODEL 3
REMARK VINA RESULT:      -7.3      0.714      1.384
REMARK  Name = 
REMARK  9 active torsions:
REMARK  status: ('A' for Active; 'I' for Inactive)
REMARK    1  A    between atoms: C_1  and  C_2
REMARK    2  A    between atoms: C_2  and  C_3
REMARK    3  A    between atoms: N_5  and  C_6
REMARK    4  A    between atoms: N_5  and  C_20
REMARK    5  A    between atoms: C_6  and  C_7
REMARK    6  A    between atoms: C_7  and  C_8
REMARK    7  A    between atoms: C_8  and  C_9
REMARK    8  A    between atoms: C_8  and  C_15
REMARK    9  A    between atoms: C_20  and  C_21
REMARK                            x       y       z     vdW  Elec       q    Type
REMARK                         _______ _______ _______ _____ _____    ______ ____
ROOT
ATOM      1  C   UNL     1       4.480   4.087  16.610  0.00  0.00    +0.000 C 
ENDROOT
BRANCH   1   2
ATOM      2  C   UNL     1       3.173   4.536  17.280  0.00  0.00    +0.000 C 
BRANCH   2   5
ATOM      3  C   UNL     1       2.878   3.505  19.589  0.00  0.00    +0.000 C 
ATOM      4  O   UNL     1       2.963   3.580  20.818  0.00  0.00    +0.000 OA
ATOM      5  N   UNL     1       3.263   4.553  18.756  0.00  0.00    +0.000 N 
BRANCH   3   7
ATOM      6  C   UNL     1       3.439   1.240  18.586  0.00  0.00    +0.000 C 
ATOM      7  C   UNL     1       2.346   2.245  18.918  0.00  0.00    +0.000 C 
ENDBRANCH   3   7
BRANCH   5   8
ATOM      8  C   UNL     1       3.773   5.773  19.388  0.00  0.00    +0.000 C 
BRANCH   8   9
ATOM      9  C   UNL     1       2.961   6.974  18.978  0.00  0.00    +0.000 A 
ATOM     10  C   UNL     1       3.042   7.718  17.814  0.00  0.00    +0.000 A 
ATOM     11  C   UNL     1       2.158   8.835  17.813  0.00  0.00    +0.000 A 
ATOM     12  C   UNL     1       1.432   8.918  18.980  0.00  0.00    +0.000 A 
ATOM     13  S   UNL     1       1.808   7.645  20.059  0.00  0.00    +0.000 S 
ENDBRANCH   8   9
ENDBRANCH   5   8
ENDBRANCH   2   5
ENDBRANCH   1   2
BRANCH   1  14
ATOM     14  C   UNL     1       5.325   5.251  16.022  0.00  0.00    +0.000 C 
BRANCH  14  15
ATOM     15  C   UNL     1       6.373   5.807  16.984  0.00  0.00    +0.000 A 
ATOM     16  C   UNL     1       7.020   4.998  17.934  0.00  0.00    +0.000 A 
ATOM     17  C   UNL     1       7.940   5.542  18.835  0.00  0.00    +0.000 A 
ATOM     18  C   UNL     1       8.231   6.905  18.805  0.00  0.00    +0.000 A 
ATOM     19  C   UNL     1       7.614   7.720  17.862  0.00  0.00    +0.000 A 
ATOM     20  C   UNL     1       6.697   7.176  16.956  0.00  0.00    +0.000 A 
ENDBRANCH  14  15
BRANCH  14  21
ATOM     21  C   UNL     1       5.900   4.832  14.693  0.00  0.00    +0.000 A 
ATOM     22  C   UNL     1       5.546   3.862  13.774  0.00  0.00    +0.000 A 
ATOM     23  C   UNL     1       6.547   3.876  12.767  0.00  0.00    +0.000 A 
ATOM     24  C   UNL     1       7.431   4.864  13.120  0.00  0.00    +0.000 A 
ATOM     25  O   UNL     1       7.053   5.445  14.286  0.00  0.00    +0.000 OA
ENDBRANCH  14  21
ENDBRANCH   1  14
TORSDOF 8
ENDMDL
MODEL 4
REMARK VINA RESULT:      -7.2      2.518      6.796
REMARK  Name = 
REMARK  9 active torsions:
REMARK  status: ('A' for Active; 'I' for Inactive)
REMARK    1  A    between atoms: C_1  and  C_2
REMARK    2  A    between atoms: C_2  and  C_3
REMARK    3  A    between atoms: N_5  and  C_6
REMARK    4  A    between atoms: N_5  and  C_20
REMARK    5  A    between atoms: C_6  and  C_7
REMARK    6  A    between atoms: C_7  and  C_8
REMARK    7  A    between atoms: C_8  and  C_9
REMARK    8  A    between atoms: C_8  and  C_15
REMARK    9  A    between atoms: C_20  and  C_21
REMARK                            x       y       z     vdW  Elec       q    Type
REMARK                         _______ _______ _______ _____ _____    ______ ____
ROOT
ATOM      1  C   UNL     1       4.548   6.720  17.442  0.00  0.00    +0.000 C 
ENDROOT
BRANCH   1   2
ATOM      2  C   UNL     1       5.194   6.248  16.131  0.00  0.00    +0.000 C 
BRANCH   2   5
ATOM      3  C   UNL     1       7.285   5.167  17.100  0.00  0.00    +0.000 C 
ATOM      4  O   UNL     1       8.036   4.194  17.219  0.00  0.00    +0.000 OA
ATOM      5  N   UNL     1       6.127   5.117  16.328  0.00  0.00    +0.000 N 
BRANCH   3   7
ATOM      6  C   UNL     1       8.088   6.289  19.233  0.00  0.00    +0.000 C 
ATOM      7  C   UNL     1       7.592   6.481  17.807  0.00  0.00    +0.000 C 
ENDBRANCH   3   7
BRANCH   5   8
ATOM      8  C   UNL     1       5.822   3.861  15.638  0.00  0.00    +0.000 C 
BRANCH   8   9
ATOM      9  C   UNL     1       6.143   3.958  14.170  0.00  0.00    +0.000 A 
ATOM     10  C   UNL     1       5.513   3.345  13.102  0.00  0.00    +0.000 A 
ATOM     11  C   UNL     1       6.149   3.617  11.857  0.00  0.00    +0.000 A 
ATOM     12  C   UNL     1       7.253   4.425  12.009  0.00  0.00    +0.000 A 
ATOM     13  S   UNL     1       7.506   4.861  13.643  0.00  0.00    +0.000 S 
ENDBRANCH   8   9
ENDBRANCH   5   8
ENDBRANCH   2   5
ENDBRANCH   1   2
BRANCH   1  14
ATOM     14  C   UNL     1       3.042   6.362  17.573  0.00  0.00    +0.000 C 
BRANCH  14  15
ATOM     15  C   UNL     1       2.779   4.991  18.194  0.00  0.00    +0.000 A 
ATOM     16  C   UNL     1       3.722   4.350  19.016  0.00  0.00    +0.000 A 
ATOM     17  C   UNL     1       3.478   3.074  19.531  0.00  0.00    +0.000 A 
ATOM     18  C   UNL     1       2.286   2.413  19.235  0.00  0.00    +0.000 A 
ATOM     19  C   UNL     1       1.333   3.037  18.437  0.00  0.00    +0.000 A 
ATOM     20  C   UNL     1       1.574   4.316  17.924  0.00  0.00    +0.000 A 
ENDBRANCH  14  15
BRANCH  14  21
ATOM     21  C   UNL     1       2.319   7.482  18.278  0.00  0.00    +0.000 A 
ATOM     22  C   UNL     1       1.860   8.718  17.864  0.00  0.00    +0.000 A 
ATOM     23  C   UNL     1       1.360   9.371  19.022  0.00  0.00    +0.000 A 
ATOM     24  C   UNL     1       1.523   8.489  20.059  0.00  0.00    +0.000 A 
ATOM     25  O   UNL     1       2.107   7.345  19.623  0.00  0.00    +0.000 OA
ENDBRANCH  14  21
ENDBRANCH   1  14
TORSDOF 8
ENDMDL
MODEL 5
REMARK VINA RESULT:      -7.1      1.002      1.330
REMARK  Name = 
REMARK  9 active torsions:
REMARK  status: ('A' for Active; 'I' for Inactive)
REMARK    1  A    between atoms: C_1  and  C_2
REMARK    2  A    between atoms: C_2  and  C_3
REMARK    3  A    between atoms: N_5  and  C_6
REMARK    4  A    between atoms: N_5  and  C_20
REMARK    5  A    between atoms: C_6  and  C_7
REMARK    6  A    between atoms: C_7  and  C_8
REMARK    7  A    between atoms: C_8  and  C_9
REMARK    8  A    between atoms: C_8  and  C_15
REMARK    9  A    between atoms: C_20  and  C_21
REMARK                            x       y       z     vdW  Elec       q    Type
REMARK                         _______ _______ _______ _____ _____    ______ ____
ROOT
ATOM      1  C   UNL     1       4.284   4.347  17.128  0.00  0.00    +0.000 C 
ENDROOT
BRANCH   1   2
ATOM      2  C   UNL     1       2.841   4.782  17.429  0.00  0.00    +0.000 C 
BRANCH   2   5
ATOM      3  C   UNL     1       1.726   4.170  19.634  0.00  0.00    +0.000 C 
ATOM      4  O   UNL     1       1.541   4.372  20.837  0.00  0.00    +0.000 OA
ATOM      5  N   UNL     1       2.587   4.959  18.875  0.00  0.00    +0.000 N 
BRANCH   3   7
ATOM      6  C   UNL     1       1.772   1.713  18.991  0.00  0.00    +0.000 C 
ATOM      7  C   UNL     1       1.014   3.030  18.915  0.00  0.00    +0.000 C 
ENDBRANCH   3   7
BRANCH   5   8
ATOM      8  C   UNL     1       3.274   6.061  19.552  0.00  0.00    +0.000 C 
BRANCH   8   9
ATOM      9  C   UNL     1       2.482   7.338  19.448  0.00  0.00    +0.000 A 
ATOM     10  C   UNL     1       1.643   7.916  20.384  0.00  0.00    +0.000 A 
ATOM     11  C   UNL     1       1.004   9.092  19.898  0.00  0.00    +0.000 A 
ATOM     12  C   UNL     1       1.365   9.375  18.600  0.00  0.00    +0.000 A 
ATOM     13  S   UNL     1       2.481   8.235  17.984  0.00  0.00    +0.000 S 
ENDBRANCH   8   9
ENDBRANCH   5   8
ENDBRANCH   2   5
ENDBRANCH   1   2
BRANCH   1  14
ATOM     14  C   UNL     1       5.137   5.431  16.412  0.00  0.00    +0.000 C 
BRANCH  14  15
ATOM     15  C   UNL     1       6.232   6.040  17.287  0.00  0.00    +0.000 A 
ATOM     16  C   UNL     1       6.720   7.340  17.075  0.00  0.00    +0.000 A 
ATOM     17  C   UNL     1       7.757   7.855  17.858  0.00  0.00    +0.000 A 
ATOM     18  C   UNL     1       8.326   7.080  18.868  0.00  0.00    +0.000 A 
ATOM     19  C   UNL     1       7.846   5.797  19.104  0.00  0.00    +0.000 A 
ATOM     20  C   UNL     1       6.805   5.281  18.325  0.00  0.00    +0.000 A 
ENDBRANCH  14  15
BRANCH  14  21
ATOM     21  C   UNL     1       5.655   4.881  15.108  0.00  0.00    +0.000 A 
ATOM     22  C   UNL     1       5.229   3.862  14.276  0.00  0.00    +0.000 A 
ATOM     23  C   UNL     1       6.202   3.747  13.248  0.00  0.00    +0.000 A 
ATOM     24  C   UNL     1       7.143   4.712  13.502  0.00  0.00    +0.000 A 
ATOM     25  O   UNL     1       6.826   5.401  14.627  0.00  0.00    +0.000 OA
ENDBRANCH  14  21
ENDBRANCH   1  14
TORSDOF 8
ENDMDL
MODEL 6
REMARK VINA RESULT:      -7.1      3.334      5.953
REMARK  Name = 
REMARK  9 active torsions:
REMARK  status: ('A' for Active; 'I' for Inactive)
REMARK    1  A    between atoms: C_1  and  C_2
REMARK    2  A    between atoms: C_2  and  C_3
REMARK    3  A    between atoms: N_5  and  C_6
REMARK    4  A    between atoms: N_5  and  C_20
REMARK    5  A    between atoms: C_6  and  C_7
REMARK    6  A    between atoms: C_7  and  C_8
REMARK    7  A    between atoms: C_8  and  C_9
REMARK    8  A    between atoms: C_8  and  C_15
REMARK    9  A    between atoms: C_20  and  C_21
REMARK                            x       y       z     vdW  Elec       q    Type
REMARK                         _______ _______ _______ _____ _____    ______ ____
ROOT
ATOM      1  C   UNL     1       2.263   7.839  18.708  0.00  0.00    +0.000 C 
ENDROOT
BRANCH   1   2
ATOM      2  C   UNL     1       1.152   8.190  19.709  0.00  0.00    +0.000 C 
BRANCH   2   5
ATOM      3  C   UNL     1       1.007  10.238  21.213  0.00  0.00    +0.000 C 
ATOM      4  O   UNL     1       0.900  11.459  21.359  0.00  0.00    +0.000 OA
ATOM      5  N   UNL     1       1.041   9.644  19.954  0.00  0.00    +0.000 N 
BRANCH   3   7
ATOM      6  C   UNL     1      -0.049   9.468  23.391  0.00  0.00    +0.000 C 
ATOM      7  C   UNL     1       1.112   9.314  22.420  0.00  0.00    +0.000 C 
ENDBRANCH   3   7
BRANCH   5   8
ATOM      8  C   UNL     1       0.937  10.521  18.785  0.00  0.00    +0.000 C 
BRANCH   8   9
ATOM      9  C   UNL     1      -0.491  10.627  18.315  0.00  0.00    +0.000 A 
ATOM     10  C   UNL     1      -1.195   9.775  17.483  0.00  0.00    +0.000 A 
ATOM     11  C   UNL     1      -2.509  10.244  17.200  0.00  0.00    +0.000 A 
ATOM     12  C   UNL     1      -2.771  11.446  17.817  0.00  0.00    +0.000 A 
ATOM     13  S   UNL     1      -1.440  11.992  18.743  0.00  0.00    +0.000 S 
ENDBRANCH   8   9
ENDBRANCH   5   8
ENDBRANCH   2   5
ENDBRANCH   1   2
BRANCH   1  14
ATOM     14  C   UNL     1       3.102   6.592  19.103  0.00  0.00    +0.000 C 
BRANCH  14  15
ATOM     15  C   UNL     1       2.277   5.321  19.297  0.00  0.00    +0.000 A 
ATOM     16  C   UNL     1       1.917   4.853  20.572  0.00  0.00    +0.000 A 
ATOM     17  C   UNL     1       1.203   3.660  20.725  0.00  0.00    +0.000 A 
ATOM     18  C   UNL     1       0.835   2.913  19.606  0.00  0.00    +0.000 A 
ATOM     19  C   UNL     1       1.168   3.369  18.335  0.00  0.00    +0.000 A 
ATOM     20  C   UNL     1       1.878   4.564  18.180  0.00  0.00    +0.000 A 
ENDBRANCH  14  15
BRANCH  14  21
ATOM     21  C   UNL     1       4.236   6.420  18.124  0.00  0.00    +0.000 A 
ATOM     22  C   UNL     1       4.440   6.858  16.828  0.00  0.00    +0.000 A 
ATOM     23  C   UNL     1       5.659   6.274  16.393  0.00  0.00    +0.000 A 
ATOM     24  C   UNL     1       6.131   5.539  17.451  0.00  0.00    +0.000 A 
ATOM     25  O   UNL     1       5.277   5.616  18.501  0.00  0.00    +0.000 OA
ENDBRANCH  14  21
ENDBRANCH   1  14
TORSDOF 8
ENDMDL
MODEL 7
REMARK VINA RESULT:      -7.1      2.573      6.876
REMARK  Name = 
REMARK  9 active torsions:
REMARK  status: ('A' for Active; 'I' for Inactive)
REMARK    1  A    between atoms: C_1  and  C_2
REMARK    2  A    between atoms: C_2  and  C_3
REMARK    3  A    between atoms: N_5  and  C_6
REMARK    4  A    between atoms: N_5  and  C_20
REMARK    5  A    between atoms: C_6  and  C_7
REMARK    6  A    between atoms: C_7  and  C_8
REMARK    7  A    between atoms: C_8  and  C_9
REMARK    8  A    between atoms: C_8  and  C_15
REMARK    9  A    between atoms: C_20  and  C_21
REMARK                            x       y       z     vdW  Elec       q    Type
REMARK                         _______ _______ _______ _____ _____    ______ ____
ROOT
ATOM      1  C   UNL     1       4.487   6.443  17.757  0.00  0.00    +0.000 C 
ENDROOT
BRANCH   1   2
ATOM      2  C   UNL     1       5.117   6.111  16.397  0.00  0.00    +0.000 C 
BRANCH   2   5
ATOM      3  C   UNL     1       7.257   5.118  17.351  0.00  0.00    +0.000 C 
ATOM      4  O   UNL     1       8.109   4.226  17.377  0.00  0.00    +0.000 OA
ATOM      5  N   UNL     1       6.164   5.072  16.489  0.00  0.00    +0.000 N 
BRANCH   3   7
ATOM      6  C   UNL     1       7.993   7.535  17.610  0.00  0.00    +0.000 C 
ATOM      7  C   UNL     1       7.360   6.323  18.277  0.00  0.00    +0.000 C 
ENDBRANCH   3   7
BRANCH   5   8
ATOM      8  C   UNL     1       6.055   3.920  15.590  0.00  0.00    +0.000 C 
BRANCH   8   9
ATOM      9  C   UNL     1       6.626   4.238  14.233  0.00  0.00    +0.000 A 
ATOM     10  C   UNL     1       7.555   5.205  13.888  0.00  0.00    +0.000 A 
ATOM     11  C   UNL     1       7.797   5.258  12.486  0.00  0.00    +0.000 A 
ATOM     12  C   UNL     1       7.042   4.337  11.797  0.00  0.00    +0.000 A 
ATOM     13  S   UNL     1       6.060   3.406  12.842  0.00  0.00    +0.000 S 
ENDBRANCH   8   9
ENDBRANCH   5   8
ENDBRANCH   2   5
ENDBRANCH   1   2
BRANCH   1  14
ATOM     14  C   UNL     1       2.964   6.146  17.842  0.00  0.00    +0.000 C 
BRANCH  14  15
ATOM     15  C   UNL     1       2.630   4.747  18.357  0.00  0.00    +0.000 A 
ATOM     16  C   UNL     1       1.445   4.083  17.999  0.00  0.00    +0.000 A 
ATOM     17  C   UNL     1       1.140   2.823  18.524  0.00  0.00    +0.000 A 
ATOM     18  C   UNL     1       2.013   2.204  19.418  0.00  0.00    +0.000 A 
ATOM     19  C   UNL     1       3.199   2.839  19.772  0.00  0.00    +0.000 A 
ATOM     20  C   UNL     1       3.509   4.097  19.243  0.00  0.00    +0.000 A 
ENDBRANCH  14  15
BRANCH  14  21
ATOM     21  C   UNL     1       2.280   7.244  18.616  0.00  0.00    +0.000 A 
ATOM     22  C   UNL     1       1.861   8.518  18.280  0.00  0.00    +0.000 A 
ATOM     23  C   UNL     1       1.386   9.116  19.477  0.00  0.00    +0.000 A 
ATOM     24  C   UNL     1       1.523   8.167  20.458  0.00  0.00    +0.000 A 
ATOM     25  O   UNL     1       2.067   7.033  19.951  0.00  0.00    +0.000 OA
ENDBRANCH  14  21
ENDBRANCH   1  14
TORSDOF 8
ENDMDL
MODEL 8
REMARK VINA RESULT:      -7.0      2.322      6.666
REMARK  Name = 
REMARK  9 active torsions:
REMARK  status: ('A' for Active; 'I' for Inactive)
REMARK    1  A    between atoms: C_1  and  C_2
REMARK    2  A    between atoms: C_2  and  C_3
REMARK    3  A    between atoms: N_5  and  C_6
REMARK    4  A    between atoms: N_5  and  C_20
REMARK    5  A    between atoms: C_6  and  C_7
REMARK    6  A    between atoms: C_7  and  C_8
REMARK    7  A    between atoms: C_8  and  C_9
REMARK    8  A    between atoms: C_8  and  C_15
REMARK    9  A    between atoms: C_20  and  C_21
REMARK                            x       y       z     vdW  Elec       q    Type
REMARK                         _______ _______ _______ _____ _____    ______ ____
ROOT
ATOM      1  C   UNL     1       3.704   5.913  17.535  0.00  0.00    +0.000 C 
ENDROOT
BRANCH   1   2
ATOM      2  C   UNL     1       5.157   6.370  17.340  0.00  0.00    +0.000 C 
BRANCH   2   5
ATOM      3  C   UNL     1       7.375   5.292  17.972  0.00  0.00    +0.000 C 
ATOM      4  O   UNL     1       8.143   4.327  17.956  0.00  0.00    +0.000 OA
ATOM      5  N   UNL     1       6.119   5.248  17.370  0.00  0.00    +0.000 N 
BRANCH   3   7
ATOM      6  C   UNL     1       8.011   7.735  17.691  0.00  0.00    +0.000 C 
ATOM      7  C   UNL     1       7.767   6.592  18.665  0.00  0.00    +0.000 C 
ENDBRANCH   3   7
BRANCH   5   8
ATOM      8  C   UNL     1       5.731   4.006  16.697  0.00  0.00    +0.000 C 
BRANCH   8   9
ATOM      9  C   UNL     1       5.944   4.108  15.210  0.00  0.00    +0.000 A 
ATOM     10  C   UNL     1       5.192   3.558  14.186  0.00  0.00    +0.000 A 
ATOM     11  C   UNL     1       5.747   3.809  12.899  0.00  0.00    +0.000 A 
ATOM     12  C   UNL     1       6.913   4.538  12.975  0.00  0.00    +0.000 A 
ATOM     13  S   UNL     1       7.320   4.927  14.590  0.00  0.00    +0.000 S 
ENDBRANCH   8   9
ENDBRANCH   5   8
ENDBRANCH   2   5
ENDBRANCH   1   2
BRANCH   1  14
ATOM     14  C   UNL     1       3.137   6.190  18.955  0.00  0.00    +0.000 C 
BRANCH  14  15
ATOM     15  C   UNL     1       2.324   7.480  19.060  0.00  0.00    +0.000 A 
ATOM     16  C   UNL     1       1.783   7.924  20.278  0.00  0.00    +0.000 A 
ATOM     17  C   UNL     1       1.002   9.082  20.338  0.00  0.00    +0.000 A 
ATOM     18  C   UNL     1       0.746   9.818  19.182  0.00  0.00    +0.000 A 
ATOM     19  C   UNL     1       1.287   9.404  17.969  0.00  0.00    +0.000 A 
ATOM     20  C   UNL     1       2.073   8.248  17.908  0.00  0.00    +0.000 A 
ENDBRANCH  14  15
BRANCH  14  21
ATOM     21  C   UNL     1       2.389   4.975  19.442  0.00  0.00    +0.000 A 
ATOM     22  C   UNL     1       1.468   4.132  18.849  0.00  0.00    +0.000 A 
ATOM     23  C   UNL     1       1.036   3.232  19.859  0.00  0.00    +0.000 A 
ATOM     24  C   UNL     1       1.733   3.566  20.992  0.00  0.00    +0.000 A 
ATOM     25  O   UNL     1       2.550   4.622  20.754  0.00  0.00    +0.000 OA
ENDBRANCH  14  21
ENDBRANCH   1  14
TORSDOF 8
ENDMDL
MODEL 9
REMARK VINA RESULT:      -7.0      1.702      4.659
REMARK  Name = 
REMARK  9 active torsions:
REMARK  status: ('A' for Active; 'I' for Inactive)
REMARK    1  A    between atoms: C_1  and  C_2
REMARK    2  A    between atoms: C_2  and  C_3
REMARK    3  A    between atoms: N_5  and  C_6
REMARK    4  A    between atoms: N_5  and  C_20
REMARK    5  A    between atoms: C_6  and  C_7
REMARK    6  A    between atoms: C_7  and  C_8
REMARK    7  A    between atoms: C_8  and  C_9
REMARK    8  A    between atoms: C_8  and  C_15
REMARK    9  A    between atoms: C_20  and  C_21
REMARK                            x       y       z     vdW  Elec       q    Type
REMARK                         _______ _______ _______ _____ _____    ______ ____
ROOT
ATOM      1  C   UNL     1       5.186   4.286  17.091  0.00  0.00    +0.000 C 
ENDROOT
BRANCH   1   2
ATOM      2  C   UNL     1       4.313   5.549  17.087  0.00  0.00    +0.000 C 
BRANCH   2   5
ATOM      3  C   UNL     1       2.977   6.980  18.714  0.00  0.00    +0.000 C 
ATOM      4  O   UNL     1       2.536   7.192  19.847  0.00  0.00    +0.000 OA
ATOM      5  N   UNL     1       3.743   5.856  18.417  0.00  0.00    +0.000 N 
BRANCH   3   7
ATOM      6  C   UNL     1       1.567   8.922  17.883  0.00  0.00    +0.000 C 
ATOM      7  C   UNL     1       2.695   7.949  17.573  0.00  0.00    +0.000 C 
ENDBRANCH   3   7
BRANCH   5   8
ATOM      8  C   UNL     1       4.026   4.918  19.506  0.00  0.00    +0.000 C 
BRANCH   8   9
ATOM      9  C   UNL     1       2.857   3.999  19.745  0.00  0.00    +0.000 A 
ATOM     10  C   UNL     1       2.134   3.258  18.827  0.00  0.00    +0.000 A 
ATOM     11  C   UNL     1       1.043   2.561  19.419  0.00  0.00    +0.000 A 
ATOM     12  C   UNL     1       0.957   2.793  20.773  0.00  0.00    +0.000 A 
ATOM     13  S   UNL     1       2.197   3.835  21.322  0.00  0.00    +0.000 S 
ENDBRANCH   8   9
ENDBRANCH   5   8
ENDBRANCH   2   5
ENDBRANCH   1   2
BRANCH   1  14
ATOM     14  C   UNL     1       6.630   4.509  16.563  0.00  0.00    +0.000 C 
BRANCH  14  15
ATOM     15  C   UNL     1       6.740   4.522  15.039  0.00  0.00    +0.000 A 
ATOM     16  C   UNL     1       5.856   3.799  14.220  0.00  0.00    +0.000 A 
ATOM     17  C   UNL     1       6.009   3.788  12.830  0.00  0.00    +0.000 A 
ATOM     18  C   UNL     1       7.049   4.498  12.233  0.00  0.00    +0.000 A 
ATOM     19  C   UNL     1       7.925   5.233  13.025  0.00  0.00    +0.000 A 
ATOM     20  C   UNL     1       7.771   5.249  14.415  0.00  0.00    +0.000 A 
ENDBRANCH  14  15
BRANCH  14  21
ATOM     21  C   UNL     1       7.217   5.737  17.211  0.00  0.00    +0.000 A 
ATOM     22  C   UNL     1       7.826   5.961  18.432  0.00  0.00    +0.000 A 
ATOM     23  C   UNL     1       8.064   7.359  18.514  0.00  0.00    +0.000 A 
ATOM     24  C   UNL     1       7.609   7.894  17.335  0.00  0.00    +0.000 A 
ATOM     25  O   UNL     1       7.090   6.924  16.542  0.00  0.00    +0.000 OA
ENDBRANCH  14  21
ENDBRANCH   1  14
TORSDOF 8
ENDMDL
