MODEL 1
REMARK VINA RESULT:      -7.0      0.000      0.000
REMARK  Name = 
REMARK  11 active torsions:
REMARK  status: ('A' for Active; 'I' for Inactive)
REMARK    1  A    between atoms: C_1  and  C_2
REMARK    2  A    between atoms: C_2  and  C_3
REMARK    3  A    between atoms: C_3  and  C_4
REMARK    4  A    between atoms: C_4  and  C_5
REMARK    5  A    between atoms: C_5  and  C_6
REMARK    6  A    between atoms: C_6  and  C_7
REMARK    7  A    between atoms: C_7  and  N_8
REMARK    8  A    between atoms: C_14  and  C_15
REMARK    9  A    between atoms: C_18  and  O_19
REMARK   10  A    between atoms: O_19  and  C_20
REMARK   11  A    between atoms: C_23  and  C_24
REMARK                            x       y       z     vdW  Elec       q    Type
REMARK                         _______ _______ _______ _____ _____    ______ ____
ROOT
ATOM      1  N   UNL     1       3.489   6.346  19.105  0.00  0.00    +0.000 N 
ATOM      2  C   UNL     1       2.463   7.283  18.999  0.00  0.00    +0.000 C 
ATOM      3  O   UNL     1       1.953   7.551  17.918  0.00  0.00    +0.000 OA
ATOM      4  N   UNL     1       2.159   7.854  20.212  0.00  0.00    +0.000 N 
ATOM      5  C   UNL     1       1.171   8.800  20.312  0.00  0.00    +0.000 A 
ATOM      6  N   UNL     1       0.218   9.071  19.464  0.00  0.00    +0.000 NA
ATOM      7  C   UNL     1      -0.521  10.163  19.901  0.00  0.00    +0.000 A 
ATOM      8  C   UNL     1      -0.149  10.674  21.148  0.00  0.00    +0.000 A 
ATOM      9  S   UNL     1       1.184   9.718  21.737  0.00  0.00    +0.000 S 
ATOM     10  H   UNL     1       3.442   5.771  19.928  0.00  0.00    +0.000 HD
ATOM     11  H   UNL     1       2.844   7.815  20.953  0.00  0.00    +0.000 HD
ENDROOT
BRANCH   8  12
ATOM     12  C   UNL     1      -0.684  11.777  21.981  0.00  0.00    +0.000 A 
ATOM     13  C   UNL     1      -0.120  13.064  21.926  0.00  0.00    +0.000 A 
ATOM     14  C   UNL     1      -0.552  14.091  22.774  0.00  0.00    +0.000 A 
ATOM     15  C   UNL     1      -1.609  13.864  23.647  0.00  0.00    +0.000 A 
ATOM     16 CL   UNL     1      -2.166  15.135  24.664  0.00  0.00    +0.000 Cl
ATOM     17  C   UNL     1      -2.218  12.615  23.694  0.00  0.00    +0.000 A 
ATOM     18  C   UNL     1      -1.748  11.577  22.879  0.00  0.00    +0.000 A 
ENDBRANCH   8  12
BRANCH   7  19
ATOM     19  C   UNL     1      -1.610  10.648  19.051  0.00  0.00    +0.000 A 
ATOM     20  C   UNL     1      -1.979   9.909  17.919  0.00  0.00    +0.000 A 
ATOM     21  C   UNL     1      -3.052  10.320  17.121  0.00  0.00    +0.000 A 
ATOM     22  C   UNL     1      -3.788  11.457  17.451  0.00  0.00    +0.000 A 
ATOM     23  C   UNL     1      -3.403  12.221  18.551  0.00  0.00    +0.000 A 
ATOM     24  C   UNL     1      -2.301  11.835  19.325  0.00  0.00    +0.000 A 
BRANCH  22  25
ATOM     25  O   UNL     1      -4.823  11.753  16.607  0.00  0.00    +0.000 OA
ATOM     26  C   UNL     1      -6.034  12.166  17.229  0.00  0.00    +0.000 C 
ENDBRANCH  22  25
ENDBRANCH   7  19
BRANCH   1  27
ATOM     27  C   UNL     1       3.901   5.698  17.871  0.00  0.00    +0.000 C 
BRANCH  27  28
ATOM     28  C   UNL     1       4.036   4.181  17.985  0.00  0.00    +0.000 C 
BRANCH  28  29
ATOM     29  C   UNL     1       2.966   3.486  17.131  0.00  0.00    +0.000 C 
BRANCH  29  30
ATOM     30  C   UNL     1       2.536   2.139  17.714  0.00  0.00    +0.000 C 
BRANCH  30  31
ATOM     31  C   UNL     1       2.183   2.256  19.201  0.00  0.00    +0.000 C 
BRANCH  31  33
ATOM     32  C   UNL     1       1.051   4.102  20.506  0.00  0.00    +0.000 C 
ATOM     33  C   UNL     1       0.898   3.060  19.408  0.00  0.00    +0.000 C 
ENDBRANCH  31  33
ENDBRANCH  30  31
ENDBRANCH  29  30
ENDBRANCH  28  29
ENDBRANCH  27  28
ENDBRANCH   1  27
TORSDOF 9
ENDMDL
MODEL 2
REMARK VINA RESULT:      -7.0      1.029      1.283
REMARK  Name = 
REMARK  11 active torsions:
REMARK  status: ('A' for Active; 'I' for Inactive)
REMARK    1  A    between atoms: C_1  and  C_2
REMARK    2  A    between atoms: C_2  and  C_3
REMARK    3  A    between atoms: C_3  and  C_4
REMARK    4  A    between atoms: C_4  and  C_5
REMARK    5  A    between atoms: C_5  and  C_6
REMARK    6  A    between atoms: C_6  and  C_7
REMARK    7  A    between atoms: C_7  and  N_8
REMARK    8  A    between atoms: C_14  and  C_15
REMARK    9  A    between atoms: C_18  and  O_19
REMARK   10  A    between atoms: O_19  and  C_20
REMARK   11  A    between atoms: C_23  and  C_24
REMARK                            x       y       z     vdW  Elec       q    Type
REMARK                         _______ _______ _______ _____ _____    ______ ____
ROOT
ATOM      1  N   UNL     1       3.765   5.796  19.821  0.00  0.00    +0.000 N 
ATOM      2  C   UNL     1       2.788   6.751  19.551  0.00  0.00    +0.000 C 
ATOM      3  O   UNL     1       2.415   6.974  18.405  0.00  0.00    +0.000 OA
ATOM      4  N   UNL     1       2.364   7.392  20.690  0.00  0.00    +0.000 N 
ATOM      5  C   UNL     1       1.400   8.366  20.627  0.00  0.00    +0.000 A 
ATOM      6  N   UNL     1       0.560   8.616  19.661  0.00  0.00    +0.000 NA
ATOM      7  C   UNL     1      -0.191   9.747  19.955  0.00  0.00    +0.000 A 
ATOM      8  C   UNL     1       0.050  10.313  21.211  0.00  0.00    +0.000 A 
ATOM      9  S   UNL     1       1.276   9.357  21.997  0.00  0.00    +0.000 S 
ATOM     10  H   UNL     1       3.607   5.266  20.661  0.00  0.00    +0.000 HD
ATOM     11  H   UNL     1       2.957   7.375  21.507  0.00  0.00    +0.000 HD
ENDROOT
BRANCH   8  12
ATOM     12  C   UNL     1      -0.544  11.471  21.920  0.00  0.00    +0.000 A 
ATOM     13  C   UNL     1      -0.073  12.777  21.694  0.00  0.00    +0.000 A 
ATOM     14  C   UNL     1      -0.558  13.868  22.424  0.00  0.00    +0.000 A 
ATOM     15  C   UNL     1      -1.578  13.679  23.349  0.00  0.00    +0.000 A 
ATOM     16 CL   UNL     1      -2.202  15.024  24.221  0.00  0.00    +0.000 Cl
ATOM     17  C   UNL     1      -2.097  12.407  23.564  0.00  0.00    +0.000 A 
ATOM     18  C   UNL     1      -1.572  11.311  22.866  0.00  0.00    +0.000 A 
ENDBRANCH   8  12
BRANCH   7  19
ATOM     19  C   UNL     1      -1.159  10.213  18.961  0.00  0.00    +0.000 A 
ATOM     20  C   UNL     1      -0.928  11.420  18.289  0.00  0.00    +0.000 A 
ATOM     21  C   UNL     1      -1.808  11.861  17.294  0.00  0.00    +0.000 A 
ATOM     22  C   UNL     1      -2.916  11.094  16.937  0.00  0.00    +0.000 A 
ATOM     23  C   UNL     1      -3.177   9.912  17.627  0.00  0.00    +0.000 A 
ATOM     24  C   UNL     1      -2.321   9.493  18.653  0.00  0.00    +0.000 A 
BRANCH  22  25
ATOM     25  O   UNL     1      -3.696  11.617  15.943  0.00  0.00    +0.000 OA
ATOM     26  C   UNL     1      -3.878  10.794  14.797  0.00  0.00    +0.000 C 
ENDBRANCH  22  25
ENDBRANCH   7  19
BRANCH   1  27
ATOM     27  C   UNL     1       4.298   5.074  18.678  0.00  0.00    +0.000 C 
BRANCH  27  28
ATOM     28  C   UNL     1       4.055   3.567  18.730  0.00  0.00    +0.000 C 
BRANCH  28  29
ATOM     29  C   UNL     1       2.805   3.201  17.916  0.00  0.00    +0.000 C 
BRANCH  29  30
ATOM     30  C   UNL     1       1.978   2.098  18.580  0.00  0.00    +0.000 C 
BRANCH  30  31
ATOM     31  C   UNL     1       0.690   2.654  19.198  0.00  0.00    +0.000 C 
BRANCH  31  33
ATOM     32  C   UNL     1       1.673   2.850  21.519  0.00  0.00    +0.000 C 
ATOM     33  C   UNL     1       0.991   3.584  20.374  0.00  0.00    +0.000 C 
ENDBRANCH  31  33
ENDBRANCH  30  31
ENDBRANCH  29  30
ENDBRANCH  28  29
ENDBRANCH  27  28
ENDBRANCH   1  27
TORSDOF 9
ENDMDL
MODEL 3
REMARK VINA RESULT:      -6.8      1.578      2.942
REMARK  Name = 
REMARK  11 active torsions:
REMARK  status: ('A' for Active; 'I' for Inactive)
REMARK    1  A    between atoms: C_1  and  C_2
REMARK    2  A    between atoms: C_2  and  C_3
REMARK    3  A    between atoms: C_3  and  C_4
REMARK    4  A    between atoms: C_4  and  C_5
REMARK    5  A    between atoms: C_5  and  C_6
REMARK    6  A    between atoms: C_6  and  C_7
REMARK    7  A    between atoms: C_7  and  N_8
REMARK    8  A    between atoms: C_14  and  C_15
REMARK    9  A    between atoms: C_18  and  O_19
REMARK   10  A    between atoms: O_19  and  C_20
REMARK   11  A    between atoms: C_23  and  C_24
REMARK                            x       y       z     vdW  Elec       q    Type
REMARK                         _______ _______ _______ _____ _____    ______ ____
ROOT
ATOM      1  N   UNL     1       3.515   6.341  19.139  0.00  0.00    +0.000 N 
ATOM      2  C   UNL     1       2.491   7.280  19.037  0.00  0.00    +0.000 C 
ATOM      3  O   UNL     1       1.999   7.572  17.954  0.00  0.00    +0.000 OA
ATOM      4  N   UNL     1       2.166   7.823  20.257  0.00  0.00    +0.000 N 
ATOM      5  C   UNL     1       1.176   8.766  20.362  0.00  0.00    +0.000 A 
ATOM      6  N   UNL     1       0.237   9.057  19.504  0.00  0.00    +0.000 NA
ATOM      7  C   UNL     1      -0.510  10.138  19.954  0.00  0.00    +0.000 A 
ATOM      8  C   UNL     1      -0.159  10.621  21.219  0.00  0.00    +0.000 A 
ATOM      9  S   UNL     1       1.164   9.652  21.808  0.00  0.00    +0.000 S 
ATOM     10  H   UNL     1       3.455   5.747  19.948  0.00  0.00    +0.000 HD
ATOM     11  H   UNL     1       2.838   7.767  21.009  0.00  0.00    +0.000 HD
ENDROOT
BRANCH   8  12
ATOM     12  C   UNL     1      -0.709  11.704  22.068  0.00  0.00    +0.000 A 
ATOM     13  C   UNL     1      -1.770  11.457  22.958  0.00  0.00    +0.000 A 
ATOM     14  C   UNL     1      -2.362  12.489  23.696  0.00  0.00    +0.000 A 
ATOM     15  C   UNL     1      -1.854  13.779  23.608  0.00  0.00    +0.000 A 
ATOM     16 CL   UNL     1      -2.556  15.041  24.542  0.00  0.00    +0.000 Cl
ATOM     17  C   UNL     1      -0.776  14.047  22.770  0.00  0.00    +0.000 A 
ATOM     18  C   UNL     1      -0.220  13.021  21.995  0.00  0.00    +0.000 A 
ENDBRANCH   8  12
BRANCH   7  19
ATOM     19  C   UNL     1      -1.584  10.642  19.097  0.00  0.00    +0.000 A 
ATOM     20  C   UNL     1      -1.888   9.966  17.907  0.00  0.00    +0.000 A 
ATOM     21  C   UNL     1      -2.946  10.394  17.098  0.00  0.00    +0.000 A 
ATOM     22  C   UNL     1      -3.732  11.484  17.473  0.00  0.00    +0.000 A 
ATOM     23  C   UNL     1      -3.412  12.186  18.633  0.00  0.00    +0.000 A 
ATOM     24  C   UNL     1      -2.325  11.786  19.420  0.00  0.00    +0.000 A 
BRANCH  22  25
ATOM     25  O   UNL     1      -4.746  11.800  16.612  0.00  0.00    +0.000 OA
ATOM     26  C   UNL     1      -5.900  12.390  17.200  0.00  0.00    +0.000 C 
ENDBRANCH  22  25
ENDBRANCH   7  19
BRANCH   1  27
ATOM     27  C   UNL     1       3.949   5.722  17.898  0.00  0.00    +0.000 C 
BRANCH  27  28
ATOM     28  C   UNL     1       5.133   4.771  18.062  0.00  0.00    +0.000 C 
BRANCH  28  29
ATOM     29  C   UNL     1       5.921   5.117  19.333  0.00  0.00    +0.000 C 
BRANCH  29  30
ATOM     30  C   UNL     1       7.249   5.813  19.027  0.00  0.00    +0.000 C 
BRANCH  30  31
ATOM     31  C   UNL     1       7.393   6.118  17.532  0.00  0.00    +0.000 C 
BRANCH  31  33
ATOM     32  C   UNL     1       8.335   8.321  18.338  0.00  0.00    +0.000 C 
ATOM     33  C   UNL     1       7.500   7.622  17.276  0.00  0.00    +0.000 C 
ENDBRANCH  31  33
ENDBRANCH  30  31
ENDBRANCH  29  30
ENDBRANCH  28  29
ENDBRANCH  27  28
ENDBRANCH   1  27
TORSDOF 9
ENDMDL
MODEL 4
REMARK VINA RESULT:      -6.7      4.339      7.672
REMARK  Name = 
REMARK  11 active torsions:
REMARK  status: ('A' for Active; 'I' for Inactive)
REMARK    1  A    between atoms: C_1  and  C_2
REMARK    2  A    between atoms: C_2  and  C_3
REMARK    3  A    between atoms: C_3  and  C_4
REMARK    4  A    between atoms: C_4  and  C_5
REMARK    5  A    between atoms: C_5  and  C_6
REMARK    6  A    between atoms: C_6  and  C_7
REMARK    7  A    between atoms: C_7  and  N_8
REMARK    8  A    between atoms: C_14  and  C_15
REMARK    9  A    between atoms: C_18  and  O_19
REMARK   10  A    between atoms: O_19  and  C_20
REMARK   11  A    between atoms: C_23  and  C_24
REMARK                            x       y       z     vdW  Elec       q    Type
REMARK                         _______ _______ _______ _____ _____    ______ ____
ROOT
ATOM      1  N   UNL     1       7.144   5.460  13.975  0.00  0.00    +0.000 N 
ATOM      2  C   UNL     1       6.148   5.278  14.933  0.00  0.00    +0.000 C 
ATOM      3  O   UNL     1       5.649   4.176  15.132  0.00  0.00    +0.000 OA
ATOM      4  N   UNL     1       5.806   6.456  15.551  0.00  0.00    +0.000 N 
ATOM      5  C   UNL     1       4.843   6.480  16.528  0.00  0.00    +0.000 A 
ATOM      6  N   UNL     1       4.361   5.483  17.217  0.00  0.00    +0.000 NA
ATOM      7  C   UNL     1       3.334   5.919  18.045  0.00  0.00    +0.000 A 
ATOM      8  C   UNL     1       3.095   7.297  18.022  0.00  0.00    +0.000 A 
ATOM      9  S   UNL     1       4.219   8.012  16.899  0.00  0.00    +0.000 S 
ATOM     10  H   UNL     1       7.863   6.109  14.243  0.00  0.00    +0.000 HD
ATOM     11  H   UNL     1       6.025   7.328  15.092  0.00  0.00    +0.000 HD
ENDROOT
BRANCH   8  12
ATOM     12  C   UNL     1       2.145   8.163  18.760  0.00  0.00    +0.000 A 
ATOM     13  C   UNL     1       1.878   7.945  20.123  0.00  0.00    +0.000 A 
ATOM     14  C   UNL     1       0.914   8.694  20.810  0.00  0.00    +0.000 A 
ATOM     15  C   UNL     1       0.249   9.724  20.158  0.00  0.00    +0.000 A 
ATOM     16 CL   UNL     1      -0.908  10.670  21.009  0.00  0.00    +0.000 Cl
ATOM     17  C   UNL     1       0.524   9.995  18.822  0.00  0.00    +0.000 A 
ATOM     18  C   UNL     1       1.452   9.210  18.125  0.00  0.00    +0.000 A 
ENDBRANCH   8  12
BRANCH   7  19
ATOM     19  C   UNL     1       2.635   4.927  18.863  0.00  0.00    +0.000 A 
ATOM     20  C   UNL     1       3.043   4.717  20.186  0.00  0.00    +0.000 A 
ATOM     21  C   UNL     1       2.357   3.815  21.007  0.00  0.00    +0.000 A 
ATOM     22  C   UNL     1       1.241   3.129  20.530  0.00  0.00    +0.000 A 
ATOM     23  C   UNL     1       0.851   3.302  19.204  0.00  0.00    +0.000 A 
ATOM     24  C   UNL     1       1.564   4.170  18.368  0.00  0.00    +0.000 A 
BRANCH  22  25
ATOM     25  O   UNL     1       0.642   2.287  21.426  0.00  0.00    +0.000 OA
ATOM     26  C   UNL     1       1.231   2.235  22.720  0.00  0.00    +0.000 C 
ENDBRANCH  22  25
ENDBRANCH   7  19
BRANCH   1  27
ATOM     27  C   UNL     1       7.563   4.275  13.247  0.00  0.00    +0.000 C 
BRANCH  27  28
ATOM     28  C   UNL     1       6.770   4.022  11.966  0.00  0.00    +0.000 C 
BRANCH  28  29
ATOM     29  C   UNL     1       5.573   3.105  12.255  0.00  0.00    +0.000 C 
BRANCH  29  30
ATOM     30  C   UNL     1       4.804   2.731  10.986  0.00  0.00    +0.000 C 
BRANCH  30  31
ATOM     31  C   UNL     1       3.467   3.476  10.898  0.00  0.00    +0.000 C 
BRANCH  31  33
ATOM     32  C   UNL     1       2.350   4.996   9.214  0.00  0.00    +0.000 C 
ATOM     33  C   UNL     1       3.019   3.649   9.446  0.00  0.00    +0.000 C 
ENDBRANCH  31  33
ENDBRANCH  30  31
ENDBRANCH  29  30
ENDBRANCH  28  29
ENDBRANCH  27  28
ENDBRANCH   1  27
TORSDOF 9
ENDMDL
MODEL 5
REMARK VINA RESULT:      -6.7      0.814      1.236
REMARK  Name = 
REMARK  11 active torsions:
REMARK  status: ('A' for Active; 'I' for Inactive)
REMARK    1  A    between atoms: C_1  and  C_2
REMARK    2  A    between atoms: C_2  and  C_3
REMARK    3  A    between atoms: C_3  and  C_4
REMARK    4  A    between atoms: C_4  and  C_5
REMARK    5  A    between atoms: C_5  and  C_6
REMARK    6  A    between atoms: C_6  and  C_7
REMARK    7  A    between atoms: C_7  and  N_8
REMARK    8  A    between atoms: C_14  and  C_15
REMARK    9  A    between atoms: C_18  and  O_19
REMARK   10  A    between atoms: O_19  and  C_20
REMARK   11  A    between atoms: C_23  and  C_24
REMARK                            x       y       z     vdW  Elec       q    Type
REMARK                         _______ _______ _______ _____ _____    ______ ____
ROOT
ATOM      1  N   UNL     1       3.407   6.102  19.917  0.00  0.00    +0.000 N 
ATOM      2  C   UNL     1       2.436   7.074  19.686  0.00  0.00    +0.000 C 
ATOM      3  O   UNL     1       2.035   7.318  18.555  0.00  0.00    +0.000 OA
ATOM      4  N   UNL     1       2.052   7.704  20.845  0.00  0.00    +0.000 N 
ATOM      5  C   UNL     1       1.100   8.692  20.823  0.00  0.00    +0.000 A 
ATOM      6  N   UNL     1       0.238   8.967  19.884  0.00  0.00    +0.000 NA
ATOM      7  C   UNL     1      -0.489  10.104  20.214  0.00  0.00    +0.000 A 
ATOM      8  C   UNL     1      -0.205  10.650  21.470  0.00  0.00    +0.000 A 
ATOM      9  S   UNL     1       1.028   9.665  22.209  0.00  0.00    +0.000 S 
ATOM     10  H   UNL     1       3.263   5.562  20.753  0.00  0.00    +0.000 HD
ATOM     11  H   UNL     1       2.667   7.667  21.645  0.00  0.00    +0.000 HD
ENDROOT
BRANCH   8  12
ATOM     12  C   UNL     1      -0.763  11.805  22.211  0.00  0.00    +0.000 A 
ATOM     13  C   UNL     1      -1.904  11.662  23.022  0.00  0.00    +0.000 A 
ATOM     14  C   UNL     1      -2.498  12.761  23.652  0.00  0.00    +0.000 A 
ATOM     15  C   UNL     1      -1.916  14.018  23.539  0.00  0.00    +0.000 A 
ATOM     16 CL   UNL     1      -2.623  15.364  24.343  0.00  0.00    +0.000 Cl
ATOM     17  C   UNL     1      -0.762  14.185  22.782  0.00  0.00    +0.000 A 
ATOM     18  C   UNL     1      -0.200  13.090  22.111  0.00  0.00    +0.000 A 
ENDBRANCH   8  12
BRANCH   7  19
ATOM     19  C   UNL     1      -1.477  10.598  19.253  0.00  0.00    +0.000 A 
ATOM     20  C   UNL     1      -1.503  10.063  17.958  0.00  0.00    +0.000 A 
ATOM     21  C   UNL     1      -2.472  10.477  17.037  0.00  0.00    +0.000 A 
ATOM     22  C   UNL     1      -3.443  11.409  17.400  0.00  0.00    +0.000 A 
ATOM     23  C   UNL     1      -3.401  11.976  18.672  0.00  0.00    +0.000 A 
ATOM     24  C   UNL     1      -2.404  11.596  19.580  0.00  0.00    +0.000 A 
BRANCH  22  25
ATOM     25  O   UNL     1      -4.347  11.726  16.424  0.00  0.00    +0.000 OA
ATOM     26  C   UNL     1      -5.581  12.273  16.873  0.00  0.00    +0.000 C 
ENDBRANCH  22  25
ENDBRANCH   7  19
BRANCH   1  27
ATOM     27  C   UNL     1       3.897   5.389  18.749  0.00  0.00    +0.000 C 
BRANCH  27  28
ATOM     28  C   UNL     1       2.855   4.485  18.093  0.00  0.00    +0.000 C 
BRANCH  28  29
ATOM     29  C   UNL     1       3.454   3.099  17.813  0.00  0.00    +0.000 C 
BRANCH  29  30
ATOM     30  C   UNL     1       3.132   2.089  18.916  0.00  0.00    +0.000 C 
BRANCH  30  31
ATOM     31  C   UNL     1       3.821   2.457  20.235  0.00  0.00    +0.000 C 
BRANCH  31  33
ATOM     32  C   UNL     1       1.492   3.003  21.054  0.00  0.00    +0.000 C 
ATOM     33  C   UNL     1       2.843   2.401  21.410  0.00  0.00    +0.000 C 
ENDBRANCH  31  33
ENDBRANCH  30  31
ENDBRANCH  29  30
ENDBRANCH  28  29
ENDBRANCH  27  28
ENDBRANCH   1  27
TORSDOF 9
ENDMDL
MODEL 6
REMARK VINA RESULT:      -6.5      3.192      5.494
REMARK  Name = 
REMARK  11 active torsions:
REMARK  status: ('A' for Active; 'I' for Inactive)
REMARK    1  A    between atoms: C_1  and  C_2
REMARK    2  A    between atoms: C_2  and  C_3
REMARK    3  A    between atoms: C_3  and  C_4
REMARK    4  A    between atoms: C_4  and  C_5
REMARK    5  A    between atoms: C_5  and  C_6
REMARK    6  A    between atoms: C_6  and  C_7
REMARK    7  A    between atoms: C_7  and  N_8
REMARK    8  A    between atoms: C_14  and  C_15
REMARK    9  A    between atoms: C_18  and  O_19
REMARK   10  A    between atoms: O_19  and  C_20
REMARK   11  A    between atoms: C_23  and  C_24
REMARK                            x       y       z     vdW  Elec       q    Type
REMARK                         _______ _______ _______ _____ _____    ______ ____
ROOT
ATOM      1  N   UNL     1       2.588   7.770  17.412  0.00  0.00    +0.000 N 
ATOM      2  C   UNL     1       1.822   8.643  18.182  0.00  0.00    +0.000 C 
ATOM      3  O   UNL     1       2.120   8.897  19.343  0.00  0.00    +0.000 OA
ATOM      4  N   UNL     1       0.730   9.113  17.495  0.00  0.00    +0.000 N 
ATOM      5  C   UNL     1      -0.145   9.989  18.086  0.00  0.00    +0.000 A 
ATOM      6  N   UNL     1       0.033  10.720  19.151  0.00  0.00    +0.000 NA
ATOM      7  C   UNL     1      -1.134  11.403  19.469  0.00  0.00    +0.000 A 
ATOM      8  C   UNL     1      -2.191  11.229  18.570  0.00  0.00    +0.000 A 
ATOM      9  S   UNL     1      -1.645  10.154  17.312  0.00  0.00    +0.000 S 
ATOM     10  H   UNL     1       2.685   8.042  16.449  0.00  0.00    +0.000 HD
ATOM     11  H   UNL     1       0.401   8.597  16.692  0.00  0.00    +0.000 HD
ENDROOT
BRANCH   8  12
ATOM     12  C   UNL     1      -3.561  11.790  18.512  0.00  0.00    +0.000 A 
ATOM     13  C   UNL     1      -4.146  12.389  19.642  0.00  0.00    +0.000 A 
ATOM     14  C   UNL     1      -5.472  12.838  19.630  0.00  0.00    +0.000 A 
ATOM     15  C   UNL     1      -6.215  12.758  18.459  0.00  0.00    +0.000 A 
ATOM     16 CL   UNL     1      -7.833  13.344  18.430  0.00  0.00    +0.000 Cl
ATOM     17  C   UNL     1      -5.651  12.213  17.311  0.00  0.00    +0.000 A 
ATOM     18  C   UNL     1      -4.340  11.718  17.343  0.00  0.00    +0.000 A 
ENDBRANCH   8  12
BRANCH   7  19
ATOM     19  C   UNL     1      -1.140  12.241  20.669  0.00  0.00    +0.000 A 
ATOM     20  C   UNL     1      -1.389  11.655  21.917  0.00  0.00    +0.000 A 
ATOM     21  C   UNL     1      -1.346  12.423  23.086  0.00  0.00    +0.000 A 
ATOM     22  C   UNL     1      -1.030  13.780  23.031  0.00  0.00    +0.000 A 
ATOM     23  C   UNL     1      -0.820  14.382  21.792  0.00  0.00    +0.000 A 
ATOM     24  C   UNL     1      -0.908  13.622  20.618  0.00  0.00    +0.000 A 
BRANCH  22  25
ATOM     25  O   UNL     1      -1.003  14.425  24.237  0.00  0.00    +0.000 OA
ATOM     26  C   UNL     1      -2.141  15.224  24.541  0.00  0.00    +0.000 C 
ENDBRANCH  22  25
ENDBRANCH   7  19
BRANCH   1  27
ATOM     27  C   UNL     1       3.759   7.199  18.056  0.00  0.00    +0.000 C 
BRANCH  27  28
ATOM     28  C   UNL     1       4.368   6.020  17.299  0.00  0.00    +0.000 C 
BRANCH  28  29
ATOM     29  C   UNL     1       5.780   6.375  16.810  0.00  0.00    +0.000 C 
BRANCH  29  30
ATOM     30  C   UNL     1       6.873   5.786  17.705  0.00  0.00    +0.000 C 
BRANCH  30  31
ATOM     31  C   UNL     1       7.763   6.882  18.302  0.00  0.00    +0.000 C 
BRANCH  31  33
ATOM     32  C   UNL     1       8.355   9.338  18.186  0.00  0.00    +0.000 C 
ATOM     33  C   UNL     1       7.708   8.163  17.467  0.00  0.00    +0.000 C 
ENDBRANCH  31  33
ENDBRANCH  30  31
ENDBRANCH  29  30
ENDBRANCH  28  29
ENDBRANCH  27  28
ENDBRANCH   1  27
TORSDOF 9
ENDMDL
MODEL 7
REMARK VINA RESULT:      -6.5      1.642      2.948
REMARK  Name = 
REMARK  11 active torsions:
REMARK  status: ('A' for Active; 'I' for Inactive)
REMARK    1  A    between atoms: C_1  and  C_2
REMARK    2  A    between atoms: C_2  and  C_3
REMARK    3  A    between atoms: C_3  and  C_4
REMARK    4  A    between atoms: C_4  and  C_5
REMARK    5  A    between atoms: C_5  and  C_6
REMARK    6  A    between atoms: C_6  and  C_7
REMARK    7  A    between atoms: C_7  and  N_8
REMARK    8  A    between atoms: C_14  and  C_15
REMARK    9  A    between atoms: C_18  and  O_19
REMARK   10  A    between atoms: O_19  and  C_20
REMARK   11  A    between atoms: C_23  and  C_24
REMARK                            x       y       z     vdW  Elec       q    Type
REMARK                         _______ _______ _______ _____ _____    ______ ____
ROOT
ATOM      1  N   UNL     1       3.481   5.472  20.073  0.00  0.00    +0.000 N 
ATOM      2  C   UNL     1       2.577   6.482  19.752  0.00  0.00    +0.000 C 
ATOM      3  O   UNL     1       2.215   6.669  18.597  0.00  0.00    +0.000 OA
ATOM      4  N   UNL     1       2.211   7.216  20.854  0.00  0.00    +0.000 N 
ATOM      5  C   UNL     1       1.324   8.256  20.740  0.00  0.00    +0.000 A 
ATOM      6  N   UNL     1       0.499   8.515  19.763  0.00  0.00    +0.000 NA
ATOM      7  C   UNL     1      -0.162   9.715  19.995  0.00  0.00    +0.000 A 
ATOM      8  C   UNL     1       0.130  10.330  21.216  0.00  0.00    +0.000 A 
ATOM      9  S   UNL     1       1.285   9.328  22.052  0.00  0.00    +0.000 S 
ATOM     10  H   UNL     1       3.288   5.003  20.941  0.00  0.00    +0.000 HD
ATOM     11  H   UNL     1       2.806   7.199  21.670  0.00  0.00    +0.000 HD
ENDROOT
BRANCH   8  12
ATOM     12  C   UNL     1      -0.369  11.568  21.861  0.00  0.00    +0.000 A 
ATOM     13  C   UNL     1      -1.444  11.528  22.767  0.00  0.00    +0.000 A 
ATOM     14  C   UNL     1      -1.987  12.697  23.311  0.00  0.00    +0.000 A 
ATOM     15  C   UNL     1      -1.416  13.927  23.011  0.00  0.00    +0.000 A 
ATOM     16 CL   UNL     1      -2.058  15.363  23.708  0.00  0.00    +0.000 Cl
ATOM     17  C   UNL     1      -0.323  13.997  22.154  0.00  0.00    +0.000 A 
ATOM     18  C   UNL     1       0.185  12.828  21.572  0.00  0.00    +0.000 A 
ENDBRANCH   8  12
BRANCH   7  19
ATOM     19  C   UNL     1      -1.098  10.198  18.978  0.00  0.00    +0.000 A 
ATOM     20  C   UNL     1      -0.853  11.423  18.345  0.00  0.00    +0.000 A 
ATOM     21  C   UNL     1      -1.701  11.882  17.331  0.00  0.00    +0.000 A 
ATOM     22  C   UNL     1      -2.790  11.115  16.916  0.00  0.00    +0.000 A 
ATOM     23  C   UNL     1      -3.065   9.914  17.567  0.00  0.00    +0.000 A 
ATOM     24  C   UNL     1      -2.242   9.476  18.613  0.00  0.00    +0.000 A 
BRANCH  22  25
ATOM     25  O   UNL     1      -3.539  11.656  15.908  0.00  0.00    +0.000 OA
ATOM     26  C   UNL     1      -3.853  10.783  14.829  0.00  0.00    +0.000 C 
ENDBRANCH  22  25
ENDBRANCH   7  19
BRANCH   1  27
ATOM     27  C   UNL     1       3.949   4.649  18.971  0.00  0.00    +0.000 C 
BRANCH  27  28
ATOM     28  C   UNL     1       5.457   4.405  18.977  0.00  0.00    +0.000 C 
BRANCH  28  29
ATOM     29  C   UNL     1       6.212   5.742  18.959  0.00  0.00    +0.000 C 
BRANCH  29  30
ATOM     30  C   UNL     1       7.183   5.849  17.782  0.00  0.00    +0.000 C 
BRANCH  30  31
ATOM     31  C   UNL     1       7.304   4.520  17.028  0.00  0.00    +0.000 C 
BRANCH  31  33
ATOM     32  C   UNL     1       5.687   5.503  15.353  0.00  0.00    +0.000 C 
ATOM     33  C   UNL     1       6.953   4.682  15.549  0.00  0.00    +0.000 C 
ENDBRANCH  31  33
ENDBRANCH  30  31
ENDBRANCH  29  30
ENDBRANCH  28  29
ENDBRANCH  27  28
ENDBRANCH   1  27
TORSDOF 9
ENDMDL
MODEL 8
REMARK VINA RESULT:      -6.5      1.699      2.705
REMARK  Name = 
REMARK  11 active torsions:
REMARK  status: ('A' for Active; 'I' for Inactive)
REMARK    1  A    between atoms: C_1  and  C_2
REMARK    2  A    between atoms: C_2  and  C_3
REMARK    3  A    between atoms: C_3  and  C_4
REMARK    4  A    between atoms: C_4  and  C_5
REMARK    5  A    between atoms: C_5  and  C_6
REMARK    6  A    between atoms: C_6  and  C_7
REMARK    7  A    between atoms: C_7  and  N_8
REMARK    8  A    between atoms: C_14  and  C_15
REMARK    9  A    between atoms: C_18  and  O_19
REMARK   10  A    between atoms: O_19  and  C_20
REMARK   11  A    between atoms: C_23  and  C_24
REMARK                            x       y       z     vdW  Elec       q    Type
REMARK                         _______ _______ _______ _____ _____    ______ ____
ROOT
ATOM      1  N   UNL     1       3.121   5.679  20.328  0.00  0.00    +0.000 N 
ATOM      2  C   UNL     1       2.246   6.712  19.997  0.00  0.00    +0.000 C 
ATOM      3  O   UNL     1       1.811   6.837  18.858  0.00  0.00    +0.000 OA
ATOM      4  N   UNL     1       1.995   7.538  21.066  0.00  0.00    +0.000 N 
ATOM      5  C   UNL     1       1.153   8.613  20.936  0.00  0.00    +0.000 A 
ATOM      6  N   UNL     1       0.274   8.848  20.002  0.00  0.00    +0.000 NA
ATOM      7  C   UNL     1      -0.311  10.094  20.191  0.00  0.00    +0.000 A 
ATOM      8  C   UNL     1       0.097  10.775  21.342  0.00  0.00    +0.000 A 
ATOM      9  S   UNL     1       1.260   9.774  22.168  0.00  0.00    +0.000 S 
ATOM     10  H   UNL     1       2.969   5.282  21.239  0.00  0.00    +0.000 HD
ATOM     11  H   UNL     1       2.646   7.546  21.837  0.00  0.00    +0.000 HD
ENDROOT
BRANCH   8  12
ATOM     12  C   UNL     1      -0.295  12.079  21.928  0.00  0.00    +0.000 A 
ATOM     13  C   UNL     1       0.324  13.273  21.516  0.00  0.00    +0.000 A 
ATOM     14  C   UNL     1       0.033  14.498  22.126  0.00  0.00    +0.000 A 
ATOM     15  C   UNL     1      -0.939  14.561  23.116  0.00  0.00    +0.000 A 
ATOM     16 CL   UNL     1      -1.326  16.071  23.842  0.00  0.00    +0.000 Cl
ATOM     17  C   UNL     1      -1.602  13.405  23.515  0.00  0.00    +0.000 A 
ATOM     18  C   UNL     1      -1.270  12.173  22.937  0.00  0.00    +0.000 A 
ENDBRANCH   8  12
BRANCH   7  19
ATOM     19  C   UNL     1      -1.293  10.554  19.208  0.00  0.00    +0.000 A 
ATOM     20  C   UNL     1      -1.209  10.097  17.886  0.00  0.00    +0.000 A 
ATOM     21  C   UNL     1      -2.167  10.477  16.940  0.00  0.00    +0.000 A 
ATOM     22  C   UNL     1      -3.235  11.297  17.302  0.00  0.00    +0.000 A 
ATOM     23  C   UNL     1      -3.305  11.790  18.604  0.00  0.00    +0.000 A 
ATOM     24  C   UNL     1      -2.322  11.446  19.540  0.00  0.00    +0.000 A 
BRANCH  22  25
ATOM     25  O   UNL     1      -4.117  11.590  16.299  0.00  0.00    +0.000 OA
ATOM     26  C   UNL     1      -5.379  12.102  16.710  0.00  0.00    +0.000 C 
ENDBRANCH  22  25
ENDBRANCH   7  19
BRANCH   1  27
ATOM     27  C   UNL     1       3.469   4.759  19.259  0.00  0.00    +0.000 C 
BRANCH  27  28
ATOM     28  C   UNL     1       4.843   5.017  18.642  0.00  0.00    +0.000 C 
BRANCH  28  29
ATOM     29  C   UNL     1       4.693   5.515  17.197  0.00  0.00    +0.000 C 
BRANCH  29  30
ATOM     30  C   UNL     1       4.892   4.397  16.171  0.00  0.00    +0.000 C 
BRANCH  30  31
ATOM     31  C   UNL     1       6.286   4.457  15.536  0.00  0.00    +0.000 C 
BRANCH  31  33
ATOM     32  C   UNL     1       7.203   4.729  13.196  0.00  0.00    +0.000 C 
ATOM     33  C   UNL     1       6.267   3.938  14.098  0.00  0.00    +0.000 C 
ENDBRANCH  31  33
ENDBRANCH  30  31
ENDBRANCH  29  30
ENDBRANCH  28  29
ENDBRANCH  27  28
ENDBRANCH   1  27
TORSDOF 9
ENDMDL
MODEL 9
REMARK VINA RESULT:      -6.5      1.266      2.159
REMARK  Name = 
REMARK  11 active torsions:
REMARK  status: ('A' for Active; 'I' for Inactive)
REMARK    1  A    between atoms: C_1  and  C_2
REMARK    2  A    between atoms: C_2  and  C_3
REMARK    3  A    between atoms: C_3  and  C_4
REMARK    4  A    between atoms: C_4  and  C_5
REMARK    5  A    between atoms: C_5  and  C_6
REMARK    6  A    between atoms: C_6  and  C_7
REMARK    7  A    between atoms: C_7  and  N_8
REMARK    8  A    between atoms: C_14  and  C_15
REMARK    9  A    between atoms: C_18  and  O_19
REMARK   10  A    between atoms: O_19  and  C_20
REMARK   11  A    between atoms: C_23  and  C_24
REMARK                            x       y       z     vdW  Elec       q    Type
REMARK                         _______ _______ _______ _____ _____    ______ ____
ROOT
ATOM      1  N   UNL     1       3.015   5.430  20.612  0.00  0.00    +0.000 N 
ATOM      2  C   UNL     1       2.196   6.481  20.204  0.00  0.00    +0.000 C 
ATOM      3  O   UNL     1       1.884   6.625  19.028  0.00  0.00    +0.000 OA
ATOM      4  N   UNL     1       1.848   7.300  21.251  0.00  0.00    +0.000 N 
ATOM      5  C   UNL     1       1.041   8.391  21.048  0.00  0.00    +0.000 A 
ATOM      6  N   UNL     1       0.268   8.650  20.030  0.00  0.00    +0.000 NA
ATOM      7  C   UNL     1      -0.313   9.904  20.172  0.00  0.00    +0.000 A 
ATOM      8  C   UNL     1      -0.017  10.567  21.367  0.00  0.00    +0.000 A 
ATOM      9  S   UNL     1       1.037   9.537  22.297  0.00  0.00    +0.000 S 
ATOM     10  H   UNL     1       2.762   5.027  21.498  0.00  0.00    +0.000 HD
ATOM     11  H   UNL     1       2.415   7.289  22.086  0.00  0.00    +0.000 HD
ENDROOT
BRANCH   8  12
ATOM     12  C   UNL     1      -0.447  11.871  21.925  0.00  0.00    +0.000 A 
ATOM     13  C   UNL     1       0.187  13.066  21.540  0.00  0.00    +0.000 A 
ATOM     14  C   UNL     1      -0.144  14.292  22.127  0.00  0.00    +0.000 A 
ATOM     15  C   UNL     1      -1.168  14.354  23.064  0.00  0.00    +0.000 A 
ATOM     16 CL   UNL     1      -1.602  15.866  23.760  0.00  0.00    +0.000 Cl
ATOM     17  C   UNL     1      -1.845  13.197  23.432  0.00  0.00    +0.000 A 
ATOM     18  C   UNL     1      -1.476  11.964  22.879  0.00  0.00    +0.000 A 
ENDBRANCH   8  12
BRANCH   7  19
ATOM     19  C   UNL     1      -1.181  10.391  19.098  0.00  0.00    +0.000 A 
ATOM     20  C   UNL     1      -1.068   9.833  17.817  0.00  0.00    +0.000 A 
ATOM     21  C   UNL     1      -1.922  10.240  16.787  0.00  0.00    +0.000 A 
ATOM     22  C   UNL     1      -2.916  11.190  17.022  0.00  0.00    +0.000 A 
ATOM     23  C   UNL     1      -3.010  11.780  18.281  0.00  0.00    +0.000 A 
ATOM     24  C   UNL     1      -2.126  11.405  19.301  0.00  0.00    +0.000 A 
BRANCH  22  25
ATOM     25  O   UNL     1      -3.700  11.499  15.945  0.00  0.00    +0.000 OA
ATOM     26  C   UNL     1      -3.648  10.586  14.856  0.00  0.00    +0.000 C 
ENDBRANCH  22  25
ENDBRANCH   7  19
BRANCH   1  27
ATOM     27  C   UNL     1       3.457   4.515  19.574  0.00  0.00    +0.000 C 
BRANCH  27  28
ATOM     28  C   UNL     1       2.707   3.185  19.561  0.00  0.00    +0.000 C 
BRANCH  28  29
ATOM     29  C   UNL     1       2.192   2.879  18.147  0.00  0.00    +0.000 C 
BRANCH  29  30
ATOM     30  C   UNL     1       2.908   3.701  17.073  0.00  0.00    +0.000 C 
BRANCH  30  31
ATOM     31  C   UNL     1       4.326   3.179  16.817  0.00  0.00    +0.000 C 
BRANCH  31  33
ATOM     32  C   UNL     1       6.021   3.938  15.101  0.00  0.00    +0.000 C 
ATOM     33  C   UNL     1       5.262   4.303  16.368  0.00  0.00    +0.000 C 
ENDBRANCH  31  33
ENDBRANCH  30  31
ENDBRANCH  29  30
ENDBRANCH  28  29
ENDBRANCH  27  28
ENDBRANCH   1  27
TORSDOF 9
ENDMDL
