MODEL 1
REMARK VINA RESULT:      -7.6      0.000      0.000
REMARK  Name = 
REMARK  4 active torsions:
REMARK  status: ('A' for Active; 'I' for Inactive)
REMARK    1  A    between atoms: C_1  and  C_2
REMARK    2  A    between atoms: C_7  and  N_8
REMARK    3  A    between atoms: C_13  and  C_14
REMARK    4  A    between atoms: C_17  and  C_18
REMARK                            x       y       z     vdW  Elec       q    Type
REMARK                         _______ _______ _______ _____ _____    ______ ____
ROOT
ATOM      1  N   UNL     1       3.857   4.708  17.995  0.00  0.00    +0.000 N 
ATOM      2  C   UNL     1       3.845   6.120  17.833  0.00  0.00    +0.000 C 
ATOM      3  O   UNL     1       2.850   6.797  17.591  0.00  0.00    +0.000 OA
ATOM      4  C   UNL     1       5.215   6.733  18.093  0.00  0.00    +0.000 C 
ATOM      5  S   UNL     1       6.210   5.375  18.752  0.00  0.00    +0.000 S 
ATOM      6  C   UNL     1       5.214   4.190  17.764  0.00  0.00    +0.000 C 
ENDROOT
BRANCH   1  13
ATOM      7  C   UNL     1       2.313   2.005  17.817  0.00  0.00    +0.000 C 
ATOM      8  C   UNL     1       2.371   2.902  19.017  0.00  0.00    +0.000 A 
ATOM      9  C   UNL     1       1.676   2.436  20.167  0.00  0.00    +0.000 A 
ATOM     10  C   UNL     1       1.578   3.191  21.331  0.00  0.00    +0.000 A 
ATOM     11  C   UNL     1       2.169   4.438  21.373  0.00  0.00    +0.000 A 
ATOM     12  C   UNL     1       2.871   4.905  20.257  0.00  0.00    +0.000 A 
ATOM     13  C   UNL     1       3.026   4.154  19.064  0.00  0.00    +0.000 A 
ENDBRANCH   1  13
BRANCH   6  14
ATOM     14  C   UNL     1       5.662   4.247  16.269  0.00  0.00    +0.000 A 
ATOM     15  C   UNL     1       4.795   3.864  15.223  0.00  0.00    +0.000 A 
ATOM     16  C   UNL     1       5.211   3.823  13.886  0.00  0.00    +0.000 A 
ATOM     17  C   UNL     1       6.504   4.214  13.535  0.00  0.00    +0.000 A 
ATOM     18  C   UNL     1       7.365   4.647  14.555  0.00  0.00    +0.000 A 
ATOM     19  C   UNL     1       6.954   4.661  15.900  0.00  0.00    +0.000 A 
BRANCH  17  20
ATOM     20  C   UNL     1       6.970   4.188  12.095  0.00  0.00    +0.000 C 
ATOM     21  F   UNL     1       7.663   3.063  11.763  0.00  0.00    +0.000 F 
ATOM     22  F   UNL     1       5.932   4.257  11.216  0.00  0.00    +0.000 F 
ATOM     23  F   UNL     1       7.790   5.232  11.788  0.00  0.00    +0.000 F 
ENDBRANCH  17  20
ENDBRANCH   6  14
TORSDOF 3
ENDMDL
MODEL 2
REMARK VINA RESULT:      -7.4      0.188      1.017
REMARK  Name = 
REMARK  4 active torsions:
REMARK  status: ('A' for Active; 'I' for Inactive)
REMARK    1  A    between atoms: C_1  and  C_2
REMARK    2  A    between atoms: C_7  and  N_8
REMARK    3  A    between atoms: C_13  and  C_14
REMARK    4  A    between atoms: C_17  and  C_18
REMARK                            x       y       z     vdW  Elec       q    Type
REMARK                         _______ _______ _______ _____ _____    ______ ____
ROOT
ATOM      1  N   UNL     1       3.938   4.760  17.927  0.00  0.00    +0.000 N 
ATOM      2  C   UNL     1       3.988   6.165  17.726  0.00  0.00    +0.000 C 
ATOM      3  O   UNL     1       3.029   6.875  17.438  0.00  0.00    +0.000 OA
ATOM      4  C   UNL     1       5.376   6.730  18.005  0.00  0.00    +0.000 C 
ATOM      5  S   UNL     1       6.296   5.352  18.729  0.00  0.00    +0.000 S 
ATOM      6  C   UNL     1       5.279   4.181  17.747  0.00  0.00    +0.000 C 
ENDROOT
BRANCH   1  13
ATOM      7  C   UNL     1       2.328   2.092  17.804  0.00  0.00    +0.000 C 
ATOM      8  C   UNL     1       2.372   3.035  18.970  0.00  0.00    +0.000 A 
ATOM      9  C   UNL     1       1.627   2.634  20.113  0.00  0.00    +0.000 A 
ATOM     10  C   UNL     1       1.511   3.437  21.242  0.00  0.00    +0.000 A 
ATOM     11  C   UNL     1       2.134   4.669  21.255  0.00  0.00    +0.000 A 
ATOM     12  C   UNL     1       2.885   5.073  20.145  0.00  0.00    +0.000 A 
ATOM     13  C   UNL     1       3.058   4.271  18.988  0.00  0.00    +0.000 A 
ENDBRANCH   1  13
BRANCH   6  14
ATOM     14  C   UNL     1       5.766   4.176  16.264  0.00  0.00    +0.000 A 
ATOM     15  C   UNL     1       7.040   4.667  15.903  0.00  0.00    +0.000 A 
ATOM     16  C   UNL     1       7.455   4.754  14.568  0.00  0.00    +0.000 A 
ATOM     17  C   UNL     1       6.628   4.304  13.538  0.00  0.00    +0.000 A 
ATOM     18  C   UNL     1       5.378   3.765  13.881  0.00  0.00    +0.000 A 
ATOM     19  C   UNL     1       4.951   3.704  15.220  0.00  0.00    +0.000 A 
BRANCH  17  20
ATOM     20  C   UNL     1       7.063   4.378  12.091  0.00  0.00    +0.000 C 
ATOM     21  F   UNL     1       7.742   3.276  11.664  0.00  0.00    +0.000 F 
ATOM     22  F   UNL     1       6.006   4.515  11.241  0.00  0.00    +0.000 F 
ATOM     23  F   UNL     1       7.883   5.438  11.841  0.00  0.00    +0.000 F 
ENDBRANCH  17  20
ENDBRANCH   6  14
TORSDOF 3
ENDMDL
MODEL 3
REMARK VINA RESULT:      -7.1      4.357      7.247
REMARK  Name = 
REMARK  4 active torsions:
REMARK  status: ('A' for Active; 'I' for Inactive)
REMARK    1  A    between atoms: C_1  and  C_2
REMARK    2  A    between atoms: C_7  and  N_8
REMARK    3  A    between atoms: C_13  and  C_14
REMARK    4  A    between atoms: C_17  and  C_18
REMARK                            x       y       z     vdW  Elec       q    Type
REMARK                         _______ _______ _______ _____ _____    ______ ____
ROOT
ATOM      1  N   UNL     1       6.246   4.814  15.966  0.00  0.00    +0.000 N 
ATOM      2  C   UNL     1       7.246   4.918  16.970  0.00  0.00    +0.000 C 
ATOM      3  O   UNL     1       8.151   4.110  17.155  0.00  0.00    +0.000 OA
ATOM      4  C   UNL     1       7.132   6.220  17.753  0.00  0.00    +0.000 C 
ATOM      5  S   UNL     1       5.892   7.187  16.860  0.00  0.00    +0.000 S 
ATOM      6  C   UNL     1       5.077   5.626  16.339  0.00  0.00    +0.000 C 
ENDROOT
BRANCH   1  13
ATOM      7  C   UNL     1       4.909   3.111  13.722  0.00  0.00    +0.000 C 
ATOM      8  C   UNL     1       6.066   4.047  13.538  0.00  0.00    +0.000 A 
ATOM      9  C   UNL     1       6.554   4.168  12.208  0.00  0.00    +0.000 A 
ATOM     10  C   UNL     1       7.667   4.939  11.893  0.00  0.00    +0.000 A 
ATOM     11  C   UNL     1       8.328   5.607  12.905  0.00  0.00    +0.000 A 
ATOM     12  C   UNL     1       7.852   5.513  14.217  0.00  0.00    +0.000 A 
ATOM     13  C   UNL     1       6.700   4.767  14.577  0.00  0.00    +0.000 A 
ENDBRANCH   1  13
BRANCH   6  14
ATOM     14  C   UNL     1       4.259   5.037  17.531  0.00  0.00    +0.000 A 
ATOM     15  C   UNL     1       4.077   3.646  17.688  0.00  0.00    +0.000 A 
ATOM     16  C   UNL     1       3.271   3.108  18.699  0.00  0.00    +0.000 A 
ATOM     17  C   UNL     1       2.651   3.943  19.630  0.00  0.00    +0.000 A 
ATOM     18  C   UNL     1       2.861   5.326  19.521  0.00  0.00    +0.000 A 
ATOM     19  C   UNL     1       3.648   5.867  18.489  0.00  0.00    +0.000 A 
BRANCH  17  20
ATOM     20  C   UNL     1       1.785   3.381  20.736  0.00  0.00    +0.000 C 
ATOM     21  F   UNL     1       1.555   2.042  20.628  0.00  0.00    +0.000 F 
ATOM     22  F   UNL     1       2.338   3.563  21.967  0.00  0.00    +0.000 F 
ATOM     23  F   UNL     1       0.554   3.964  20.789  0.00  0.00    +0.000 F 
ENDBRANCH  17  20
ENDBRANCH   6  14
TORSDOF 3
ENDMDL
MODEL 4
REMARK VINA RESULT:      -7.0      4.327      7.247
REMARK  Name = 
REMARK  4 active torsions:
REMARK  status: ('A' for Active; 'I' for Inactive)
REMARK    1  A    between atoms: C_1  and  C_2
REMARK    2  A    between atoms: C_7  and  N_8
REMARK    3  A    between atoms: C_13  and  C_14
REMARK    4  A    between atoms: C_17  and  C_18
REMARK                            x       y       z     vdW  Elec       q    Type
REMARK                         _______ _______ _______ _____ _____    ______ ____
ROOT
ATOM      1  N   UNL     1       6.183   4.775  15.843  0.00  0.00    +0.000 N 
ATOM      2  C   UNL     1       7.131   4.892  16.894  0.00  0.00    +0.000 C 
ATOM      3  O   UNL     1       8.055   4.113  17.106  0.00  0.00    +0.000 OA
ATOM      4  C   UNL     1       6.933   6.172  17.697  0.00  0.00    +0.000 C 
ATOM      5  S   UNL     1       5.702   7.114  16.767  0.00  0.00    +0.000 S 
ATOM      6  C   UNL     1       4.969   5.537  16.176  0.00  0.00    +0.000 C 
ENDROOT
BRANCH   1  13
ATOM      7  C   UNL     1       4.979   3.119  13.490  0.00  0.00    +0.000 C 
ATOM      8  C   UNL     1       6.129   4.076  13.388  0.00  0.00    +0.000 A 
ATOM      9  C   UNL     1       6.677   4.242  12.087  0.00  0.00    +0.000 A 
ATOM     10  C   UNL     1       7.792   5.038  11.847  0.00  0.00    +0.000 A 
ATOM     11  C   UNL     1       8.394   5.685  12.908  0.00  0.00    +0.000 A 
ATOM     12  C   UNL     1       7.859   5.547  14.193  0.00  0.00    +0.000 A 
ATOM     13  C   UNL     1       6.703   4.775  14.476  0.00  0.00    +0.000 A 
ENDBRANCH   1  13
BRANCH   6  14
ATOM     14  C   UNL     1       4.118   4.894  17.316  0.00  0.00    +0.000 A 
ATOM     15  C   UNL     1       3.368   5.684  18.215  0.00  0.00    +0.000 A 
ATOM     16  C   UNL     1       2.674   5.128  19.297  0.00  0.00    +0.000 A 
ATOM     17  C   UNL     1       2.661   3.746  19.495  0.00  0.00    +0.000 A 
ATOM     18  C   UNL     1       3.358   2.940  18.583  0.00  0.00    +0.000 A 
ATOM     19  C   UNL     1       4.078   3.502  17.512  0.00  0.00    +0.000 A 
BRANCH  17  20
ATOM     20  C   UNL     1       1.907   3.125  20.651  0.00  0.00    +0.000 C 
ATOM     21  F   UNL     1       2.623   3.076  21.810  0.00  0.00    +0.000 F 
ATOM     22  F   UNL     1       0.765   3.806  20.948  0.00  0.00    +0.000 F 
ATOM     23  F   UNL     1       1.523   1.842  20.400  0.00  0.00    +0.000 F 
ENDBRANCH  17  20
ENDBRANCH   6  14
TORSDOF 3
ENDMDL
MODEL 5
REMARK VINA RESULT:      -6.9      5.627      7.955
REMARK  Name = 
REMARK  4 active torsions:
REMARK  status: ('A' for Active; 'I' for Inactive)
REMARK    1  A    between atoms: C_1  and  C_2
REMARK    2  A    between atoms: C_7  and  N_8
REMARK    3  A    between atoms: C_13  and  C_14
REMARK    4  A    between atoms: C_17  and  C_18
REMARK                            x       y       z     vdW  Elec       q    Type
REMARK                         _______ _______ _______ _____ _____    ______ ____
ROOT
ATOM      1  N   UNL     1       2.956   5.512  17.915  0.00  0.00    +0.000 N 
ATOM      2  C   UNL     1       1.775   4.730  18.020  0.00  0.00    +0.000 C 
ATOM      3  O   UNL     1       1.057   4.399  17.081  0.00  0.00    +0.000 OA
ATOM      4  C   UNL     1       1.536   4.251  19.447  0.00  0.00    +0.000 C 
ATOM      5  S   UNL     1       3.042   4.700  20.341  0.00  0.00    +0.000 S 
ATOM      6  C   UNL     1       3.263   6.132  19.214  0.00  0.00    +0.000 C 
ENDROOT
BRANCH   1  13
ATOM      7  C   UNL     1       4.843   7.256  16.146  0.00  0.00    +0.000 C 
ATOM      8  C   UNL     1       4.931   5.769  16.318  0.00  0.00    +0.000 A 
ATOM      9  C   UNL     1       5.997   5.132  15.624  0.00  0.00    +0.000 A 
ATOM     10  C   UNL     1       6.163   3.752  15.626  0.00  0.00    +0.000 A 
ATOM     11  C   UNL     1       5.262   2.968  16.320  0.00  0.00    +0.000 A 
ATOM     12  C   UNL     1       4.218   3.579  17.022  0.00  0.00    +0.000 A 
ATOM     13  C   UNL     1       4.031   4.984  17.076  0.00  0.00    +0.000 A 
ENDBRANCH   1  13
BRANCH   6  14
ATOM     14  C   UNL     1       2.275   7.273  19.614  0.00  0.00    +0.000 A 
ATOM     15  C   UNL     1       1.948   8.315  18.719  0.00  0.00    +0.000 A 
ATOM     16  C   UNL     1       1.136   9.393  19.094  0.00  0.00    +0.000 A 
ATOM     17  C   UNL     1       0.574   9.446  20.371  0.00  0.00    +0.000 A 
ATOM     18  C   UNL     1       0.846   8.393  21.257  0.00  0.00    +0.000 A 
ATOM     19  C   UNL     1       1.685   7.325  20.889  0.00  0.00    +0.000 A 
BRANCH  17  20
ATOM     20  C   UNL     1      -0.315  10.596  20.792  0.00  0.00    +0.000 C 
ATOM     21  F   UNL     1       0.350  11.774  20.951  0.00  0.00    +0.000 F 
ATOM     22  F   UNL     1      -1.299  10.846  19.884  0.00  0.00    +0.000 F 
ATOM     23  F   UNL     1      -0.948  10.365  21.976  0.00  0.00    +0.000 F 
ENDBRANCH  17  20
ENDBRANCH   6  14
TORSDOF 3
ENDMDL
MODEL 6
REMARK VINA RESULT:      -6.9      5.628      7.841
REMARK  Name = 
REMARK  4 active torsions:
REMARK  status: ('A' for Active; 'I' for Inactive)
REMARK    1  A    between atoms: C_1  and  C_2
REMARK    2  A    between atoms: C_7  and  N_8
REMARK    3  A    between atoms: C_13  and  C_14
REMARK    4  A    between atoms: C_17  and  C_18
REMARK                            x       y       z     vdW  Elec       q    Type
REMARK                         _______ _______ _______ _____ _____    ______ ____
ROOT
ATOM      1  N   UNL     1       2.978   5.563  17.923  0.00  0.00    +0.000 N 
ATOM      2  C   UNL     1       1.798   4.778  18.011  0.00  0.00    +0.000 C 
ATOM      3  O   UNL     1       1.103   4.433  17.060  0.00  0.00    +0.000 OA
ATOM      4  C   UNL     1       1.527   4.316  19.438  0.00  0.00    +0.000 C 
ATOM      5  S   UNL     1       3.011   4.782  20.361  0.00  0.00    +0.000 S 
ATOM      6  C   UNL     1       3.253   6.201  19.221  0.00  0.00    +0.000 C 
ENDROOT
BRANCH   1  13
ATOM      7  C   UNL     1       3.805   2.558  17.825  0.00  0.00    +0.000 C 
ATOM      8  C   UNL     1       4.419   3.661  17.016  0.00  0.00    +0.000 A 
ATOM      9  C   UNL     1       5.444   3.265  16.115  0.00  0.00    +0.000 A 
ATOM     10  C   UNL     1       6.158   4.183  15.353  0.00  0.00    +0.000 A 
ATOM     11  C   UNL     1       5.867   5.527  15.477  0.00  0.00    +0.000 A 
ATOM     12  C   UNL     1       4.850   5.934  16.347  0.00  0.00    +0.000 A 
ATOM     13  C   UNL     1       4.074   5.029  17.116  0.00  0.00    +0.000 A 
ENDBRANCH   1  13
BRANCH   6  14
ATOM     14  C   UNL     1       2.252   7.343  19.584  0.00  0.00    +0.000 A 
ATOM     15  C   UNL     1       1.940   8.371  18.668  0.00  0.00    +0.000 A 
ATOM     16  C   UNL     1       1.115   9.450  19.010  0.00  0.00    +0.000 A 
ATOM     17  C   UNL     1       0.526   9.518  20.274  0.00  0.00    +0.000 A 
ATOM     18  C   UNL     1       0.783   8.479  21.180  0.00  0.00    +0.000 A 
ATOM     19  C   UNL     1       1.633   7.410  20.845  0.00  0.00    +0.000 A 
BRANCH  17  20
ATOM     20  C   UNL     1      -0.377  10.670  20.659  0.00  0.00    +0.000 C 
ATOM     21  F   UNL     1       0.258  11.875  20.704  0.00  0.00    +0.000 F 
ATOM     22  F   UNL     1      -1.412  10.828  19.788  0.00  0.00    +0.000 F 
ATOM     23  F   UNL     1      -0.944  10.505  21.887  0.00  0.00    +0.000 F 
ENDBRANCH  17  20
ENDBRANCH   6  14
TORSDOF 3
ENDMDL
MODEL 7
REMARK VINA RESULT:      -6.7      6.899      8.211
REMARK  Name = 
REMARK  4 active torsions:
REMARK  status: ('A' for Active; 'I' for Inactive)
REMARK    1  A    between atoms: C_1  and  C_2
REMARK    2  A    between atoms: C_7  and  N_8
REMARK    3  A    between atoms: C_13  and  C_14
REMARK    4  A    between atoms: C_17  and  C_18
REMARK                            x       y       z     vdW  Elec       q    Type
REMARK                         _______ _______ _______ _____ _____    ______ ____
ROOT
ATOM      1  N   UNL     1      -0.583  11.004  19.173  0.00  0.00    +0.000 N 
ATOM      2  C   UNL     1       0.442  11.983  19.263  0.00  0.00    +0.000 C 
ATOM      3  O   UNL     1       0.650  12.871  18.440  0.00  0.00    +0.000 OA
ATOM      4  C   UNL     1       1.219  11.874  20.569  0.00  0.00    +0.000 C 
ATOM      5  S   UNL     1       0.297  10.670  21.553  0.00  0.00    +0.000 S 
ATOM      6  C   UNL     1      -0.238   9.841  20.005  0.00  0.00    +0.000 C 
ENDROOT
BRANCH   1  13
ATOM      7  C   UNL     1      -2.658  10.179  16.995  0.00  0.00    +0.000 C 
ATOM      8  C   UNL     1      -2.929  11.074  18.168  0.00  0.00    +0.000 A 
ATOM      9  C   UNL     1      -4.265  11.548  18.284  0.00  0.00    +0.000 A 
ATOM     10  C   UNL     1      -4.650  12.443  19.275  0.00  0.00    +0.000 A 
ATOM     11  C   UNL     1      -3.705  12.896  20.175  0.00  0.00    +0.000 A 
ATOM     12  C   UNL     1      -2.390  12.428  20.086  0.00  0.00    +0.000 A 
ATOM     13  C   UNL     1      -1.962  11.488  19.113  0.00  0.00    +0.000 A 
ENDBRANCH   1  13
BRANCH   6  14
ATOM     14  C   UNL     1       0.937   8.987  19.434  0.00  0.00    +0.000 A 
ATOM     15  C   UNL     1       1.407   9.164  18.114  0.00  0.00    +0.000 A 
ATOM     16  C   UNL     1       2.398   8.344  17.558  0.00  0.00    +0.000 A 
ATOM     17  C   UNL     1       2.998   7.342  18.321  0.00  0.00    +0.000 A 
ATOM     18  C   UNL     1       2.581   7.184  19.652  0.00  0.00    +0.000 A 
ATOM     19  C   UNL     1       1.566   7.989  20.200  0.00  0.00    +0.000 A 
BRANCH  17  20
ATOM     20  C   UNL     1       4.078   6.454  17.744  0.00  0.00    +0.000 C 
ATOM     21  F   UNL     1       4.888   7.086  16.848  0.00  0.00    +0.000 F 
ATOM     22  F   UNL     1       4.905   5.956  18.704  0.00  0.00    +0.000 F 
ATOM     23  F   UNL     1       3.574   5.372  17.087  0.00  0.00    +0.000 F 
ENDBRANCH  17  20
ENDBRANCH   6  14
TORSDOF 3
ENDMDL
MODEL 8
REMARK VINA RESULT:      -6.7      5.575      7.892
REMARK  Name = 
REMARK  4 active torsions:
REMARK  status: ('A' for Active; 'I' for Inactive)
REMARK    1  A    between atoms: C_1  and  C_2
REMARK    2  A    between atoms: C_7  and  N_8
REMARK    3  A    between atoms: C_13  and  C_14
REMARK    4  A    between atoms: C_17  and  C_18
REMARK                            x       y       z     vdW  Elec       q    Type
REMARK                         _______ _______ _______ _____ _____    ______ ____
ROOT
ATOM      1  N   UNL     1       2.996   5.520  17.860  0.00  0.00    +0.000 N 
ATOM      2  C   UNL     1       1.788   4.782  17.977  0.00  0.00    +0.000 C 
ATOM      3  O   UNL     1       1.057   4.466  17.044  0.00  0.00    +0.000 OA
ATOM      4  C   UNL     1       1.536   4.328  19.410  0.00  0.00    +0.000 C 
ATOM      5  S   UNL     1       3.060   4.733  20.295  0.00  0.00    +0.000 S 
ATOM      6  C   UNL     1       3.329   6.144  19.151  0.00  0.00    +0.000 C 
ENDROOT
BRANCH   1  13
ATOM      7  C   UNL     1       4.866   7.165  15.982  0.00  0.00    +0.000 C 
ATOM      8  C   UNL     1       4.942   5.686  16.216  0.00  0.00    +0.000 A 
ATOM      9  C   UNL     1       5.988   5.008  15.530  0.00  0.00    +0.000 A 
ATOM     10  C   UNL     1       6.140   3.627  15.589  0.00  0.00    +0.000 A 
ATOM     11  C   UNL     1       5.245   2.885  16.334  0.00  0.00    +0.000 A 
ATOM     12  C   UNL     1       4.220   3.536  17.029  0.00  0.00    +0.000 A 
ATOM     13  C   UNL     1       4.049   4.944  17.025  0.00  0.00    +0.000 A 
ENDBRANCH   1  13
BRANCH   6  14
ATOM     14  C   UNL     1       2.383   7.323  19.540  0.00  0.00    +0.000 A 
ATOM     15  C   UNL     1       1.799   7.410  20.823  0.00  0.00    +0.000 A 
ATOM     16  C   UNL     1       0.879   8.412  21.157  0.00  0.00    +0.000 A 
ATOM     17  C   UNL     1       0.542   9.401  20.232  0.00  0.00    +0.000 A 
ATOM     18  C   UNL     1       1.151   9.361  18.969  0.00  0.00    +0.000 A 
ATOM     19  C   UNL     1       2.054   8.339  18.625  0.00  0.00    +0.000 A 
BRANCH  17  20
ATOM     20  C   UNL     1      -0.442  10.498  20.577  0.00  0.00    +0.000 C 
ATOM     21  F   UNL     1       0.124  11.735  20.666  0.00  0.00    +0.000 F 
ATOM     22  F   UNL     1      -1.435  10.610  19.652  0.00  0.00    +0.000 F 
ATOM     23  F   UNL     1      -1.065  10.290  21.771  0.00  0.00    +0.000 F 
ENDBRANCH  17  20
ENDBRANCH   6  14
TORSDOF 3
ENDMDL
MODEL 9
REMARK VINA RESULT:      -6.7      5.558      7.739
REMARK  Name = 
REMARK  4 active torsions:
REMARK  status: ('A' for Active; 'I' for Inactive)
REMARK    1  A    between atoms: C_1  and  C_2
REMARK    2  A    between atoms: C_7  and  N_8
REMARK    3  A    between atoms: C_13  and  C_14
REMARK    4  A    between atoms: C_17  and  C_18
REMARK                            x       y       z     vdW  Elec       q    Type
REMARK                         _______ _______ _______ _____ _____    ______ ____
ROOT
ATOM      1  N   UNL     1       3.023   5.625  17.830  0.00  0.00    +0.000 N 
ATOM      2  C   UNL     1       1.826   4.872  17.961  0.00  0.00    +0.000 C 
ATOM      3  O   UNL     1       1.124   4.488  17.031  0.00  0.00    +0.000 OA
ATOM      4  C   UNL     1       1.545   4.500  19.412  0.00  0.00    +0.000 C 
ATOM      5  S   UNL     1       3.038   4.986  20.309  0.00  0.00    +0.000 S 
ATOM      6  C   UNL     1       3.311   6.331  19.089  0.00  0.00    +0.000 C 
ENDROOT
BRANCH   1  13
ATOM      7  C   UNL     1       3.747   2.591  17.865  0.00  0.00    +0.000 C 
ATOM      8  C   UNL     1       4.406   3.639  17.018  0.00  0.00    +0.000 A 
ATOM      9  C   UNL     1       5.426   3.170  16.144  0.00  0.00    +0.000 A 
ATOM     10  C   UNL     1       6.177   4.031  15.352  0.00  0.00    +0.000 A 
ATOM     11  C   UNL     1       5.931   5.389  15.418  0.00  0.00    +0.000 A 
ATOM     12  C   UNL     1       4.921   5.866  16.259  0.00  0.00    +0.000 A 
ATOM     13  C   UNL     1       4.108   5.020  17.057  0.00  0.00    +0.000 A 
ENDBRANCH   1  13
BRANCH   6  14
ATOM     14  C   UNL     1       2.336   7.513  19.383  0.00  0.00    +0.000 A 
ATOM     15  C   UNL     1       1.725   7.671  20.646  0.00  0.00    +0.000 A 
ATOM     16  C   UNL     1       0.778   8.673  20.897  0.00  0.00    +0.000 A 
ATOM     17  C   UNL     1       0.441   9.593  19.904  0.00  0.00    +0.000 A 
ATOM     18  C   UNL     1       1.076   9.485  18.657  0.00  0.00    +0.000 A 
ATOM     19  C   UNL     1       2.006   8.461  18.398  0.00  0.00    +0.000 A 
BRANCH  17  20
ATOM     20  C   UNL     1      -0.570  10.690  20.158  0.00  0.00    +0.000 C 
ATOM     21  F   UNL     1      -1.680  10.607  19.371  0.00  0.00    +0.000 F 
ATOM     22  F   UNL     1      -1.025  10.685  21.442  0.00  0.00    +0.000 F 
ATOM     23  F   UNL     1      -0.060  11.936  19.947  0.00  0.00    +0.000 F 
ENDBRANCH  17  20
ENDBRANCH   6  14
TORSDOF 3
ENDMDL
