MODEL 1
REMARK VINA RESULT:      -7.5      0.000      0.000
REMARK  Name = 
REMARK  6 active torsions:
REMARK  status: ('A' for Active; 'I' for Inactive)
REMARK    1  A    between atoms: C_1  and  O_2
REMARK    2  A    between atoms: O_2  and  C_3
REMARK    3  A    between atoms: C_5  and  C_6
REMARK    4  A    between atoms: C_11  and  C_12
REMARK    5  A    between atoms: C_17  and  O_18
REMARK    6  A    between atoms: O_18  and  C_19
REMARK                            x       y       z     vdW  Elec       q    Type
REMARK                         _______ _______ _______ _____ _____    ______ ____
ROOT
ATOM      1  C   UNL     1       5.112   6.109  16.930  0.00  0.00    +0.000 A 
ATOM      2  C   UNL     1       4.180   6.640  17.841  0.00  0.00    +0.000 A 
ATOM      3  C   UNL     1       3.217   5.835  18.454  0.00  0.00    +0.000 A 
ATOM      4  C   UNL     1       3.102   4.502  18.076  0.00  0.00    +0.000 A 
ATOM      5  C   UNL     1       3.942   4.002  17.073  0.00  0.00    +0.000 A 
ATOM      6  C   UNL     1       4.959   4.790  16.492  0.00  0.00    +0.000 A 
ENDROOT
BRANCH   3   7
ATOM      7  C   UNL     1       2.388   6.467  19.514  0.00  0.00    +0.000 C 
ATOM      8  O   UNL     1       1.824   5.734  20.316  0.00  0.00    +0.000 OA
ATOM      9  N   UNL     1       2.241   7.832  19.414  0.00  0.00    +0.000 N 
ATOM     10  C   UNL     1       1.339   8.503  20.190  0.00  0.00    +0.000 A 
ATOM     11  N   UNL     1       0.939   9.746  20.008  0.00  0.00    +0.000 NA
ATOM     12  C   UNL     1      -0.005   9.891  20.994  0.00  0.00    +0.000 A 
ATOM     13  C   UNL     1      -0.838  11.101  21.137  0.00  0.00    +0.000 C 
ATOM     14  N   UNL     1      -0.159   8.830  21.796  0.00  0.00    +0.000 NA
ATOM     15  O   UNL     1       0.736   7.903  21.260  0.00  0.00    +0.000 OA
ATOM     16  H   UNL     1       2.618   8.346  18.631  0.00  0.00    +0.000 HD
ENDBRANCH   3   7
BRANCH   1  18
ATOM     17  C   UNL     1       7.299   6.870  17.338  0.00  0.00    +0.000 C 
ATOM     18  O   UNL     1       6.153   6.878  16.480  0.00  0.00    +0.000 OA
ENDBRANCH   1  18
BRANCH   6  19
ATOM     19  O   UNL     1       5.646   4.114  15.524  0.00  0.00    +0.000 OA
BRANCH  19  20
ATOM     20  C   UNL     1       5.787   4.604  14.190  0.00  0.00    +0.000 C 
ATOM     21  C   UNL     1       7.241   4.940  13.872  0.00  0.00    +0.000 C 
ATOM     22  C   UNL     1       7.464   4.568  12.414  0.00  0.00    +0.000 C 
ATOM     23  C   UNL     1       6.429   3.511  12.068  0.00  0.00    +0.000 C 
ATOM     24  C   UNL     1       5.451   3.447  13.237  0.00  0.00    +0.000 C 
ENDBRANCH  19  20
ENDBRANCH   6  19
TORSDOF 4
ENDMDL
MODEL 2
REMARK VINA RESULT:      -7.5      0.931      2.011
REMARK  Name = 
REMARK  6 active torsions:
REMARK  status: ('A' for Active; 'I' for Inactive)
REMARK    1  A    between atoms: C_1  and  O_2
REMARK    2  A    between atoms: O_2  and  C_3
REMARK    3  A    between atoms: C_5  and  C_6
REMARK    4  A    between atoms: C_11  and  C_12
REMARK    5  A    between atoms: C_17  and  O_18
REMARK    6  A    between atoms: O_18  and  C_19
REMARK                            x       y       z     vdW  Elec       q    Type
REMARK                         _______ _______ _______ _____ _____    ______ ____
ROOT
ATOM      1  C   UNL     1       3.937   3.778  17.564  0.00  0.00    +0.000 A 
ATOM      2  C   UNL     1       3.286   4.518  18.569  0.00  0.00    +0.000 A 
ATOM      3  C   UNL     1       3.267   5.915  18.552  0.00  0.00    +0.000 A 
ATOM      4  C   UNL     1       3.998   6.595  17.585  0.00  0.00    +0.000 A 
ATOM      5  C   UNL     1       4.755   5.862  16.660  0.00  0.00    +0.000 A 
ATOM      6  C   UNL     1       4.731   4.452  16.630  0.00  0.00    +0.000 A 
ENDROOT
BRANCH   3   7
ATOM      7  C   UNL     1       2.421   6.588  19.572  0.00  0.00    +0.000 C 
ATOM      8  O   UNL     1       1.868   5.890  20.412  0.00  0.00    +0.000 OA
ATOM      9  N   UNL     1       2.246   7.941  19.394  0.00  0.00    +0.000 N 
ATOM     10  C   UNL     1       1.326   8.637  20.128  0.00  0.00    +0.000 A 
ATOM     11  N   UNL     1       0.902   9.858  19.874  0.00  0.00    +0.000 NA
ATOM     12  C   UNL     1      -0.050  10.040  20.847  0.00  0.00    +0.000 A 
ATOM     13  C   UNL     1      -0.908  11.238  20.919  0.00  0.00    +0.000 C 
ATOM     14  N   UNL     1      -0.186   9.023  21.707  0.00  0.00    +0.000 NA
ATOM     15  O   UNL     1       0.731   8.085  21.228  0.00  0.00    +0.000 OA
ATOM     16  H   UNL     1       2.615   8.418  18.584  0.00  0.00    +0.000 HD
ENDBRANCH   3   7
BRANCH   1  18
ATOM     17  C   UNL     1       3.399   1.817  18.742  0.00  0.00    +0.000 C 
ATOM     18  O   UNL     1       3.792   2.417  17.504  0.00  0.00    +0.000 OA
ENDBRANCH   1  18
BRANCH   6  19
ATOM     19  O   UNL     1       5.554   3.943  15.665  0.00  0.00    +0.000 OA
BRANCH  19  20
ATOM     20  C   UNL     1       5.751   4.580  14.402  0.00  0.00    +0.000 C 
ATOM     21  C   UNL     1       7.205   5.001  14.213  0.00  0.00    +0.000 C 
ATOM     22  C   UNL     1       7.528   4.797  12.740  0.00  0.00    +0.000 C 
ATOM     23  C   UNL     1       6.560   3.747  12.221  0.00  0.00    +0.000 C 
ATOM     24  C   UNL     1       5.521   3.521  13.313  0.00  0.00    +0.000 C 
ENDBRANCH  19  20
ENDBRANCH   6  19
TORSDOF 4
ENDMDL
MODEL 3
REMARK VINA RESULT:      -7.5      2.812      8.680
REMARK  Name = 
REMARK  6 active torsions:
REMARK  status: ('A' for Active; 'I' for Inactive)
REMARK    1  A    between atoms: C_1  and  O_2
REMARK    2  A    between atoms: O_2  and  C_3
REMARK    3  A    between atoms: C_5  and  C_6
REMARK    4  A    between atoms: C_11  and  C_12
REMARK    5  A    between atoms: C_17  and  O_18
REMARK    6  A    between atoms: O_18  and  C_19
REMARK                            x       y       z     vdW  Elec       q    Type
REMARK                         _______ _______ _______ _____ _____    ______ ____
ROOT
ATOM      1  C   UNL     1       2.857   6.085  19.675  0.00  0.00    +0.000 A 
ATOM      2  C   UNL     1       3.747   5.807  18.622  0.00  0.00    +0.000 A 
ATOM      3  C   UNL     1       4.064   6.769  17.659  0.00  0.00    +0.000 A 
ATOM      4  C   UNL     1       3.404   7.993  17.675  0.00  0.00    +0.000 A 
ATOM      5  C   UNL     1       2.419   8.224  18.646  0.00  0.00    +0.000 A 
ATOM      6  C   UNL     1       2.136   7.284  19.659  0.00  0.00    +0.000 A 
ENDROOT
BRANCH   3   7
ATOM      7  C   UNL     1       5.132   6.421  16.686  0.00  0.00    +0.000 C 
ATOM      8  O   UNL     1       6.014   7.244  16.481  0.00  0.00    +0.000 OA
ATOM      9  N   UNL     1       4.953   5.234  16.013  0.00  0.00    +0.000 N 
ATOM     10  C   UNL     1       5.741   4.901  14.947  0.00  0.00    +0.000 A 
ATOM     11  N   UNL     1       5.504   3.931  14.087  0.00  0.00    +0.000 NA
ATOM     12  C   UNL     1       6.538   4.080  13.195  0.00  0.00    +0.000 A 
ATOM     13  C   UNL     1       6.656   3.280  11.961  0.00  0.00    +0.000 C 
ATOM     14  N   UNL     1       7.415   5.046  13.496  0.00  0.00    +0.000 NA
ATOM     15  O   UNL     1       6.884   5.595  14.664  0.00  0.00    +0.000 OA
ATOM     16  H   UNL     1       4.116   4.682  16.131  0.00  0.00    +0.000 HD
ENDBRANCH   3   7
BRANCH   1  18
ATOM     17  C   UNL     1       2.877   3.824  20.316  0.00  0.00    +0.000 C 
ATOM     18  O   UNL     1       2.699   5.191  20.701  0.00  0.00    +0.000 OA
ENDBRANCH   1  18
BRANCH   6  19
ATOM     19  O   UNL     1       1.132   7.702  20.485  0.00  0.00    +0.000 OA
BRANCH  19  20
ATOM     20  C   UNL     1       1.028   9.047  20.956  0.00  0.00    +0.000 C 
ATOM     21  C   UNL     1      -0.233   9.724  20.429  0.00  0.00    +0.000 C 
ATOM     22  C   UNL     1      -0.737  10.629  21.543  0.00  0.00    +0.000 C 
ATOM     23  C   UNL     1      -0.198  10.063  22.846  0.00  0.00    +0.000 C 
ATOM     24  C   UNL     1       0.815   8.986  22.477  0.00  0.00    +0.000 C 
ENDBRANCH  19  20
ENDBRANCH   6  19
TORSDOF 4
ENDMDL
MODEL 4
REMARK VINA RESULT:      -7.4      3.232      4.678
REMARK  Name = 
REMARK  6 active torsions:
REMARK  status: ('A' for Active; 'I' for Inactive)
REMARK    1  A    between atoms: C_1  and  O_2
REMARK    2  A    between atoms: O_2  and  C_3
REMARK    3  A    between atoms: C_5  and  C_6
REMARK    4  A    between atoms: C_11  and  C_12
REMARK    5  A    between atoms: C_17  and  O_18
REMARK    6  A    between atoms: O_18  and  C_19
REMARK                            x       y       z     vdW  Elec       q    Type
REMARK                         _______ _______ _______ _____ _____    ______ ____
ROOT
ATOM      1  C   UNL     1       2.866   6.156  19.648  0.00  0.00    +0.000 A 
ATOM      2  C   UNL     1       2.065   7.309  19.744  0.00  0.00    +0.000 A 
ATOM      3  C   UNL     1       2.039   8.268  18.728  0.00  0.00    +0.000 A 
ATOM      4  C   UNL     1       2.904   8.139  17.647  0.00  0.00    +0.000 A 
ATOM      5  C   UNL     1       3.798   7.060  17.612  0.00  0.00    +0.000 A 
ATOM      6  C   UNL     1       3.788   6.053  18.602  0.00  0.00    +0.000 A 
ENDROOT
BRANCH   3   7
ATOM      7  C   UNL     1       1.043   9.363  18.862  0.00  0.00    +0.000 C 
ATOM      8  O   UNL     1       1.007   9.982  19.917  0.00  0.00    +0.000 OA
ATOM      9  N   UNL     1       0.167   9.496  17.809  0.00  0.00    +0.000 N 
ATOM     10  C   UNL     1      -0.924  10.315  17.898  0.00  0.00    +0.000 A 
ATOM     11  N   UNL     1      -1.948  10.328  17.068  0.00  0.00    +0.000 NA
ATOM     12  C   UNL     1      -2.776  11.257  17.648  0.00  0.00    +0.000 A 
ATOM     13  C   UNL     1      -4.129  11.554  17.142  0.00  0.00    +0.000 C 
ATOM     14  N   UNL     1      -2.289  11.845  18.748  0.00  0.00    +0.000 NA
ATOM     15  O   UNL     1      -1.054  11.218  18.916  0.00  0.00    +0.000 OA
ATOM     16  H   UNL     1       0.167   8.845  17.038  0.00  0.00    +0.000 HD
ENDBRANCH   3   7
BRANCH   1  18
ATOM     17  C   UNL     1       1.416   4.619  20.679  0.00  0.00    +0.000 C 
ATOM     18  O   UNL     1       2.741   5.150  20.569  0.00  0.00    +0.000 OA
ENDBRANCH   1  18
BRANCH   6  19
ATOM     19  O   UNL     1       4.751   5.109  18.385  0.00  0.00    +0.000 OA
BRANCH  19  20
ATOM     20  C   UNL     1       4.454   3.799  17.900  0.00  0.00    +0.000 C 
ATOM     21  C   UNL     1       4.338   2.796  19.044  0.00  0.00    +0.000 C 
ATOM     22  C   UNL     1       3.238   1.820  18.655  0.00  0.00    +0.000 C 
ATOM     23  C   UNL     1       2.337   2.545  17.669  0.00  0.00    +0.000 C 
ATOM     24  C   UNL     1       3.043   3.843  17.294  0.00  0.00    +0.000 C 
ENDBRANCH  19  20
ENDBRANCH   6  19
TORSDOF 4
ENDMDL
MODEL 5
REMARK VINA RESULT:      -7.4      3.511      8.039
REMARK  Name = 
REMARK  6 active torsions:
REMARK  status: ('A' for Active; 'I' for Inactive)
REMARK    1  A    between atoms: C_1  and  O_2
REMARK    2  A    between atoms: O_2  and  C_3
REMARK    3  A    between atoms: C_5  and  C_6
REMARK    4  A    between atoms: C_11  and  C_12
REMARK    5  A    between atoms: C_17  and  O_18
REMARK    6  A    between atoms: O_18  and  C_19
REMARK                            x       y       z     vdW  Elec       q    Type
REMARK                         _______ _______ _______ _____ _____    ______ ____
ROOT
ATOM      1  C   UNL     1       2.977   6.729  18.321  0.00  0.00    +0.000 A 
ATOM      2  C   UNL     1       4.071   6.717  17.436  0.00  0.00    +0.000 A 
ATOM      3  C   UNL     1       5.150   5.848  17.618  0.00  0.00    +0.000 A 
ATOM      4  C   UNL     1       5.199   5.053  18.758  0.00  0.00    +0.000 A 
ATOM      5  C   UNL     1       4.175   5.158  19.709  0.00  0.00    +0.000 A 
ATOM      6  C   UNL     1       3.051   5.986  19.504  0.00  0.00    +0.000 A 
ENDROOT
BRANCH   3   7
ATOM      7  C   UNL     1       6.172   5.811  16.540  0.00  0.00    +0.000 C 
ATOM      8  O   UNL     1       7.030   6.684  16.530  0.00  0.00    +0.000 OA
ATOM      9  N   UNL     1       5.978   4.848  15.576  0.00  0.00    +0.000 N 
ATOM     10  C   UNL     1       6.716   4.843  14.425  0.00  0.00    +0.000 A 
ATOM     11  N   UNL     1       6.451   4.139  13.343  0.00  0.00    +0.000 NA
ATOM     12  C   UNL     1       7.436   4.556  12.482  0.00  0.00    +0.000 A 
ATOM     13  C   UNL     1       7.504   4.128  11.071  0.00  0.00    +0.000 C 
ATOM     14  N   UNL     1       8.312   5.428  12.997  0.00  0.00    +0.000 NA
ATOM     15  O   UNL     1       7.832   5.621  14.294  0.00  0.00    +0.000 OA
ATOM     16  H   UNL     1       5.157   4.261  15.575  0.00  0.00    +0.000 HD
ENDBRANCH   3   7
BRANCH   1  18
ATOM     17  C   UNL     1       2.067   8.875  18.020  0.00  0.00    +0.000 C 
ATOM     18  O   UNL     1       1.856   7.459  18.026  0.00  0.00    +0.000 OA
ENDBRANCH   1  18
BRANCH   6  19
ATOM     19  O   UNL     1       2.187   5.952  20.562  0.00  0.00    +0.000 OA
BRANCH  19  20
ATOM     20  C   UNL     1       1.331   4.839  20.826  0.00  0.00    +0.000 C 
ATOM     21  C   UNL     1       1.018   4.064  19.550  0.00  0.00    +0.000 C 
ATOM     22  C   UNL     1       0.953   2.595  19.940  0.00  0.00    +0.000 C 
ATOM     23  C   UNL     1       1.783   2.439  21.203  0.00  0.00    +0.000 C 
ATOM     24  C   UNL     1       2.125   3.844  21.686  0.00  0.00    +0.000 C 
ENDBRANCH  19  20
ENDBRANCH   6  19
TORSDOF 4
ENDMDL
MODEL 6
REMARK VINA RESULT:      -7.3      2.021      3.875
REMARK  Name = 
REMARK  6 active torsions:
REMARK  status: ('A' for Active; 'I' for Inactive)
REMARK    1  A    between atoms: C_1  and  O_2
REMARK    2  A    between atoms: O_2  and  C_3
REMARK    3  A    between atoms: C_5  and  C_6
REMARK    4  A    between atoms: C_11  and  C_12
REMARK    5  A    between atoms: C_17  and  O_18
REMARK    6  A    between atoms: O_18  and  C_19
REMARK                            x       y       z     vdW  Elec       q    Type
REMARK                         _______ _______ _______ _____ _____    ______ ____
ROOT
ATOM      1  C   UNL     1       2.329   5.783  19.622  0.00  0.00    +0.000 A 
ATOM      2  C   UNL     1       1.930   6.773  20.539  0.00  0.00    +0.000 A 
ATOM      3  C   UNL     1       1.707   8.093  20.139  0.00  0.00    +0.000 A 
ATOM      4  C   UNL     1       1.990   8.465  18.830  0.00  0.00    +0.000 A 
ATOM      5  C   UNL     1       2.513   7.511  17.947  0.00  0.00    +0.000 A 
ATOM      6  C   UNL     1       2.683   6.161  18.323  0.00  0.00    +0.000 A 
ENDROOT
BRANCH   3   7
ATOM      7  C   UNL     1       1.138   9.017  21.155  0.00  0.00    +0.000 C 
ATOM      8  O   UNL     1       1.338   8.766  22.336  0.00  0.00    +0.000 OA
ATOM      9  N   UNL     1       0.329  10.014  20.659  0.00  0.00    +0.000 N 
ATOM     10  C   UNL     1      -0.422  10.793  21.493  0.00  0.00    +0.000 A 
ATOM     11  N   UNL     1      -1.404  11.592  21.125  0.00  0.00    +0.000 NA
ATOM     12  C   UNL     1      -1.858  12.063  22.333  0.00  0.00    +0.000 A 
ATOM     13  C   UNL     1      -3.047  12.927  22.462  0.00  0.00    +0.000 C 
ATOM     14  N   UNL     1      -1.175  11.640  23.403  0.00  0.00    +0.000 NA
ATOM     15  O   UNL     1      -0.216  10.792  22.845  0.00  0.00    +0.000 OA
ATOM     16  H   UNL     1       0.092  10.061  19.679  0.00  0.00    +0.000 HD
ENDBRANCH   3   7
BRANCH   1  18
ATOM     17  C   UNL     1       1.196   4.021  20.690  0.00  0.00    +0.000 C 
ATOM     18  O   UNL     1       2.369   4.467  20.001  0.00  0.00    +0.000 OA
ENDBRANCH   1  18
BRANCH   6  19
ATOM     19  O   UNL     1       3.223   5.410  17.319  0.00  0.00    +0.000 OA
BRANCH  19  20
ATOM     20  C   UNL     1       4.629   5.200  17.181  0.00  0.00    +0.000 C 
ATOM     21  C   UNL     1       4.938   3.770  16.745  0.00  0.00    +0.000 C 
ATOM     22  C   UNL     1       6.133   3.850  15.808  0.00  0.00    +0.000 C 
ATOM     23  C   UNL     1       6.141   5.254  15.226  0.00  0.00    +0.000 C 
ATOM     24  C   UNL     1       5.109   6.063  16.004  0.00  0.00    +0.000 C 
ENDBRANCH  19  20
ENDBRANCH   6  19
TORSDOF 4
ENDMDL
MODEL 7
REMARK VINA RESULT:      -7.3      3.008      4.383
REMARK  Name = 
REMARK  6 active torsions:
REMARK  status: ('A' for Active; 'I' for Inactive)
REMARK    1  A    between atoms: C_1  and  O_2
REMARK    2  A    between atoms: O_2  and  C_3
REMARK    3  A    between atoms: C_5  and  C_6
REMARK    4  A    between atoms: C_11  and  C_12
REMARK    5  A    between atoms: C_17  and  O_18
REMARK    6  A    between atoms: O_18  and  C_19
REMARK                            x       y       z     vdW  Elec       q    Type
REMARK                         _______ _______ _______ _____ _____    ______ ____
ROOT
ATOM      1  C   UNL     1       2.914   6.016  19.701  0.00  0.00    +0.000 A 
ATOM      2  C   UNL     1       2.145   7.179  19.889  0.00  0.00    +0.000 A 
ATOM      3  C   UNL     1       2.077   8.176  18.912  0.00  0.00    +0.000 A 
ATOM      4  C   UNL     1       2.872   8.072  17.776  0.00  0.00    +0.000 A 
ATOM      5  C   UNL     1       3.739   6.979  17.648  0.00  0.00    +0.000 A 
ATOM      6  C   UNL     1       3.770   5.936  18.598  0.00  0.00    +0.000 A 
ENDROOT
BRANCH   3   7
ATOM      7  C   UNL     1       1.113   9.283  19.147  0.00  0.00    +0.000 C 
ATOM      8  O   UNL     1       0.723   9.922  18.178  0.00  0.00    +0.000 OA
ATOM      9  N   UNL     1       0.842   9.559  20.468  0.00  0.00    +0.000 N 
ATOM     10  C   UNL     1       0.147  10.681  20.826  0.00  0.00    +0.000 A 
ATOM     11  N   UNL     1       0.049  11.170  22.046  0.00  0.00    +0.000 NA
ATOM     12  C   UNL     1      -0.676  12.317  21.837  0.00  0.00    +0.000 A 
ATOM     13  C   UNL     1      -0.960  13.293  22.907  0.00  0.00    +0.000 C 
ATOM     14  N   UNL     1      -1.069  12.521  20.574  0.00  0.00    +0.000 NA
ATOM     15  O   UNL     1      -0.520  11.430  19.898  0.00  0.00    +0.000 OA
ATOM     16  H   UNL     1       1.324   9.082  21.216  0.00  0.00    +0.000 HD
ENDBRANCH   3   7
BRANCH   1  18
ATOM     17  C   UNL     1       1.505   4.444  20.735  0.00  0.00    +0.000 C 
ATOM     18  O   UNL     1       2.825   4.978  20.591  0.00  0.00    +0.000 OA
ENDBRANCH   1  18
BRANCH   6  19
ATOM     19  O   UNL     1       4.698   4.984  18.288  0.00  0.00    +0.000 OA
BRANCH  19  20
ATOM     20  C   UNL     1       4.345   3.696  17.782  0.00  0.00    +0.000 C 
ATOM     21  C   UNL     1       4.327   2.648  18.891  0.00  0.00    +0.000 C 
ATOM     22  C   UNL     1       3.186   1.695  18.569  0.00  0.00    +0.000 C 
ATOM     23  C   UNL     1       2.204   2.463  17.700  0.00  0.00    +0.000 C 
ATOM     24  C   UNL     1       2.884   3.771  17.312  0.00  0.00    +0.000 C 
ENDBRANCH  19  20
ENDBRANCH   6  19
TORSDOF 4
ENDMDL
MODEL 8
REMARK VINA RESULT:      -7.2      2.072      3.778
REMARK  Name = 
REMARK  6 active torsions:
REMARK  status: ('A' for Active; 'I' for Inactive)
REMARK    1  A    between atoms: C_1  and  O_2
REMARK    2  A    between atoms: O_2  and  C_3
REMARK    3  A    between atoms: C_5  and  C_6
REMARK    4  A    between atoms: C_11  and  C_12
REMARK    5  A    between atoms: C_17  and  O_18
REMARK    6  A    between atoms: O_18  and  C_19
REMARK                            x       y       z     vdW  Elec       q    Type
REMARK                         _______ _______ _______ _____ _____    ______ ____
ROOT
ATOM      1  C   UNL     1       2.343   5.353  19.589  0.00  0.00    +0.000 A 
ATOM      2  C   UNL     1       1.770   6.265  20.494  0.00  0.00    +0.000 A 
ATOM      3  C   UNL     1       1.625   7.618  20.177  0.00  0.00    +0.000 A 
ATOM      4  C   UNL     1       2.159   8.098  18.986  0.00  0.00    +0.000 A 
ATOM      5  C   UNL     1       2.848   7.217  18.142  0.00  0.00    +0.000 A 
ATOM      6  C   UNL     1       2.945   5.838  18.424  0.00  0.00    +0.000 A 
ENDROOT
BRANCH   3   7
ATOM      7  C   UNL     1       0.866   8.458  21.139  0.00  0.00    +0.000 C 
ATOM      8  O   UNL     1       0.002   7.917  21.818  0.00  0.00    +0.000 OA
ATOM      9  N   UNL     1       1.135   9.807  21.086  0.00  0.00    +0.000 N 
ATOM     10  C   UNL     1       0.359  10.708  21.759  0.00  0.00    +0.000 A 
ATOM     11  N   UNL     1       0.365  12.014  21.583  0.00  0.00    +0.000 NA
ATOM     12  C   UNL     1      -0.632  12.423  22.433  0.00  0.00    +0.000 A 
ATOM     13  C   UNL     1      -1.093  13.822  22.517  0.00  0.00    +0.000 C 
ATOM     14  N   UNL     1      -1.202  11.449  23.153  0.00  0.00    +0.000 NA
ATOM     15  O   UNL     1      -0.543  10.304  22.704  0.00  0.00    +0.000 OA
ATOM     16  H   UNL     1       1.755  10.193  20.389  0.00  0.00    +0.000 HD
ENDBRANCH   3   7
BRANCH   1  18
ATOM     17  C   UNL     1       2.017   3.685  21.213  0.00  0.00    +0.000 C 
ATOM     18  O   UNL     1       2.312   4.008  19.850  0.00  0.00    +0.000 OA
ENDBRANCH   1  18
BRANCH   6  19
ATOM     19  O   UNL     1       3.674   5.169  17.482  0.00  0.00    +0.000 OA
BRANCH  19  20
ATOM     20  C   UNL     1       4.990   5.567  17.096  0.00  0.00    +0.000 C 
ATOM     21  C   UNL     1       6.030   5.114  18.116  0.00  0.00    +0.000 C 
ATOM     22  C   UNL     1       7.275   4.738  17.327  0.00  0.00    +0.000 C 
ATOM     23  C   UNL     1       6.815   4.384  15.923  0.00  0.00    +0.000 C 
ATOM     24  C   UNL     1       5.349   4.790  15.820  0.00  0.00    +0.000 C 
ENDBRANCH  19  20
ENDBRANCH   6  19
TORSDOF 4
ENDMDL
MODEL 9
REMARK VINA RESULT:      -7.2      1.183      1.219
REMARK  Name = 
REMARK  6 active torsions:
REMARK  status: ('A' for Active; 'I' for Inactive)
REMARK    1  A    between atoms: C_1  and  O_2
REMARK    2  A    between atoms: O_2  and  C_3
REMARK    3  A    between atoms: C_5  and  C_6
REMARK    4  A    between atoms: C_11  and  C_12
REMARK    5  A    between atoms: C_17  and  O_18
REMARK    6  A    between atoms: O_18  and  C_19
REMARK                            x       y       z     vdW  Elec       q    Type
REMARK                         _______ _______ _______ _____ _____    ______ ____
ROOT
ATOM      1  C   UNL     1       5.253   4.979  18.571  0.00  0.00    +0.000 A 
ATOM      2  C   UNL     1       4.345   5.655  19.407  0.00  0.00    +0.000 A 
ATOM      3  C   UNL     1       2.981   5.713  19.111  0.00  0.00    +0.000 A 
ATOM      4  C   UNL     1       2.522   5.187  17.909  0.00  0.00    +0.000 A 
ATOM      5  C   UNL     1       3.443   4.629  17.011  0.00  0.00    +0.000 A 
ATOM      6  C   UNL     1       4.813   4.511  17.328  0.00  0.00    +0.000 A 
ENDROOT
BRANCH   3   7
ATOM      7  C   UNL     1       2.094   6.315  20.140  0.00  0.00    +0.000 C 
ATOM      8  O   UNL     1       1.321   5.576  20.737  0.00  0.00    +0.000 OA
ATOM      9  N   UNL     1       2.148   7.686  20.238  0.00  0.00    +0.000 N 
ATOM     10  C   UNL     1       1.237   8.378  20.986  0.00  0.00    +0.000 A 
ATOM     11  N   UNL     1       1.040   9.680  20.950  0.00  0.00    +0.000 NA
ATOM     12  C   UNL     1      -0.014   9.835  21.816  0.00  0.00    +0.000 A 
ATOM     13  C   UNL     1      -0.689  11.128  22.038  0.00  0.00    +0.000 C 
ATOM     14  N   UNL     1      -0.429   8.712  22.414  0.00  0.00    +0.000 NA
ATOM     15  O   UNL     1       0.404   7.738  21.861  0.00  0.00    +0.000 OA
ATOM     16  H   UNL     1       2.705   8.238  19.601  0.00  0.00    +0.000 HD
ENDBRANCH   3   7
BRANCH   1  18
ATOM     17  C   UNL     1       7.430   5.863  18.637  0.00  0.00    +0.000 C 
ATOM     18  O   UNL     1       6.548   4.786  18.971  0.00  0.00    +0.000 OA
ENDBRANCH   1  18
BRANCH   6  19
ATOM     19  O   UNL     1       5.533   3.958  16.307  0.00  0.00    +0.000 OA
BRANCH  19  20
ATOM     20  C   UNL     1       5.742   4.622  15.061  0.00  0.00    +0.000 C 
ATOM     21  C   UNL     1       7.203   5.025  14.884  0.00  0.00    +0.000 C 
ATOM     22  C   UNL     1       7.525   4.852  13.407  0.00  0.00    +0.000 C 
ATOM     23  C   UNL     1       6.543   3.830  12.861  0.00  0.00    +0.000 C 
ATOM     24  C   UNL     1       5.498   3.593  13.945  0.00  0.00    +0.000 C 
ENDBRANCH  19  20
ENDBRANCH   6  19
TORSDOF 4
ENDMDL
