MODEL 1
REMARK VINA RESULT:      -6.9      0.000      0.000
REMARK  Name = 
REMARK  3 active torsions:
REMARK  status: ('A' for Active; 'I' for Inactive)
REMARK    1  A    between atoms: C_2  and  C_3
REMARK    2  A    between atoms: N_10  and  C_11
REMARK    3  A    between atoms: C_11  and  C_12
REMARK                            x       y       z     vdW  Elec       q    Type
REMARK                         _______ _______ _______ _____ _____    ______ ____
ROOT
ATOM      1  O   UNL     1       1.769   6.097  20.704  0.00  0.00    +0.000 OA
ATOM      2  C   UNL     1       2.208   6.815  19.799  0.00  0.00    +0.000 C 
ATOM      3  N   UNL     1       1.676   8.103  19.561  0.00  0.00    +0.000 N 
ATOM      4  C   UNL     1       1.936   8.720  18.250  0.00  0.00    +0.000 C 
ATOM      5  C   UNL     1       1.663  10.222  18.194  0.00  0.00    +0.000 C 
ATOM      6  N   UNL     1       0.324  10.601  18.680  0.00  0.00    +0.000 NA
ATOM      7  C   UNL     1       0.112  10.034  20.038  0.00  0.00    +0.000 C 
ATOM      8  C   UNL     1       0.992  10.724  21.095  0.00  0.00    +0.000 C 
ATOM      9  S   UNL     1       0.835   9.703  22.541  0.00  0.00    +0.000 S 
ATOM     10  O   UNL     1      -0.231  10.239  23.359  0.00  0.00    +0.000 OA
ATOM     11  O   UNL     1       2.158   9.445  23.073  0.00  0.00    +0.000 OA
ATOM     12  C   UNL     1       0.230   8.251  21.716  0.00  0.00    +0.000 C 
ATOM     13  C   UNL     1       0.394   8.499  20.205  0.00  0.00    +0.000 C 
ENDROOT
BRANCH   2  14
ATOM     14  C   UNL     1       3.328   6.328  18.842  0.00  0.00    +0.000 C 
ATOM     15  C   UNL     1       4.428   5.380  19.409  0.00  0.00    +0.000 C 
ATOM     16  C   UNL     1       4.500   4.764  17.999  0.00  0.00    +0.000 C 
ATOM     17  C   UNL     1       3.021   5.178  17.842  0.00  0.00    +0.000 C 
ENDBRANCH   2  14
BRANCH   6  18
ATOM     18  C   UNL     1      -0.749  10.177  17.750  0.00  0.00    +0.000 C 
BRANCH  18  19
ATOM     19  C   UNL     1      -2.126  10.697  18.118  0.00  0.00    +0.000 A 
ATOM     20  C   UNL     1      -3.284  10.072  17.623  0.00  0.00    +0.000 A 
ATOM     21  C   UNL     1      -4.552  10.576  17.929  0.00  0.00    +0.000 A 
ATOM     22  C   UNL     1      -4.671  11.705  18.738  0.00  0.00    +0.000 A 
ATOM     23 CL   UNL     1      -6.231  12.336  19.097  0.00  0.00    +0.000 Cl
ATOM     24  C   UNL     1      -3.537  12.328  19.247  0.00  0.00    +0.000 A 
ATOM     25  C   UNL     1      -2.270  11.827  18.940  0.00  0.00    +0.000 A 
ENDBRANCH  18  19
ENDBRANCH   6  18
TORSDOF 3
ENDMDL
MODEL 2
REMARK VINA RESULT:      -6.8      3.918      5.384
REMARK  Name = 
REMARK  3 active torsions:
REMARK  status: ('A' for Active; 'I' for Inactive)
REMARK    1  A    between atoms: C_2  and  C_3
REMARK    2  A    between atoms: N_10  and  C_11
REMARK    3  A    between atoms: C_11  and  C_12
REMARK                            x       y       z     vdW  Elec       q    Type
REMARK                         _______ _______ _______ _____ _____    ______ ____
ROOT
ATOM      1  O   UNL     1       3.415   3.333  16.073  0.00  0.00    +0.000 OA
ATOM      2  C   UNL     1       4.053   4.308  16.481  0.00  0.00    +0.000 C 
ATOM      3  N   UNL     1       3.662   5.005  17.647  0.00  0.00    +0.000 N 
ATOM      4  C   UNL     1       4.188   6.366  17.842  0.00  0.00    +0.000 C 
ATOM      5  C   UNL     1       4.035   6.905  19.263  0.00  0.00    +0.000 C 
ATOM      6  N   UNL     1       2.662   6.809  19.790  0.00  0.00    +0.000 NA
ATOM      7  C   UNL     1       2.179   5.409  19.657  0.00  0.00    +0.000 C 
ATOM      8  C   UNL     1       2.908   4.453  20.617  0.00  0.00    +0.000 C 
ATOM      9  S   UNL     1       2.431   2.829  20.076  0.00  0.00    +0.000 S 
ATOM     10  O   UNL     1       1.280   2.415  20.848  0.00  0.00    +0.000 OA
ATOM     11  O   UNL     1       3.621   2.008  19.968  0.00  0.00    +0.000 OA
ATOM     12  C   UNL     1       1.878   3.295  18.453  0.00  0.00    +0.000 C 
ATOM     13  C   UNL     1       2.319   4.754  18.237  0.00  0.00    +0.000 C 
ENDROOT
BRANCH   2  14
ATOM     14  C   UNL     1       5.285   4.857  15.714  0.00  0.00    +0.000 C 
ATOM     15  C   UNL     1       6.697   4.323  16.100  0.00  0.00    +0.000 C 
ATOM     16  C   UNL     1       7.087   4.541  14.626  0.00  0.00    +0.000 C 
ATOM     17  C   UNL     1       5.598   4.308  14.293  0.00  0.00    +0.000 C 
ENDBRANCH   2  14
BRANCH   6  18
ATOM     18  C   UNL     1       1.740   7.759  19.125  0.00  0.00    +0.000 C 
BRANCH  18  19
ATOM     19  C   UNL     1       1.087   8.749  20.071  0.00  0.00    +0.000 A 
ATOM     20  C   UNL     1       1.032   8.492  21.452  0.00  0.00    +0.000 A 
ATOM     21  C   UNL     1       0.395   9.386  22.319  0.00  0.00    +0.000 A 
ATOM     22  C   UNL     1      -0.188  10.545  21.810  0.00  0.00    +0.000 A 
ATOM     23 CL   UNL     1      -0.990  11.633  22.875  0.00  0.00    +0.000 Cl
ATOM     24  C   UNL     1      -0.132  10.823  20.449  0.00  0.00    +0.000 A 
ATOM     25  C   UNL     1       0.503   9.929  19.582  0.00  0.00    +0.000 A 
ENDBRANCH  18  19
ENDBRANCH   6  18
TORSDOF 3
ENDMDL
MODEL 3
REMARK VINA RESULT:      -6.5      3.902      5.649
REMARK  Name = 
REMARK  3 active torsions:
REMARK  status: ('A' for Active; 'I' for Inactive)
REMARK    1  A    between atoms: C_2  and  C_3
REMARK    2  A    between atoms: N_10  and  C_11
REMARK    3  A    between atoms: C_11  and  C_12
REMARK                            x       y       z     vdW  Elec       q    Type
REMARK                         _______ _______ _______ _____ _____    ______ ____
ROOT
ATOM      1  O   UNL     1       5.207   2.900  19.670  0.00  0.00    +0.000 OA
ATOM      2  C   UNL     1       4.076   3.194  19.269  0.00  0.00    +0.000 C 
ATOM      3  N   UNL     1       3.801   4.469  18.723  0.00  0.00    +0.000 N 
ATOM      4  C   UNL     1       2.394   4.898  18.659  0.00  0.00    +0.000 C 
ATOM      5  C   UNL     1       2.139   6.092  17.740  0.00  0.00    +0.000 C 
ATOM      6  N   UNL     1       3.013   7.247  18.011  0.00  0.00    +0.000 NA
ATOM      7  C   UNL     1       4.434   6.809  17.994  0.00  0.00    +0.000 C 
ATOM      8  C   UNL     1       4.905   6.435  16.577  0.00  0.00    +0.000 C 
ATOM      9  S   UNL     1       6.476   5.645  16.824  0.00  0.00    +0.000 S 
ATOM     10  O   UNL     1       7.512   6.647  16.695  0.00  0.00    +0.000 OA
ATOM     11  O   UNL     1       6.500   4.412  16.063  0.00  0.00    +0.000 OA
ATOM     12  C   UNL     1       6.266   5.277  18.549  0.00  0.00    +0.000 C 
ATOM     13  C   UNL     1       4.792   5.568  18.887  0.00  0.00    +0.000 C 
ENDROOT
BRANCH   2  14
ATOM     14  C   UNL     1       2.885   2.208  19.388  0.00  0.00    +0.000 C 
ATOM     15  C   UNL     1       1.689   2.598  20.308  0.00  0.00    +0.000 C 
ATOM     16  C   UNL     1       0.796   1.805  19.336  0.00  0.00    +0.000 C 
ATOM     17  C   UNL     1       1.832   2.151  18.246  0.00  0.00    +0.000 C 
ENDBRANCH   2  14
BRANCH   6  18
ATOM     18  C   UNL     1       2.676   7.916  19.290  0.00  0.00    +0.000 C 
BRANCH  18  19
ATOM     19  C   UNL     1       1.478   8.843  19.205  0.00  0.00    +0.000 A 
ATOM     20  C   UNL     1       0.777   9.217  20.365  0.00  0.00    +0.000 A 
ATOM     21  C   UNL     1      -0.351  10.039  20.283  0.00  0.00    +0.000 A 
ATOM     22  C   UNL     1      -0.783  10.496  19.040  0.00  0.00    +0.000 A 
ATOM     23 CL   UNL     1      -2.185  11.491  18.938  0.00  0.00    +0.000 Cl
ATOM     24  C   UNL     1      -0.096  10.147  17.882  0.00  0.00    +0.000 A 
ATOM     25  C   UNL     1       1.031   9.325  17.964  0.00  0.00    +0.000 A 
ENDBRANCH  18  19
ENDBRANCH   6  18
TORSDOF 3
ENDMDL
MODEL 4
REMARK VINA RESULT:      -6.4      2.980      4.521
REMARK  Name = 
REMARK  3 active torsions:
REMARK  status: ('A' for Active; 'I' for Inactive)
REMARK    1  A    between atoms: C_2  and  C_3
REMARK    2  A    between atoms: N_10  and  C_11
REMARK    3  A    between atoms: C_11  and  C_12
REMARK                            x       y       z     vdW  Elec       q    Type
REMARK                         _______ _______ _______ _____ _____    ______ ____
ROOT
ATOM      1  O   UNL     1       3.697   3.466  16.353  0.00  0.00    +0.000 OA
ATOM      2  C   UNL     1       4.231   4.570  16.508  0.00  0.00    +0.000 C 
ATOM      3  N   UNL     1       3.682   5.532  17.386  0.00  0.00    +0.000 N 
ATOM      4  C   UNL     1       4.101   6.933  17.216  0.00  0.00    +0.000 C 
ATOM      5  C   UNL     1       3.772   7.839  18.401  0.00  0.00    +0.000 C 
ATOM      6  N   UNL     1       2.361   7.777  18.823  0.00  0.00    +0.000 NA
ATOM      7  C   UNL     1       1.980   6.360  19.066  0.00  0.00    +0.000 C 
ATOM      8  C   UNL     1       2.665   5.785  20.317  0.00  0.00    +0.000 C 
ATOM      9  S   UNL     1       2.345   4.039  20.237  0.00  0.00    +0.000 S 
ATOM     10  O   UNL     1       1.149   3.762  21.002  0.00  0.00    +0.000 OA
ATOM     11  O   UNL     1       3.587   3.329  20.468  0.00  0.00    +0.000 OA
ATOM     12  C   UNL     1       1.932   3.973  18.511  0.00  0.00    +0.000 C 
ATOM     13  C   UNL     1       2.303   5.343  17.914  0.00  0.00    +0.000 C 
ENDROOT
BRANCH   2  14
ATOM     14  C   UNL     1       5.498   4.983  15.715  0.00  0.00    +0.000 C 
ATOM     15  C   UNL     1       6.855   4.308  16.081  0.00  0.00    +0.000 C 
ATOM     16  C   UNL     1       7.238   4.475  14.598  0.00  0.00    +0.000 C 
ATOM     17  C   UNL     1       5.727   4.395  14.294  0.00  0.00    +0.000 C 
ENDBRANCH   2  14
BRANCH   6  18
ATOM     18  C   UNL     1       1.455   8.414  17.838  0.00  0.00    +0.000 C 
BRANCH  18  19
ATOM     19  C   UNL     1       0.538   9.466  18.434  0.00  0.00    +0.000 A 
ATOM     20  C   UNL     1       0.846  10.069  19.666  0.00  0.00    +0.000 A 
ATOM     21  C   UNL     1      -0.019  11.010  20.234  0.00  0.00    +0.000 A 
ATOM     22  C   UNL     1      -1.194  11.357  19.571  0.00  0.00    +0.000 A 
ATOM     23 CL   UNL     1      -2.268  12.500  20.282  0.00  0.00    +0.000 Cl
ATOM     24  C   UNL     1      -1.509  10.780  18.345  0.00  0.00    +0.000 A 
ATOM     25  C   UNL     1      -0.646   9.839  17.778  0.00  0.00    +0.000 A 
ENDBRANCH  18  19
ENDBRANCH   6  18
TORSDOF 3
ENDMDL
MODEL 5
REMARK VINA RESULT:      -6.4      4.051      5.164
REMARK  Name = 
REMARK  3 active torsions:
REMARK  status: ('A' for Active; 'I' for Inactive)
REMARK    1  A    between atoms: C_2  and  C_3
REMARK    2  A    between atoms: N_10  and  C_11
REMARK    3  A    between atoms: C_11  and  C_12
REMARK                            x       y       z     vdW  Elec       q    Type
REMARK                         _______ _______ _______ _____ _____    ______ ____
ROOT
ATOM      1  O   UNL     1       3.392   3.227  16.489  0.00  0.00    +0.000 OA
ATOM      2  C   UNL     1       3.944   4.291  16.789  0.00  0.00    +0.000 C 
ATOM      3  N   UNL     1       3.456   5.098  17.842  0.00  0.00    +0.000 N 
ATOM      4  C   UNL     1       3.878   6.509  17.876  0.00  0.00    +0.000 C 
ATOM      5  C   UNL     1       3.628   7.210  19.210  0.00  0.00    +0.000 C 
ATOM      6  N   UNL     1       2.244   7.080  19.699  0.00  0.00    +0.000 NA
ATOM      7  C   UNL     1       1.863   5.643  19.731  0.00  0.00    +0.000 C 
ATOM      8  C   UNL     1       2.615   4.872  20.830  0.00  0.00    +0.000 C 
ATOM      9  S   UNL     1       2.274   3.163  20.488  0.00  0.00    +0.000 S 
ATOM     10  O   UNL     1       1.122   2.766  21.268  0.00  0.00    +0.000 OA
ATOM     11  O   UNL     1       3.521   2.424  20.527  0.00  0.00    +0.000 OA
ATOM     12  C   UNL     1       1.761   3.378  18.801  0.00  0.00    +0.000 C 
ATOM     13  C   UNL     1       2.110   4.826  18.413  0.00  0.00    +0.000 C 
ENDROOT
BRANCH   2  14
ATOM     14  C   UNL     1       5.167   4.827  15.999  0.00  0.00    +0.000 C 
ATOM     15  C   UNL     1       6.589   4.352  16.423  0.00  0.00    +0.000 C 
ATOM     16  C   UNL     1       6.984   4.497  14.941  0.00  0.00    +0.000 C 
ATOM     17  C   UNL     1       5.503   4.208  14.613  0.00  0.00    +0.000 C 
ENDBRANCH   2  14
BRANCH   6  18
ATOM     18  C   UNL     1       1.287   7.868  18.886  0.00  0.00    +0.000 C 
BRANCH  18  19
ATOM     19  C   UNL     1       1.242   9.342  19.242  0.00  0.00    +0.000 A 
ATOM     20  C   UNL     1       0.752   9.762  20.491  0.00  0.00    +0.000 A 
ATOM     21  C   UNL     1       0.672  11.123  20.805  0.00  0.00    +0.000 A 
ATOM     22  C   UNL     1       1.088  12.072  19.873  0.00  0.00    +0.000 A 
ATOM     23 CL   UNL     1       0.970  13.747  20.252  0.00  0.00    +0.000 Cl
ATOM     24  C   UNL     1       1.588  11.675  18.638  0.00  0.00    +0.000 A 
ATOM     25  C   UNL     1       1.666  10.316  18.323  0.00  0.00    +0.000 A 
ENDBRANCH  18  19
ENDBRANCH   6  18
TORSDOF 3
ENDMDL
MODEL 6
REMARK VINA RESULT:      -6.4      3.433      4.999
REMARK  Name = 
REMARK  3 active torsions:
REMARK  status: ('A' for Active; 'I' for Inactive)
REMARK    1  A    between atoms: C_2  and  C_3
REMARK    2  A    between atoms: N_10  and  C_11
REMARK    3  A    between atoms: C_11  and  C_12
REMARK                            x       y       z     vdW  Elec       q    Type
REMARK                         _______ _______ _______ _____ _____    ______ ____
ROOT
ATOM      1  O   UNL     1       3.643   3.024  16.386  0.00  0.00    +0.000 OA
ATOM      2  C   UNL     1       4.286   4.028  16.711  0.00  0.00    +0.000 C 
ATOM      3  N   UNL     1       3.795   4.931  17.680  0.00  0.00    +0.000 N 
ATOM      4  C   UNL     1       4.379   6.283  17.716  0.00  0.00    +0.000 C 
ATOM      5  C   UNL     1       4.080   7.066  18.994  0.00  0.00    +0.000 C 
ATOM      6  N   UNL     1       2.648   7.120  19.336  0.00  0.00    +0.000 NA
ATOM      7  C   UNL     1       2.095   5.740  19.372  0.00  0.00    +0.000 C 
ATOM      8  C   UNL     1       2.632   4.934  20.568  0.00  0.00    +0.000 C 
ATOM      9  S   UNL     1       2.123   3.264  20.244  0.00  0.00    +0.000 S 
ATOM     10  O   UNL     1       0.858   3.038  20.908  0.00  0.00    +0.000 OA
ATOM     11  O   UNL     1       3.261   2.387  20.438  0.00  0.00    +0.000 OA
ATOM     12  C   UNL     1       1.814   3.464  18.506  0.00  0.00    +0.000 C 
ATOM     13  C   UNL     1       2.374   4.844  18.114  0.00  0.00    +0.000 C 
ENDROOT
BRANCH   2  14
ATOM     14  C   UNL     1       5.639   4.383  16.040  0.00  0.00    +0.000 C 
ATOM     15  C   UNL     1       6.133   3.498  14.855  0.00  0.00    +0.000 C 
ATOM     16  C   UNL     1       6.804   4.770  14.301  0.00  0.00    +0.000 C 
ATOM     17  C   UNL     1       5.695   5.561  15.027  0.00  0.00    +0.000 C 
ENDBRANCH   2  14
BRANCH   6  18
ATOM     18  C   UNL     1       1.882   7.979  18.403  0.00  0.00    +0.000 C 
BRANCH  18  19
ATOM     19  C   UNL     1       1.011   9.014  19.089  0.00  0.00    +0.000 A 
ATOM     20  C   UNL     1       0.271   9.942  18.336  0.00  0.00    +0.000 A 
ATOM     21  C   UNL     1      -0.500  10.921  18.969  0.00  0.00    +0.000 A 
ATOM     22  C   UNL     1      -0.542  10.975  20.361  0.00  0.00    +0.000 A 
ATOM     23 CL   UNL     1      -1.475  12.194  21.139  0.00  0.00    +0.000 Cl
ATOM     24  C   UNL     1       0.173  10.057  21.123  0.00  0.00    +0.000 A 
ATOM     25  C   UNL     1       0.945   9.079  20.491  0.00  0.00    +0.000 A 
ENDBRANCH  18  19
ENDBRANCH   6  18
TORSDOF 3
ENDMDL
MODEL 7
REMARK VINA RESULT:      -6.4      3.523      5.330
REMARK  Name = 
REMARK  3 active torsions:
REMARK  status: ('A' for Active; 'I' for Inactive)
REMARK    1  A    between atoms: C_2  and  C_3
REMARK    2  A    between atoms: N_10  and  C_11
REMARK    3  A    between atoms: C_11  and  C_12
REMARK                            x       y       z     vdW  Elec       q    Type
REMARK                         _______ _______ _______ _____ _____    ______ ____
ROOT
ATOM      1  O   UNL     1       4.161   3.240  15.762  0.00  0.00    +0.000 OA
ATOM      2  C   UNL     1       4.627   4.377  15.892  0.00  0.00    +0.000 C 
ATOM      3  N   UNL     1       4.187   5.236  16.924  0.00  0.00    +0.000 N 
ATOM      4  C   UNL     1       4.454   6.677  16.778  0.00  0.00    +0.000 C 
ATOM      5  C   UNL     1       4.294   7.483  18.066  0.00  0.00    +0.000 C 
ATOM      6  N   UNL     1       3.003   7.270  18.743  0.00  0.00    +0.000 NA
ATOM      7  C   UNL     1       2.788   5.814  18.952  0.00  0.00    +0.000 C 
ATOM      8  C   UNL     1       3.748   5.234  20.006  0.00  0.00    +0.000 C 
ATOM      9  S   UNL     1       3.555   3.474  19.864  0.00  0.00    +0.000 S 
ATOM     10  O   UNL     1       2.557   3.049  20.821  0.00  0.00    +0.000 OA
ATOM     11  O   UNL     1       4.870   2.867  19.803  0.00  0.00    +0.000 OA
ATOM     12  C   UNL     1       2.818   3.466  18.248  0.00  0.00    +0.000 C 
ATOM     13  C   UNL     1       2.958   4.894  17.691  0.00  0.00    +0.000 C 
ENDROOT
BRANCH   2  14
ATOM     14  C   UNL     1       5.678   4.945  14.903  0.00  0.00    +0.000 C 
ATOM     15  C   UNL     1       7.187   4.818  15.271  0.00  0.00    +0.000 C 
ATOM     16  C   UNL     1       7.458   4.728  13.757  0.00  0.00    +0.000 C 
ATOM     17  C   UNL     1       6.042   4.128  13.631  0.00  0.00    +0.000 C 
ENDBRANCH   2  14
BRANCH   6  18
ATOM     18  C   UNL     1       1.874   7.875  17.997  0.00  0.00    +0.000 C 
BRANCH  18  19
ATOM     19  C   UNL     1       1.119   8.937  18.775  0.00  0.00    +0.000 A 
ATOM     20  C   UNL     1       1.162   8.963  20.180  0.00  0.00    +0.000 A 
ATOM     21  C   UNL     1       0.434   9.916  20.898  0.00  0.00    +0.000 A 
ATOM     22  C   UNL     1      -0.337  10.855  20.215  0.00  0.00    +0.000 A 
ATOM     23 CL   UNL     1      -1.249  12.015  21.101  0.00  0.00    +0.000 Cl
ATOM     24  C   UNL     1      -0.381  10.853  18.825  0.00  0.00    +0.000 A 
ATOM     25  C   UNL     1       0.344   9.899  18.107  0.00  0.00    +0.000 A 
ENDBRANCH  18  19
ENDBRANCH   6  18
TORSDOF 3
ENDMDL
MODEL 8
REMARK VINA RESULT:      -6.3      4.014      5.871
REMARK  Name = 
REMARK  3 active torsions:
REMARK  status: ('A' for Active; 'I' for Inactive)
REMARK    1  A    between atoms: C_2  and  C_3
REMARK    2  A    between atoms: N_10  and  C_11
REMARK    3  A    between atoms: C_11  and  C_12
REMARK                            x       y       z     vdW  Elec       q    Type
REMARK                         _______ _______ _______ _____ _____    ______ ____
ROOT
ATOM      1  O   UNL     1       5.288   3.030  19.888  0.00  0.00    +0.000 OA
ATOM      2  C   UNL     1       4.132   3.363  19.607  0.00  0.00    +0.000 C 
ATOM      3  N   UNL     1       3.870   4.514  18.830  0.00  0.00    +0.000 N 
ATOM      4  C   UNL     1       2.513   5.083  18.883  0.00  0.00    +0.000 C 
ATOM      5  C   UNL     1       2.198   6.072  17.762  0.00  0.00    +0.000 C 
ATOM      6  N   UNL     1       3.197   7.147  17.622  0.00  0.00    +0.000 NA
ATOM      7  C   UNL     1       4.552   6.550  17.490  0.00  0.00    +0.000 C 
ATOM      8  C   UNL     1       4.736   5.828  16.143  0.00  0.00    +0.000 C 
ATOM      9  S   UNL     1       6.257   4.929  16.324  0.00  0.00    +0.000 S 
ATOM     10  O   UNL     1       7.332   5.749  15.810  0.00  0.00    +0.000 OA
ATOM     11  O   UNL     1       6.047   3.567  15.875  0.00  0.00    +0.000 OA
ATOM     12  C   UNL     1       6.323   4.968  18.099  0.00  0.00    +0.000 C 
ATOM     13  C   UNL     1       4.960   5.497  18.581  0.00  0.00    +0.000 C 
ENDROOT
BRANCH   2  14
ATOM     14  C   UNL     1       2.905   2.574  20.132  0.00  0.00    +0.000 C 
ATOM     15  C   UNL     1       2.582   2.632  21.656  0.00  0.00    +0.000 C 
ATOM     16  C   UNL     1       1.101   2.478  21.259  0.00  0.00    +0.000 C 
ATOM     17  C   UNL     1       1.481   3.165  19.930  0.00  0.00    +0.000 C 
ENDBRANCH   2  14
BRANCH   6  18
ATOM     18  C   UNL     1       3.144   8.110  18.747  0.00  0.00    +0.000 C 
BRANCH  18  19
ATOM     19  C   UNL     1       1.821   8.843  18.871  0.00  0.00    +0.000 A 
ATOM     20  C   UNL     1       1.198   9.394  17.738  0.00  0.00    +0.000 A 
ATOM     21  C   UNL     1      -0.000  10.104  17.858  0.00  0.00    +0.000 A 
ATOM     22  C   UNL     1      -0.587  10.262  19.112  0.00  0.00    +0.000 A 
ATOM     23 CL   UNL     1      -2.052  11.154  19.262  0.00  0.00    +0.000 Cl
ATOM     24  C   UNL     1       0.008   9.712  20.243  0.00  0.00    +0.000 A 
ATOM     25  C   UNL     1       1.206   9.005  20.123  0.00  0.00    +0.000 A 
ENDBRANCH  18  19
ENDBRANCH   6  18
TORSDOF 3
ENDMDL
MODEL 9
REMARK VINA RESULT:      -6.3      3.996      5.561
REMARK  Name = 
REMARK  3 active torsions:
REMARK  status: ('A' for Active; 'I' for Inactive)
REMARK    1  A    between atoms: C_2  and  C_3
REMARK    2  A    between atoms: N_10  and  C_11
REMARK    3  A    between atoms: C_11  and  C_12
REMARK                            x       y       z     vdW  Elec       q    Type
REMARK                         _______ _______ _______ _____ _____    ______ ____
ROOT
ATOM      1  O   UNL     1       4.114   3.204  15.716  0.00  0.00    +0.000 OA
ATOM      2  C   UNL     1       4.608   4.321  15.901  0.00  0.00    +0.000 C 
ATOM      3  N   UNL     1       4.193   5.136  16.979  0.00  0.00    +0.000 N 
ATOM      4  C   UNL     1       4.494   6.576  16.906  0.00  0.00    +0.000 C 
ATOM      5  C   UNL     1       4.360   7.317  18.235  0.00  0.00    +0.000 C 
ATOM      6  N   UNL     1       3.067   7.100  18.908  0.00  0.00    +0.000 NA
ATOM      7  C   UNL     1       2.818   5.641  19.043  0.00  0.00    +0.000 C 
ATOM      8  C   UNL     1       3.770   4.985  20.060  0.00  0.00    +0.000 C 
ATOM      9  S   UNL     1       3.535   3.240  19.829  0.00  0.00    +0.000 S 
ATOM     10  O   UNL     1       2.532   2.789  20.769  0.00  0.00    +0.000 OA
ATOM     11  O   UNL     1       4.835   2.606  19.728  0.00  0.00    +0.000 OA
ATOM     12  C   UNL     1       2.790   3.332  18.218  0.00  0.00    +0.000 C 
ATOM     13  C   UNL     1       2.960   4.784  17.735  0.00  0.00    +0.000 C 
ENDROOT
BRANCH   2  14
ATOM     14  C   UNL     1       5.667   4.916  14.937  0.00  0.00    +0.000 C 
ATOM     15  C   UNL     1       7.173   4.781  15.316  0.00  0.00    +0.000 C 
ATOM     16  C   UNL     1       7.459   4.729  13.803  0.00  0.00    +0.000 C 
ATOM     17  C   UNL     1       6.044   4.130  13.649  0.00  0.00    +0.000 C 
ENDBRANCH   2  14
BRANCH   6  18
ATOM     18  C   UNL     1       1.949   7.770  18.202  0.00  0.00    +0.000 C 
BRANCH  18  19
ATOM     19  C   UNL     1       1.468   9.042  18.873  0.00  0.00    +0.000 A 
ATOM     20  C   UNL     1       1.460  10.262  18.174  0.00  0.00    +0.000 A 
ATOM     21  C   UNL     1       1.055  11.442  18.805  0.00  0.00    +0.000 A 
ATOM     22  C   UNL     1       0.651  11.410  20.138  0.00  0.00    +0.000 A 
ATOM     23 CL   UNL     1       0.173  12.867  20.920  0.00  0.00    +0.000 Cl
ATOM     24  C   UNL     1       0.640  10.210  20.842  0.00  0.00    +0.000 A 
ATOM     25  C   UNL     1       1.046   9.031  20.212  0.00  0.00    +0.000 A 
ENDBRANCH  18  19
ENDBRANCH   6  18
TORSDOF 3
ENDMDL
