MODEL 1
REMARK VINA RESULT:      -8.4      0.000      0.000
REMARK  Name = 
REMARK  3 active torsions:
REMARK  status: ('A' for Active; 'I' for Inactive)
REMARK    1  A    between atoms: N_4  and  C_5
REMARK    2  A    between atoms: N_13  and  C_14
REMARK    3  A    between atoms: C_14  and  C_15
REMARK                            x       y       z     vdW  Elec       q    Type
REMARK                         _______ _______ _______ _____ _____    ______ ____
ROOT
ATOM      1  O   UNL     1       7.646   4.338  18.303  0.00  0.00    +0.000 OA
ATOM      2  C   UNL     1       6.465   4.445  17.975  0.00  0.00    +0.000 C 
ATOM      3  N   UNL     1       5.500   3.789  18.701  0.00  0.00    +0.000 N 
ATOM      4  N   UNL     1       4.164   3.626  18.286  0.00  0.00    +0.000 N 
ATOM      5  C   UNL     1       3.790   4.168  16.978  0.00  0.00    +0.000 C 
ATOM      6  C   UNL     1       4.620   5.417  16.693  0.00  0.00    +0.000 C 
ATOM      7  N   UNL     1       6.038   5.161  16.881  0.00  0.00    +0.000 N 
ATOM      8  H   UNL     1       5.859   3.074  19.324  0.00  0.00    +0.000 HD
ENDROOT
BRANCH   4   9
ATOM      9  C   UNL     1       3.223   3.407  19.302  0.00  0.00    +0.000 A 
ATOM     10  C   UNL     1       1.907   3.908  19.222  0.00  0.00    +0.000 A 
ATOM     11  C   UNL     1       0.982   3.730  20.251  0.00  0.00    +0.000 A 
ATOM     12  C   UNL     1       1.344   3.037  21.397  0.00  0.00    +0.000 A 
ATOM     13  C   UNL     1       2.634   2.530  21.513  0.00  0.00    +0.000 A 
ATOM     14  C   UNL     1       3.562   2.721  20.481  0.00  0.00    +0.000 A 
ENDBRANCH   4   9
BRANCH   7  15
ATOM     15  C   UNL     1       7.001   5.682  15.926  0.00  0.00    +0.000 C 
BRANCH  15  16
ATOM     16  C   UNL     1       6.917   4.981  14.585  0.00  0.00    +0.000 A 
ATOM     17  C   UNL     1       6.009   3.931  14.378  0.00  0.00    +0.000 A 
ATOM     18  C   UNL     1       5.890   3.334  13.122  0.00  0.00    +0.000 A 
ATOM     19  C   UNL     1       6.677   3.769  12.055  0.00  0.00    +0.000 A 
ATOM     20  C   UNL     1       7.592   4.800  12.248  0.00  0.00    +0.000 A 
ATOM     21  C   UNL     1       7.707   5.403  13.503  0.00  0.00    +0.000 A 
ENDBRANCH  15  16
ENDBRANCH   7  15
TORSDOF 3
ENDMDL
MODEL 2
REMARK VINA RESULT:      -8.3      0.058      1.080
REMARK  Name = 
REMARK  3 active torsions:
REMARK  status: ('A' for Active; 'I' for Inactive)
REMARK    1  A    between atoms: N_4  and  C_5
REMARK    2  A    between atoms: N_13  and  C_14
REMARK    3  A    between atoms: C_14  and  C_15
REMARK                            x       y       z     vdW  Elec       q    Type
REMARK                         _______ _______ _______ _____ _____    ______ ____
ROOT
ATOM      1  O   UNL     1       7.623   4.319  18.350  0.00  0.00    +0.000 OA
ATOM      2  C   UNL     1       6.445   4.417  18.007  0.00  0.00    +0.000 C 
ATOM      3  N   UNL     1       5.475   3.762  18.727  0.00  0.00    +0.000 N 
ATOM      4  N   UNL     1       4.146   3.588  18.297  0.00  0.00    +0.000 N 
ATOM      5  C   UNL     1       3.784   4.117  16.981  0.00  0.00    +0.000 C 
ATOM      6  C   UNL     1       4.609   5.368  16.696  0.00  0.00    +0.000 C 
ATOM      7  N   UNL     1       6.027   5.122  16.902  0.00  0.00    +0.000 N 
ATOM      8  H   UNL     1       5.831   3.053  19.360  0.00  0.00    +0.000 HD
ENDROOT
BRANCH   4   9
ATOM      9  C   UNL     1       3.194   3.371  19.304  0.00  0.00    +0.000 A 
ATOM     10  C   UNL     1       1.868   3.837  19.191  0.00  0.00    +0.000 A 
ATOM     11  C   UNL     1       0.930   3.663  20.210  0.00  0.00    +0.000 A 
ATOM     12  C   UNL     1       1.291   3.008  21.378  0.00  0.00    +0.000 A 
ATOM     13  C   UNL     1       2.590   2.537  21.528  0.00  0.00    +0.000 A 
ATOM     14  C   UNL     1       3.530   2.724  20.506  0.00  0.00    +0.000 A 
ENDBRANCH   4   9
BRANCH   7  15
ATOM     15  C   UNL     1       6.998   5.641  15.955  0.00  0.00    +0.000 C 
BRANCH  15  16
ATOM     16  C   UNL     1       6.855   5.012  14.583  0.00  0.00    +0.000 A 
ATOM     17  C   UNL     1       7.683   5.406  13.520  0.00  0.00    +0.000 A 
ATOM     18  C   UNL     1       7.590   4.776  12.278  0.00  0.00    +0.000 A 
ATOM     19  C   UNL     1       6.669   3.748  12.074  0.00  0.00    +0.000 A 
ATOM     20  C   UNL     1       5.831   3.355  13.115  0.00  0.00    +0.000 A 
ATOM     21  C   UNL     1       5.928   3.980  14.360  0.00  0.00    +0.000 A 
ENDBRANCH  15  16
ENDBRANCH   7  15
TORSDOF 3
ENDMDL
MODEL 3
REMARK VINA RESULT:      -8.1      0.483      1.095
REMARK  Name = 
REMARK  3 active torsions:
REMARK  status: ('A' for Active; 'I' for Inactive)
REMARK    1  A    between atoms: N_4  and  C_5
REMARK    2  A    between atoms: N_13  and  C_14
REMARK    3  A    between atoms: C_14  and  C_15
REMARK                            x       y       z     vdW  Elec       q    Type
REMARK                         _______ _______ _______ _____ _____    ______ ____
ROOT
ATOM      1  O   UNL     1       7.946   4.391  18.135  0.00  0.00    +0.000 OA
ATOM      2  C   UNL     1       6.749   4.537  17.891  0.00  0.00    +0.000 C 
ATOM      3  N   UNL     1       5.816   3.955  18.715  0.00  0.00    +0.000 N 
ATOM      4  N   UNL     1       4.447   3.835  18.408  0.00  0.00    +0.000 N 
ATOM      5  C   UNL     1       3.997   4.338  17.109  0.00  0.00    +0.000 C 
ATOM      6  C   UNL     1       4.853   5.535  16.707  0.00  0.00    +0.000 C 
ATOM      7  N   UNL     1       6.270   5.225  16.801  0.00  0.00    +0.000 N 
ATOM      8  H   UNL     1       6.191   3.251  19.342  0.00  0.00    +0.000 HD
ENDROOT
BRANCH   4   9
ATOM      9  C   UNL     1       3.577   3.699  19.500  0.00  0.00    +0.000 A 
ATOM     10  C   UNL     1       3.592   2.559  20.329  0.00  0.00    +0.000 A 
ATOM     11  C   UNL     1       2.698   2.401  21.389  0.00  0.00    +0.000 A 
ATOM     12  C   UNL     1       1.759   3.387  21.657  0.00  0.00    +0.000 A 
ATOM     13  C   UNL     1       1.713   4.525  20.859  0.00  0.00    +0.000 A 
ATOM     14  C   UNL     1       2.606   4.673  19.790  0.00  0.00    +0.000 A 
ENDBRANCH   4   9
BRANCH   7  15
ATOM     15  C   UNL     1       7.178   5.663  15.755  0.00  0.00    +0.000 C 
BRANCH  15  16
ATOM     16  C   UNL     1       6.958   4.917  14.454  0.00  0.00    +0.000 A 
ATOM     17  C   UNL     1       5.984   3.910  14.358  0.00  0.00    +0.000 A 
ATOM     18  C   UNL     1       5.742   3.273  13.140  0.00  0.00    +0.000 A 
ATOM     19  C   UNL     1       6.467   3.624  12.001  0.00  0.00    +0.000 A 
ATOM     20  C   UNL     1       7.446   4.612  12.083  0.00  0.00    +0.000 A 
ATOM     21  C   UNL     1       7.685   5.255  13.300  0.00  0.00    +0.000 A 
ENDBRANCH  15  16
ENDBRANCH   7  15
TORSDOF 3
ENDMDL
MODEL 4
REMARK VINA RESULT:      -8.1      1.095      6.959
REMARK  Name = 
REMARK  3 active torsions:
REMARK  status: ('A' for Active; 'I' for Inactive)
REMARK    1  A    between atoms: N_4  and  C_5
REMARK    2  A    between atoms: N_13  and  C_14
REMARK    3  A    between atoms: C_14  and  C_15
REMARK                            x       y       z     vdW  Elec       q    Type
REMARK                         _______ _______ _______ _____ _____    ______ ____
ROOT
ATOM      1  O   UNL     1       7.620   4.413  18.607  0.00  0.00    +0.000 OA
ATOM      2  C   UNL     1       6.791   4.721  17.752  0.00  0.00    +0.000 C 
ATOM      3  N   UNL     1       7.156   4.721  16.426  0.00  0.00    +0.000 N 
ATOM      4  N   UNL     1       6.391   5.288  15.390  0.00  0.00    +0.000 N 
ATOM      5  C   UNL     1       5.136   5.948  15.756  0.00  0.00    +0.000 C 
ATOM      6  C   UNL     1       4.532   5.245  16.968  0.00  0.00    +0.000 C 
ATOM      7  N   UNL     1       5.505   5.113  18.040  0.00  0.00    +0.000 N 
ATOM      8  H   UNL     1       8.158   4.687  16.268  0.00  0.00    +0.000 HD
ENDROOT
BRANCH   4   9
ATOM      9  C   UNL     1       6.622   4.782  14.102  0.00  0.00    +0.000 A 
ATOM     10  C   UNL     1       7.602   5.332  13.249  0.00  0.00    +0.000 A 
ATOM     11  C   UNL     1       7.804   4.860  11.951  0.00  0.00    +0.000 A 
ATOM     12  C   UNL     1       7.031   3.815  11.465  0.00  0.00    +0.000 A 
ATOM     13  C   UNL     1       6.053   3.250  12.276  0.00  0.00    +0.000 A 
ATOM     14  C   UNL     1       5.848   3.735  13.574  0.00  0.00    +0.000 A 
ENDBRANCH   4   9
BRANCH   7  15
ATOM     15  C   UNL     1       5.109   5.372  19.414  0.00  0.00    +0.000 C 
BRANCH  15  16
ATOM     16  C   UNL     1       3.799   4.698  19.770  0.00  0.00    +0.000 A 
ATOM     17  C   UNL     1       3.699   3.299  19.818  0.00  0.00    +0.000 A 
ATOM     18  C   UNL     1       2.507   2.687  20.212  0.00  0.00    +0.000 A 
ATOM     19  C   UNL     1       1.397   3.457  20.557  0.00  0.00    +0.000 A 
ATOM     20  C   UNL     1       1.476   4.847  20.501  0.00  0.00    +0.000 A 
ATOM     21  C   UNL     1       2.670   5.460  20.114  0.00  0.00    +0.000 A 
ENDBRANCH  15  16
ENDBRANCH   7  15
TORSDOF 3
ENDMDL
MODEL 5
REMARK VINA RESULT:      -8.1      0.649      1.568
REMARK  Name = 
REMARK  3 active torsions:
REMARK  status: ('A' for Active; 'I' for Inactive)
REMARK    1  A    between atoms: N_4  and  C_5
REMARK    2  A    between atoms: N_13  and  C_14
REMARK    3  A    between atoms: C_14  and  C_15
REMARK                            x       y       z     vdW  Elec       q    Type
REMARK                         _______ _______ _______ _____ _____    ______ ____
ROOT
ATOM      1  O   UNL     1       8.034   4.152  17.866  0.00  0.00    +0.000 OA
ATOM      2  C   UNL     1       6.847   4.440  17.714  0.00  0.00    +0.000 C 
ATOM      3  N   UNL     1       5.906   3.896  18.554  0.00  0.00    +0.000 N 
ATOM      4  N   UNL     1       4.517   3.944  18.331  0.00  0.00    +0.000 N 
ATOM      5  C   UNL     1       4.048   4.593  17.105  0.00  0.00    +0.000 C 
ATOM      6  C   UNL     1       5.005   5.723  16.736  0.00  0.00    +0.000 C 
ATOM      7  N   UNL     1       6.383   5.260  16.711  0.00  0.00    +0.000 N 
ATOM      8  H   UNL     1       6.239   3.108  19.101  0.00  0.00    +0.000 HD
ENDROOT
BRANCH   4   9
ATOM      9  C   UNL     1       3.703   3.813  19.466  0.00  0.00    +0.000 A 
ATOM     10  C   UNL     1       3.653   2.620  20.216  0.00  0.00    +0.000 A 
ATOM     11  C   UNL     1       2.811   2.472  21.319  0.00  0.00    +0.000 A 
ATOM     12  C   UNL     1       1.993   3.520  21.712  0.00  0.00    +0.000 A 
ATOM     13  C   UNL     1       2.013   4.712  20.996  0.00  0.00    +0.000 A 
ATOM     14  C   UNL     1       2.852   4.851  19.883  0.00  0.00    +0.000 A 
ENDBRANCH   4   9
BRANCH   7  15
ATOM     15  C   UNL     1       7.270   5.682  15.641  0.00  0.00    +0.000 C 
BRANCH  15  16
ATOM     16  C   UNL     1       6.971   4.975  14.334  0.00  0.00    +0.000 A 
ATOM     17  C   UNL     1       7.696   5.276  13.171  0.00  0.00    +0.000 A 
ATOM     18  C   UNL     1       7.460   4.574  11.988  0.00  0.00    +0.000 A 
ATOM     19  C   UNL     1       6.496   3.567  11.943  0.00  0.00    +0.000 A 
ATOM     20  C   UNL     1       5.759   3.266  13.085  0.00  0.00    +0.000 A 
ATOM     21  C   UNL     1       5.999   3.963  14.272  0.00  0.00    +0.000 A 
ENDBRANCH  15  16
ENDBRANCH   7  15
TORSDOF 3
ENDMDL
MODEL 6
REMARK VINA RESULT:      -8.1      1.251      7.001
REMARK  Name = 
REMARK  3 active torsions:
REMARK  status: ('A' for Active; 'I' for Inactive)
REMARK    1  A    between atoms: N_4  and  C_5
REMARK    2  A    between atoms: N_13  and  C_14
REMARK    3  A    between atoms: C_14  and  C_15
REMARK                            x       y       z     vdW  Elec       q    Type
REMARK                         _______ _______ _______ _____ _____    ______ ____
ROOT
ATOM      1  O   UNL     1       5.587   3.436  19.001  0.00  0.00    +0.000 OA
ATOM      2  C   UNL     1       5.395   4.273  18.120  0.00  0.00    +0.000 C 
ATOM      3  N   UNL     1       6.108   4.195  16.947  0.00  0.00    +0.000 N 
ATOM      4  N   UNL     1       6.166   5.219  15.982  0.00  0.00    +0.000 N 
ATOM      5  C   UNL     1       5.441   6.459  16.263  0.00  0.00    +0.000 C 
ATOM      6  C   UNL     1       4.196   6.140  17.085  0.00  0.00    +0.000 C 
ATOM      7  N   UNL     1       4.524   5.330  18.247  0.00  0.00    +0.000 N 
ATOM      8  H   UNL     1       6.913   3.579  16.986  0.00  0.00    +0.000 HD
ENDROOT
BRANCH   4   9
ATOM      9  C   UNL     1       6.487   4.820  14.676  0.00  0.00    +0.000 A 
ATOM     10  C   UNL     1       7.537   5.417  13.949  0.00  0.00    +0.000 A 
ATOM     11  C   UNL     1       7.830   5.054  12.634  0.00  0.00    +0.000 A 
ATOM     12  C   UNL     1       7.080   4.072  12.003  0.00  0.00    +0.000 A 
ATOM     13  C   UNL     1       6.034   3.462  12.687  0.00  0.00    +0.000 A 
ATOM     14  C   UNL     1       5.739   3.838  14.003  0.00  0.00    +0.000 A 
ENDBRANCH   4   9
BRANCH   7  15
ATOM     15  C   UNL     1       3.914   5.625  19.532  0.00  0.00    +0.000 C 
BRANCH  15  16
ATOM     16  C   UNL     1       2.797   4.658  19.872  0.00  0.00    +0.000 A 
ATOM     17  C   UNL     1       1.935   4.175  18.874  0.00  0.00    +0.000 A 
ATOM     18  C   UNL     1       0.951   3.235  19.183  0.00  0.00    +0.000 A 
ATOM     19  C   UNL     1       0.805   2.766  20.489  0.00  0.00    +0.000 A 
ATOM     20  C   UNL     1       1.643   3.247  21.492  0.00  0.00    +0.000 A 
ATOM     21  C   UNL     1       2.633   4.182  21.183  0.00  0.00    +0.000 A 
ENDBRANCH  15  16
ENDBRANCH   7  15
TORSDOF 3
ENDMDL
MODEL 7
REMARK VINA RESULT:      -8.1      1.096      6.942
REMARK  Name = 
REMARK  3 active torsions:
REMARK  status: ('A' for Active; 'I' for Inactive)
REMARK    1  A    between atoms: N_4  and  C_5
REMARK    2  A    between atoms: N_13  and  C_14
REMARK    3  A    between atoms: C_14  and  C_15
REMARK                            x       y       z     vdW  Elec       q    Type
REMARK                         _______ _______ _______ _____ _____    ______ ____
ROOT
ATOM      1  O   UNL     1       7.700   4.379  18.563  0.00  0.00    +0.000 OA
ATOM      2  C   UNL     1       6.856   4.687  17.721  0.00  0.00    +0.000 C 
ATOM      3  N   UNL     1       7.199   4.688  16.390  0.00  0.00    +0.000 N 
ATOM      4  N   UNL     1       6.415   5.255  15.367  0.00  0.00    +0.000 N 
ATOM      5  C   UNL     1       5.166   5.913  15.755  0.00  0.00    +0.000 C 
ATOM      6  C   UNL     1       4.583   5.209  16.977  0.00  0.00    +0.000 C 
ATOM      7  N   UNL     1       5.574   5.077  18.032  0.00  0.00    +0.000 N 
ATOM      8  H   UNL     1       8.197   4.655  16.215  0.00  0.00    +0.000 HD
ENDROOT
BRANCH   4   9
ATOM      9  C   UNL     1       6.625   4.751  14.076  0.00  0.00    +0.000 A 
ATOM     10  C   UNL     1       7.602   5.290  13.213  0.00  0.00    +0.000 A 
ATOM     11  C   UNL     1       7.783   4.819  11.911  0.00  0.00    +0.000 A 
ATOM     12  C   UNL     1       6.990   3.787  11.431  0.00  0.00    +0.000 A 
ATOM     13  C   UNL     1       6.014   3.232  12.252  0.00  0.00    +0.000 A 
ATOM     14  C   UNL     1       5.831   3.715  13.554  0.00  0.00    +0.000 A 
ENDBRANCH   4   9
BRANCH   7  15
ATOM     15  C   UNL     1       5.202   5.334  19.413  0.00  0.00    +0.000 C 
BRANCH  15  16
ATOM     16  C   UNL     1       3.893   4.667  19.788  0.00  0.00    +0.000 A 
ATOM     17  C   UNL     1       2.758   5.433  20.095  0.00  0.00    +0.000 A 
ATOM     18  C   UNL     1       1.539   4.811  20.375  0.00  0.00    +0.000 A 
ATOM     19  C   UNL     1       1.435   3.421  20.360  0.00  0.00    +0.000 A 
ATOM     20  C   UNL     1       2.556   2.647  20.070  0.00  0.00    +0.000 A 
ATOM     21  C   UNL     1       3.774   3.267  19.783  0.00  0.00    +0.000 A 
ENDBRANCH  15  16
ENDBRANCH   7  15
TORSDOF 3
ENDMDL
MODEL 8
REMARK VINA RESULT:      -8.0      1.085      6.931
REMARK  Name = 
REMARK  3 active torsions:
REMARK  status: ('A' for Active; 'I' for Inactive)
REMARK    1  A    between atoms: N_4  and  C_5
REMARK    2  A    between atoms: N_13  and  C_14
REMARK    3  A    between atoms: C_14  and  C_15
REMARK                            x       y       z     vdW  Elec       q    Type
REMARK                         _______ _______ _______ _____ _____    ______ ____
ROOT
ATOM      1  O   UNL     1       7.060   4.366  18.901  0.00  0.00    +0.000 OA
ATOM      2  C   UNL     1       6.332   4.769  17.995  0.00  0.00    +0.000 C 
ATOM      3  N   UNL     1       6.797   4.763  16.701  0.00  0.00    +0.000 N 
ATOM      4  N   UNL     1       6.169   5.423  15.627  0.00  0.00    +0.000 N 
ATOM      5  C   UNL     1       4.956   6.189  15.917  0.00  0.00    +0.000 C 
ATOM      6  C   UNL     1       4.197   5.520  17.059  0.00  0.00    +0.000 C 
ATOM      7  N   UNL     1       5.068   5.273  18.197  0.00  0.00    +0.000 N 
ATOM      8  H   UNL     1       7.800   4.639  16.617  0.00  0.00    +0.000 HD
ENDROOT
BRANCH   4   9
ATOM      9  C   UNL     1       6.451   4.925  14.346  0.00  0.00    +0.000 A 
ATOM     10  C   UNL     1       5.683   3.900  13.757  0.00  0.00    +0.000 A 
ATOM     11  C   UNL     1       5.988   3.372  12.502  0.00  0.00    +0.000 A 
ATOM     12  C   UNL     1       7.075   3.859  11.791  0.00  0.00    +0.000 A 
ATOM     13  C   UNL     1       7.858   4.868  12.341  0.00  0.00    +0.000 A 
ATOM     14  C   UNL     1       7.553   5.387  13.605  0.00  0.00    +0.000 A 
ENDBRANCH   4   9
BRANCH   7  15
ATOM     15  C   UNL     1       4.593   5.539  19.544  0.00  0.00    +0.000 C 
BRANCH  15  16
ATOM     16  C   UNL     1       3.402   4.677  19.913  0.00  0.00    +0.000 A 
ATOM     17  C   UNL     1       2.165   5.259  20.232  0.00  0.00    +0.000 A 
ATOM     18  C   UNL     1       1.055   4.457  20.505  0.00  0.00    +0.000 A 
ATOM     19  C   UNL     1       1.161   3.067  20.471  0.00  0.00    +0.000 A 
ATOM     20  C   UNL     1       2.385   2.475  20.169  0.00  0.00    +0.000 A 
ATOM     21  C   UNL     1       3.494   3.275  19.888  0.00  0.00    +0.000 A 
ENDBRANCH  15  16
ENDBRANCH   7  15
TORSDOF 3
ENDMDL
MODEL 9
REMARK VINA RESULT:      -8.0      1.265      6.991
REMARK  Name = 
REMARK  3 active torsions:
REMARK  status: ('A' for Active; 'I' for Inactive)
REMARK    1  A    between atoms: N_4  and  C_5
REMARK    2  A    between atoms: N_13  and  C_14
REMARK    3  A    between atoms: C_14  and  C_15
REMARK                            x       y       z     vdW  Elec       q    Type
REMARK                         _______ _______ _______ _____ _____    ______ ____
ROOT
ATOM      1  O   UNL     1       5.444   3.391  18.942  0.00  0.00    +0.000 OA
ATOM      2  C   UNL     1       5.292   4.261  18.086  0.00  0.00    +0.000 C 
ATOM      3  N   UNL     1       5.994   4.179  16.907  0.00  0.00    +0.000 N 
ATOM      4  N   UNL     1       6.101   5.225  15.970  0.00  0.00    +0.000 N 
ATOM      5  C   UNL     1       5.443   6.493  16.290  0.00  0.00    +0.000 C 
ATOM      6  C   UNL     1       4.186   6.216  17.111  0.00  0.00    +0.000 C 
ATOM      7  N   UNL     1       4.478   5.358  18.247  0.00  0.00    +0.000 N 
ATOM      8  H   UNL     1       6.765   3.521  16.924  0.00  0.00    +0.000 HD
ENDROOT
BRANCH   4   9
ATOM      9  C   UNL     1       6.393   4.847  14.651  0.00  0.00    +0.000 A 
ATOM     10  C   UNL     1       5.634   3.875  13.967  0.00  0.00    +0.000 A 
ATOM     11  C   UNL     1       5.950   3.463  12.672  0.00  0.00    +0.000 A 
ATOM     12  C   UNL     1       7.038   4.018  12.014  0.00  0.00    +0.000 A 
ATOM     13  C   UNL     1       7.813   4.977  12.658  0.00  0.00    +0.000 A 
ATOM     14  C   UNL     1       7.497   5.379  13.962  0.00  0.00    +0.000 A 
ENDBRANCH   4   9
BRANCH   7  15
ATOM     15  C   UNL     1       3.890   5.648  19.544  0.00  0.00    +0.000 C 
BRANCH  15  16
ATOM     16  C   UNL     1       2.783   4.677  19.902  0.00  0.00    +0.000 A 
ATOM     17  C   UNL     1       1.859   4.251  18.935  0.00  0.00    +0.000 A 
ATOM     18  C   UNL     1       0.883   3.306  19.256  0.00  0.00    +0.000 A 
ATOM     19  C   UNL     1       0.809   2.775  20.544  0.00  0.00    +0.000 A 
ATOM     20  C   UNL     1       1.710   3.198  21.518  0.00  0.00    +0.000 A 
ATOM     21  C   UNL     1       2.691   4.138  21.197  0.00  0.00    +0.000 A 
ENDBRANCH  15  16
ENDBRANCH   7  15
TORSDOF 3
ENDMDL
