MODEL 1
REMARK VINA RESULT:      -7.3      0.000      0.000
REMARK  Name = 
REMARK  4 active torsions:
REMARK  status: ('A' for Active; 'I' for Inactive)
REMARK    1  A    between atoms: C_1  and  O_2
REMARK    2  A    between atoms: O_2  and  C_3
REMARK    3  A    between atoms: C_6  and  C_7
REMARK    4  A    between atoms: C_7  and  C_9
REMARK                            x       y       z     vdW  Elec       q    Type
REMARK                         _______ _______ _______ _____ _____    ______ ____
ROOT
ATOM      1  C   UNL     1       5.021   6.333  17.413  0.00  0.00    +0.000 A 
ATOM      2  C   UNL     1       4.011   7.274  17.437  0.00  0.00    +0.000 A 
ATOM      3  O   UNL     1       3.055   6.942  18.335  0.00  0.00    +0.000 OA
ATOM      4  C   UNL     1       3.402   5.748  18.910  0.00  0.00    +0.000 A 
ATOM      5  C   UNL     1       4.610   5.346  18.361  0.00  0.00    +0.000 A 
ATOM      6  C   UNL     1       5.208   4.114  18.823  0.00  0.00    +0.000 C 
ATOM      7  O   UNL     1       6.328   3.744  18.502  0.00  0.00    +0.000 OA
ATOM      8  C   UNL     1       4.394   3.275  19.822  0.00  0.00    +0.000 C 
ATOM      9  O   UNL     1       4.802   2.173  20.167  0.00  0.00    +0.000 OA
ATOM     10  C   UNL     1       3.112   3.864  20.353  0.00  0.00    +0.000 C 
ATOM     11 BR   UNL     1       2.229   2.834  21.661  0.00  0.00    +0.000 Br
ATOM     12  C   UNL     1       2.654   5.052  19.906  0.00  0.00    +0.000 C 
ATOM     13 BR   UNL     1       1.080   5.884  20.496  0.00  0.00    +0.000 Br
ENDROOT
BRANCH   1  14
ATOM     14  C   UNL     1       6.187   6.351  16.539  0.00  0.00    +0.000 C 
ATOM     15  O   UNL     1       7.153   7.064  16.784  0.00  0.00    +0.000 OA
BRANCH  14  19
ATOM     16  C   UNL     1       6.423   3.834  13.052  0.00  0.00    +0.000 A 
ATOM     17  C   UNL     1       7.460   4.703  13.382  0.00  0.00    +0.000 A 
ATOM     18  C   UNL     1       7.379   5.505  14.526  0.00  0.00    +0.000 A 
ATOM     19  C   UNL     1       6.245   5.454  15.346  0.00  0.00    +0.000 A 
ATOM     20  C   UNL     1       5.189   4.604  14.992  0.00  0.00    +0.000 A 
ATOM     21  C   UNL     1       5.282   3.790  13.855  0.00  0.00    +0.000 A 
BRANCH  16  23
ATOM     22  C   UNL     1       5.550   2.225  11.551  0.00  0.00    +0.000 C 
ATOM     23  O   UNL     1       6.602   3.117  11.901  0.00  0.00    +0.000 OA
ENDBRANCH  16  23
ENDBRANCH  14  19
ENDBRANCH   1  14
TORSDOF 3
ENDMDL
MODEL 2
REMARK VINA RESULT:      -7.3      0.233      1.030
REMARK  Name = 
REMARK  4 active torsions:
REMARK  status: ('A' for Active; 'I' for Inactive)
REMARK    1  A    between atoms: C_1  and  O_2
REMARK    2  A    between atoms: O_2  and  C_3
REMARK    3  A    between atoms: C_6  and  C_7
REMARK    4  A    between atoms: C_7  and  C_9
REMARK                            x       y       z     vdW  Elec       q    Type
REMARK                         _______ _______ _______ _____ _____    ______ ____
ROOT
ATOM      1  C   UNL     1       5.135   6.310  17.389  0.00  0.00    +0.000 A 
ATOM      2  C   UNL     1       4.146   7.274  17.401  0.00  0.00    +0.000 A 
ATOM      3  O   UNL     1       3.177   6.968  18.294  0.00  0.00    +0.000 OA
ATOM      4  C   UNL     1       3.493   5.770  18.878  0.00  0.00    +0.000 A 
ATOM      5  C   UNL     1       4.695   5.338  18.339  0.00  0.00    +0.000 A 
ATOM      6  C   UNL     1       5.262   4.095  18.812  0.00  0.00    +0.000 C 
ATOM      7  O   UNL     1       6.375   3.698  18.500  0.00  0.00    +0.000 OA
ATOM      8  C   UNL     1       4.422   3.280  19.809  0.00  0.00    +0.000 C 
ATOM      9  O   UNL     1       4.802   2.171  20.163  0.00  0.00    +0.000 OA
ATOM     10  C   UNL     1       3.150   3.900  20.328  0.00  0.00    +0.000 C 
ATOM     11 BR   UNL     1       2.235   2.898  21.635  0.00  0.00    +0.000 Br
ATOM     12  C   UNL     1       2.723   5.097  19.871  0.00  0.00    +0.000 C 
ATOM     13 BR   UNL     1       1.164   5.966  20.447  0.00  0.00    +0.000 Br
ENDROOT
BRANCH   1  14
ATOM     14  C   UNL     1       6.307   6.297  16.523  0.00  0.00    +0.000 C 
ATOM     15  O   UNL     1       7.312   6.940  16.805  0.00  0.00    +0.000 OA
BRANCH  14  19
ATOM     16  C   UNL     1       6.288   3.787  13.023  0.00  0.00    +0.000 A 
ATOM     17  C   UNL     1       5.243   3.745  13.942  0.00  0.00    +0.000 A 
ATOM     18  C   UNL     1       5.252   4.577  15.068  0.00  0.00    +0.000 A 
ATOM     19  C   UNL     1       6.322   5.452  15.291  0.00  0.00    +0.000 A 
ATOM     20  C   UNL     1       7.389   5.466  14.382  0.00  0.00    +0.000 A 
ATOM     21  C   UNL     1       7.366   4.645  13.247  0.00  0.00    +0.000 A 
BRANCH  16  23
ATOM     22  C   UNL     1       4.882   2.763  11.416  0.00  0.00    +0.000 C 
ATOM     23  O   UNL     1       6.183   2.915  11.975  0.00  0.00    +0.000 OA
ENDBRANCH  16  23
ENDBRANCH  14  19
ENDBRANCH   1  14
TORSDOF 3
ENDMDL
MODEL 3
REMARK VINA RESULT:      -6.7      5.241      8.172
REMARK  Name = 
REMARK  4 active torsions:
REMARK  status: ('A' for Active; 'I' for Inactive)
REMARK    1  A    between atoms: C_1  and  O_2
REMARK    2  A    between atoms: O_2  and  C_3
REMARK    3  A    between atoms: C_6  and  C_7
REMARK    4  A    between atoms: C_7  and  C_9
REMARK                            x       y       z     vdW  Elec       q    Type
REMARK                         _______ _______ _______ _____ _____    ______ ____
ROOT
ATOM      1  C   UNL     1       1.553   9.093  18.843  0.00  0.00    +0.000 A 
ATOM      2  C   UNL     1       2.206   9.485  17.691  0.00  0.00    +0.000 A 
ATOM      3  O   UNL     1       3.050   8.522  17.256  0.00  0.00    +0.000 OA
ATOM      4  C   UNL     1       2.994   7.472  18.135  0.00  0.00    +0.000 A 
ATOM      5  C   UNL     1       2.080   7.795  19.126  0.00  0.00    +0.000 A 
ATOM      6  C   UNL     1       1.820   6.832  20.172  0.00  0.00    +0.000 C 
ATOM      7  O   UNL     1       0.940   6.965  21.009  0.00  0.00    +0.000 OA
ATOM      8  C   UNL     1       2.670   5.551  20.168  0.00  0.00    +0.000 C 
ATOM      9  O   UNL     1       2.568   4.749  21.088  0.00  0.00    +0.000 OA
ATOM     10  C   UNL     1       3.599   5.328  19.002  0.00  0.00    +0.000 C 
ATOM     11 BR   UNL     1       4.521   3.685  19.004  0.00  0.00    +0.000 Br
ATOM     12  C   UNL     1       3.739   6.260  18.036  0.00  0.00    +0.000 C 
ATOM     13 BR   UNL     1       4.857   6.090  16.539  0.00  0.00    +0.000 Br
ENDROOT
BRANCH   1  14
ATOM     14  C   UNL     1       0.604   9.895  19.605  0.00  0.00    +0.000 C 
ATOM     15  O   UNL     1       0.837  10.226  20.762  0.00  0.00    +0.000 OA
BRANCH  14  19
ATOM     16  C   UNL     1      -3.067  11.315  17.855  0.00  0.00    +0.000 A 
ATOM     17  C   UNL     1      -2.570  11.870  19.032  0.00  0.00    +0.000 A 
ATOM     18  C   UNL     1      -1.368  11.411  19.583  0.00  0.00    +0.000 A 
ATOM     19  C   UNL     1      -0.657  10.376  18.964  0.00  0.00    +0.000 A 
ATOM     20  C   UNL     1      -1.177   9.796  17.799  0.00  0.00    +0.000 A 
ATOM     21  C   UNL     1      -2.372  10.271  17.242  0.00  0.00    +0.000 A 
BRANCH  16  23
ATOM     22  C   UNL     1      -5.428  11.134  17.850  0.00  0.00    +0.000 C 
ATOM     23  O   UNL     1      -4.259  11.826  17.423  0.00  0.00    +0.000 OA
ENDBRANCH  16  23
ENDBRANCH  14  19
ENDBRANCH   1  14
TORSDOF 3
ENDMDL
MODEL 4
REMARK VINA RESULT:      -6.7      5.230      8.128
REMARK  Name = 
REMARK  4 active torsions:
REMARK  status: ('A' for Active; 'I' for Inactive)
REMARK    1  A    between atoms: C_1  and  O_2
REMARK    2  A    between atoms: O_2  and  C_3
REMARK    3  A    between atoms: C_6  and  C_7
REMARK    4  A    between atoms: C_7  and  C_9
REMARK                            x       y       z     vdW  Elec       q    Type
REMARK                         _______ _______ _______ _____ _____    ______ ____
ROOT
ATOM      1  C   UNL     1       1.522   9.088  18.827  0.00  0.00    +0.000 A 
ATOM      2  C   UNL     1       2.176   9.496  17.682  0.00  0.00    +0.000 A 
ATOM      3  O   UNL     1       3.041   8.550  17.249  0.00  0.00    +0.000 OA
ATOM      4  C   UNL     1       2.997   7.496  18.123  0.00  0.00    +0.000 A 
ATOM      5  C   UNL     1       2.070   7.798  19.109  0.00  0.00    +0.000 A 
ATOM      6  C   UNL     1       1.819   6.826  20.149  0.00  0.00    +0.000 C 
ATOM      7  O   UNL     1       0.930   6.940  20.980  0.00  0.00    +0.000 OA
ATOM      8  C   UNL     1       2.692   5.560  20.145  0.00  0.00    +0.000 C 
ATOM      9  O   UNL     1       2.598   4.752  21.061  0.00  0.00    +0.000 OA
ATOM     10  C   UNL     1       3.634   5.359  18.986  0.00  0.00    +0.000 C 
ATOM     11 BR   UNL     1       4.584   3.732  18.988  0.00  0.00    +0.000 Br
ATOM     12  C   UNL     1       3.764   6.297  18.025  0.00  0.00    +0.000 C 
ATOM     13 BR   UNL     1       4.897   6.154  16.536  0.00  0.00    +0.000 Br
ENDROOT
BRANCH   1  14
ATOM     14  C   UNL     1       0.553   9.869  19.585  0.00  0.00    +0.000 C 
ATOM     15  O   UNL     1       0.760  10.177  20.753  0.00  0.00    +0.000 OA
BRANCH  14  19
ATOM     16  C   UNL     1      -3.010  11.247  17.595  0.00  0.00    +0.000 A 
ATOM     17  C   UNL     1      -2.229  10.232  17.048  0.00  0.00    +0.000 A 
ATOM     18  C   UNL     1      -1.081   9.781  17.711  0.00  0.00    +0.000 A 
ATOM     19  C   UNL     1      -0.697  10.358  18.928  0.00  0.00    +0.000 A 
ATOM     20  C   UNL     1      -1.465  11.403  19.458  0.00  0.00    +0.000 A 
ATOM     21  C   UNL     1      -2.623  11.839  18.799  0.00  0.00    +0.000 A 
BRANCH  16  23
ATOM     22  C   UNL     1      -5.290  11.884  17.573  0.00  0.00    +0.000 C 
ATOM     23  O   UNL     1      -4.093  11.620  16.849  0.00  0.00    +0.000 OA
ENDBRANCH  16  23
ENDBRANCH  14  19
ENDBRANCH   1  14
TORSDOF 3
ENDMDL
MODEL 5
REMARK VINA RESULT:      -6.7      5.276      8.281
REMARK  Name = 
REMARK  4 active torsions:
REMARK  status: ('A' for Active; 'I' for Inactive)
REMARK    1  A    between atoms: C_1  and  O_2
REMARK    2  A    between atoms: O_2  and  C_3
REMARK    3  A    between atoms: C_6  and  C_7
REMARK    4  A    between atoms: C_7  and  C_9
REMARK                            x       y       z     vdW  Elec       q    Type
REMARK                         _______ _______ _______ _____ _____    ______ ____
ROOT
ATOM      1  C   UNL     1       0.932   9.146  20.071  0.00  0.00    +0.000 A 
ATOM      2  C   UNL     1       0.484   8.453  21.179  0.00  0.00    +0.000 A 
ATOM      3  O   UNL     1       1.033   7.218  21.237  0.00  0.00    +0.000 OA
ATOM      4  C   UNL     1       1.842   7.055  20.143  0.00  0.00    +0.000 A 
ATOM      5  C   UNL     1       1.800   8.227  19.404  0.00  0.00    +0.000 A 
ATOM      6  C   UNL     1       2.595   8.319  18.201  0.00  0.00    +0.000 C 
ATOM      7  O   UNL     1       2.730   9.349  17.557  0.00  0.00    +0.000 OA
ATOM      8  C   UNL     1       3.352   7.053  17.767  0.00  0.00    +0.000 C 
ATOM      9  O   UNL     1       3.956   7.040  16.701  0.00  0.00    +0.000 OA
ATOM     10  C   UNL     1       3.328   5.867  18.695  0.00  0.00    +0.000 C 
ATOM     11 BR   UNL     1       4.372   4.394  18.156  0.00  0.00    +0.000 Br
ATOM     12  C   UNL     1       2.600   5.888  19.832  0.00  0.00    +0.000 C 
ATOM     13 BR   UNL     1       2.499   4.477  21.064  0.00  0.00    +0.000 Br
ENDROOT
BRANCH   1  14
ATOM     14  C   UNL     1       0.518  10.486  19.675  0.00  0.00    +0.000 C 
ATOM     15  O   UNL     1       1.223  11.462  19.906  0.00  0.00    +0.000 OA
BRANCH  14  19
ATOM     16  C   UNL     1      -3.115  11.043  17.430  0.00  0.00    +0.000 A 
ATOM     17  C   UNL     1      -2.119  10.177  16.983  0.00  0.00    +0.000 A 
ATOM     18  C   UNL     1      -0.950   9.993  17.729  0.00  0.00    +0.000 A 
ATOM     19  C   UNL     1      -0.760  10.688  18.929  0.00  0.00    +0.000 A 
ATOM     20  C   UNL     1      -1.748  11.585  19.358  0.00  0.00    +0.000 A 
ATOM     21  C   UNL     1      -2.926  11.753  18.617  0.00  0.00    +0.000 A 
BRANCH  16  23
ATOM     22  C   UNL     1      -5.265  11.976  17.093  0.00  0.00    +0.000 C 
ATOM     23  O   UNL     1      -4.203  11.161  16.610  0.00  0.00    +0.000 OA
ENDBRANCH  16  23
ENDBRANCH  14  19
ENDBRANCH   1  14
TORSDOF 3
ENDMDL
MODEL 6
REMARK VINA RESULT:      -6.6      5.281      8.316
REMARK  Name = 
REMARK  4 active torsions:
REMARK  status: ('A' for Active; 'I' for Inactive)
REMARK    1  A    between atoms: C_1  and  O_2
REMARK    2  A    between atoms: O_2  and  C_3
REMARK    3  A    between atoms: C_6  and  C_7
REMARK    4  A    between atoms: C_7  and  C_9
REMARK                            x       y       z     vdW  Elec       q    Type
REMARK                         _______ _______ _______ _____ _____    ______ ____
ROOT
ATOM      1  C   UNL     1       0.926   9.160  20.083  0.00  0.00    +0.000 A 
ATOM      2  C   UNL     1       0.487   8.465  21.192  0.00  0.00    +0.000 A 
ATOM      3  O   UNL     1       1.035   7.229  21.243  0.00  0.00    +0.000 OA
ATOM      4  C   UNL     1       1.835   7.068  20.142  0.00  0.00    +0.000 A 
ATOM      5  C   UNL     1       1.788   8.242  19.406  0.00  0.00    +0.000 A 
ATOM      6  C   UNL     1       2.573   8.337  18.196  0.00  0.00    +0.000 C 
ATOM      7  O   UNL     1       2.704   9.369  17.555  0.00  0.00    +0.000 OA
ATOM      8  C   UNL     1       3.325   7.071  17.753  0.00  0.00    +0.000 C 
ATOM      9  O   UNL     1       3.921   7.060  16.682  0.00  0.00    +0.000 OA
ATOM     10  C   UNL     1       3.308   5.882  18.678  0.00  0.00    +0.000 C 
ATOM     11 BR   UNL     1       4.346   4.411  18.126  0.00  0.00    +0.000 Br
ATOM     12  C   UNL     1       2.589   5.901  19.821  0.00  0.00    +0.000 C 
ATOM     13 BR   UNL     1       2.497   4.487  21.050  0.00  0.00    +0.000 Br
ENDROOT
BRANCH   1  14
ATOM     14  C   UNL     1       0.511  10.502  19.695  0.00  0.00    +0.000 C 
ATOM     15  O   UNL     1       1.181  11.485  19.991  0.00  0.00    +0.000 OA
BRANCH  14  19
ATOM     16  C   UNL     1      -3.100  11.097  17.423  0.00  0.00    +0.000 A 
ATOM     17  C   UNL     1      -2.882  11.779  18.619  0.00  0.00    +0.000 A 
ATOM     18  C   UNL     1      -1.698  11.589  19.341  0.00  0.00    +0.000 A 
ATOM     19  C   UNL     1      -0.723  10.699  18.876  0.00  0.00    +0.000 A 
ATOM     20  C   UNL     1      -0.960   9.989  17.691  0.00  0.00    +0.000 A 
ATOM     21  C   UNL     1      -2.139  10.196  16.962  0.00  0.00    +0.000 A 
BRANCH  16  23
ATOM     22  C   UNL     1      -5.432  11.413  17.677  0.00  0.00    +0.000 C 
ATOM     23  O   UNL     1      -4.300  11.345  16.817  0.00  0.00    +0.000 OA
ENDBRANCH  16  23
ENDBRANCH  14  19
ENDBRANCH   1  14
TORSDOF 3
ENDMDL
MODEL 7
REMARK VINA RESULT:      -6.6      4.905      7.439
REMARK  Name = 
REMARK  4 active torsions:
REMARK  status: ('A' for Active; 'I' for Inactive)
REMARK    1  A    between atoms: C_1  and  O_2
REMARK    2  A    between atoms: O_2  and  C_3
REMARK    3  A    between atoms: C_6  and  C_7
REMARK    4  A    between atoms: C_7  and  C_9
REMARK                            x       y       z     vdW  Elec       q    Type
REMARK                         _______ _______ _______ _____ _____    ______ ____
ROOT
ATOM      1  C   UNL     1       1.418   8.549  20.083  0.00  0.00    +0.000 A 
ATOM      2  C   UNL     1       1.530   8.492  21.458  0.00  0.00    +0.000 A 
ATOM      3  O   UNL     1       0.696   9.376  22.053  0.00  0.00    +0.000 OA
ATOM      4  C   UNL     1       0.029  10.063  21.074  0.00  0.00    +0.000 A 
ATOM      5  C   UNL     1       0.453   9.577  19.847  0.00  0.00    +0.000 A 
ATOM      6  C   UNL     1      -0.124  10.129  18.642  0.00  0.00    +0.000 C 
ATOM      7  O   UNL     1       0.083   9.677  17.526  0.00  0.00    +0.000 OA
ATOM      8  C   UNL     1      -1.098  11.306  18.812  0.00  0.00    +0.000 C 
ATOM      9  O   UNL     1      -1.536  11.882  17.823  0.00  0.00    +0.000 OA
ATOM     10  C   UNL     1      -1.488  11.699  20.214  0.00  0.00    +0.000 C 
ATOM     11 BR   UNL     1      -2.774  13.070  20.342  0.00  0.00    +0.000 Br
ATOM     12  C   UNL     1      -0.939  11.089  21.286  0.00  0.00    +0.000 C 
ATOM     13 BR   UNL     1      -1.351  11.489  23.071  0.00  0.00    +0.000 Br
ENDROOT
BRANCH   1  14
ATOM     14  C   UNL     1       2.193   7.767  19.129  0.00  0.00    +0.000 C 
ATOM     15  O   UNL     1       2.890   8.311  18.279  0.00  0.00    +0.000 OA
BRANCH  14  19
ATOM     16  C   UNL     1       2.171   3.461  19.239  0.00  0.00    +0.000 A 
ATOM     17  C   UNL     1       2.489   4.148  18.070  0.00  0.00    +0.000 A 
ATOM     18  C   UNL     1       2.509   5.548  18.050  0.00  0.00    +0.000 A 
ATOM     19  C   UNL     1       2.193   6.275  19.204  0.00  0.00    +0.000 A 
ATOM     20  C   UNL     1       1.838   5.581  20.369  0.00  0.00    +0.000 A 
ATOM     21  C   UNL     1       1.838   4.179  20.389  0.00  0.00    +0.000 A 
BRANCH  16  23
ATOM     22  C   UNL     1       3.327   1.507  18.569  0.00  0.00    +0.000 C 
ATOM     23  O   UNL     1       2.162   2.098  19.135  0.00  0.00    +0.000 OA
ENDBRANCH  16  23
ENDBRANCH  14  19
ENDBRANCH   1  14
TORSDOF 3
ENDMDL
MODEL 8
REMARK VINA RESULT:      -6.5      6.110      8.676
REMARK  Name = 
REMARK  4 active torsions:
REMARK  status: ('A' for Active; 'I' for Inactive)
REMARK    1  A    between atoms: C_1  and  O_2
REMARK    2  A    between atoms: O_2  and  C_3
REMARK    3  A    between atoms: C_6  and  C_7
REMARK    4  A    between atoms: C_7  and  C_9
REMARK                            x       y       z     vdW  Elec       q    Type
REMARK                         _______ _______ _______ _____ _____    ______ ____
ROOT
ATOM      1  C   UNL     1       0.041  10.749  18.748  0.00  0.00    +0.000 A 
ATOM      2  C   UNL     1      -1.077  10.510  17.974  0.00  0.00    +0.000 A 
ATOM      3  O   UNL     1      -2.175  11.093  18.509  0.00  0.00    +0.000 OA
ATOM      4  C   UNL     1      -1.808  11.713  19.674  0.00  0.00    +0.000 A 
ATOM      5  C   UNL     1      -0.447  11.518  19.850  0.00  0.00    +0.000 A 
ATOM      6  C   UNL     1       0.195  12.099  21.007  0.00  0.00    +0.000 C 
ATOM      7  O   UNL     1       1.405  12.098  21.180  0.00  0.00    +0.000 OA
ATOM      8  C   UNL     1      -0.713  12.806  22.026  0.00  0.00    +0.000 C 
ATOM      9  O   UNL     1      -0.240  13.225  23.076  0.00  0.00    +0.000 OA
ATOM     10  C   UNL     1      -2.170  12.968  21.677  0.00  0.00    +0.000 C 
ATOM     11 BR   UNL     1      -3.197  13.946  22.917  0.00  0.00    +0.000 Br
ATOM     12  C   UNL     1      -2.676  12.439  20.542  0.00  0.00    +0.000 C 
ATOM     13 BR   UNL     1      -4.466  12.581  20.002  0.00  0.00    +0.000 Br
ENDROOT
BRANCH   1  14
ATOM     14  C   UNL     1       1.383  10.241  18.493  0.00  0.00    +0.000 C 
ATOM     15  O   UNL     1       2.254  10.959  18.016  0.00  0.00    +0.000 OA
BRANCH  14  19
ATOM     16  C   UNL     1       2.416   6.224  19.653  0.00  0.00    +0.000 A 
ATOM     17  C   UNL     1       1.857   7.114  20.567  0.00  0.00    +0.000 A 
ATOM     18  C   UNL     1       1.511   8.412  20.175  0.00  0.00    +0.000 A 
ATOM     19  C   UNL     1       1.737   8.836  18.860  0.00  0.00    +0.000 A 
ATOM     20  C   UNL     1       2.331   7.949  17.952  0.00  0.00    +0.000 A 
ATOM     21  C   UNL     1       2.660   6.644  18.345  0.00  0.00    +0.000 A 
BRANCH  16  23
ATOM     22  C   UNL     1       3.770   4.289  19.476  0.00  0.00    +0.000 C 
ATOM     23  O   UNL     1       2.734   4.992  20.154  0.00  0.00    +0.000 OA
ENDBRANCH  16  23
ENDBRANCH  14  19
ENDBRANCH   1  14
TORSDOF 3
ENDMDL
MODEL 9
REMARK VINA RESULT:      -6.5      6.699      9.418
REMARK  Name = 
REMARK  4 active torsions:
REMARK  status: ('A' for Active; 'I' for Inactive)
REMARK    1  A    between atoms: C_1  and  O_2
REMARK    2  A    between atoms: O_2  and  C_3
REMARK    3  A    between atoms: C_6  and  C_7
REMARK    4  A    between atoms: C_7  and  C_9
REMARK                            x       y       z     vdW  Elec       q    Type
REMARK                         _______ _______ _______ _____ _____    ______ ____
ROOT
ATOM      1  C   UNL     1      -0.741  10.784  18.380  0.00  0.00    +0.000 A 
ATOM      2  C   UNL     1      -1.441  10.124  17.390  0.00  0.00    +0.000 A 
ATOM      3  O   UNL     1      -2.758  10.429  17.437  0.00  0.00    +0.000 OA
ATOM      4  C   UNL     1      -2.965  11.283  18.488  0.00  0.00    +0.000 A 
ATOM      5  C   UNL     1      -1.739  11.520  19.091  0.00  0.00    +0.000 A 
ATOM      6  C   UNL     1      -1.683  12.417  20.223  0.00  0.00    +0.000 C 
ATOM      7  O   UNL     1      -0.640  12.793  20.736  0.00  0.00    +0.000 OA
ATOM      8  C   UNL     1      -3.022  12.960  20.749  0.00  0.00    +0.000 C 
ATOM      9  O   UNL     1      -3.046  13.639  21.769  0.00  0.00    +0.000 OA
ATOM     10  C   UNL     1      -4.268  12.639  19.964  0.00  0.00    +0.000 C 
ATOM     11 BR   UNL     1      -5.853  13.435  20.599  0.00  0.00    +0.000 Br
ATOM     12  C   UNL     1      -4.220  11.835  18.881  0.00  0.00    +0.000 C 
ATOM     13 BR   UNL     1      -5.700  11.372  17.826  0.00  0.00    +0.000 Br
ENDROOT
BRANCH   1  14
ATOM     14  C   UNL     1       0.686  10.660  18.647  0.00  0.00    +0.000 C 
ATOM     15  O   UNL     1       1.409  11.648  18.705  0.00  0.00    +0.000 OA
BRANCH  14  19
ATOM     16  C   UNL     1       2.434   6.818  19.505  0.00  0.00    +0.000 A 
ATOM     17  C   UNL     1       1.770   7.542  20.493  0.00  0.00    +0.000 A 
ATOM     18  C   UNL     1       1.193   8.783  20.198  0.00  0.00    +0.000 A 
ATOM     19  C   UNL     1       1.288   9.318  18.908  0.00  0.00    +0.000 A 
ATOM     20  C   UNL     1       1.987   8.603  17.926  0.00  0.00    +0.000 A 
ATOM     21  C   UNL     1       2.548   7.353  18.220  0.00  0.00    +0.000 A 
BRANCH  16  23
ATOM     22  C   UNL     1       2.213   4.884  20.853  0.00  0.00    +0.000 C 
ATOM     23  O   UNL     1       2.977   5.631  19.912  0.00  0.00    +0.000 OA
ENDBRANCH  16  23
ENDBRANCH  14  19
ENDBRANCH   1  14
TORSDOF 3
ENDMDL
