MODEL 1
REMARK VINA RESULT:      -7.6      0.000      0.000
REMARK  Name = 
REMARK  5 active torsions:
REMARK  status: ('A' for Active; 'I' for Inactive)
REMARK    1  A    between atoms: C_2  and  C_3
REMARK    2  A    between atoms: C_3  and  N_4
REMARK    3  A    between atoms: C_8  and  C_9
REMARK    4  A    between atoms: N_14  and  C_15
REMARK    5  A    between atoms: C_15  and  C_16
REMARK                            x       y       z     vdW  Elec       q    Type
REMARK                         _______ _______ _______ _____ _____    ______ ____
ROOT
ATOM      1  O   UNL     1       4.857   5.388  19.463  0.00  0.00    +0.000 OA
ATOM      2  C   UNL     1       5.707   4.574  19.109  0.00  0.00    +0.000 C 
ATOM      3  N   UNL     1       5.465   3.206  19.068  0.00  0.00    +0.000 N 
ATOM      4  H   UNL     1       6.218   2.583  18.831  0.00  0.00    +0.000 HD
ENDROOT
BRANCH   2   5
ATOM      5  C   UNL     1       7.121   4.972  18.672  0.00  0.00    +0.000 C 
BRANCH   5   6
ATOM      6  N   UNL     1       7.150   5.492  17.288  0.00  0.00    +0.000 NA
ATOM      7  C   UNL     1       7.189   6.959  17.279  0.00  0.00    +0.000 C 
ATOM      8  C   UNL     1       5.751   7.385  17.095  0.00  0.00    +0.000 C 
ATOM      9  C   UNL     1       5.253   6.367  16.091  0.00  0.00    +0.000 C 
ATOM     10  C   UNL     1       6.004   5.071  16.446  0.00  0.00    +0.000 C 
BRANCH  10  11
ATOM     11  C   UNL     1       6.418   4.300  15.163  0.00  0.00    +0.000 C 
ATOM     12  C   UNL     1       5.272   3.868  14.240  0.00  0.00    +0.000 C 
ATOM     13  C   UNL     1       5.940   3.569  12.905  0.00  0.00    +0.000 C 
ATOM     14  C   UNL     1       7.194   4.440  12.859  0.00  0.00    +0.000 C 
ATOM     15  C   UNL     1       7.314   5.110  14.224  0.00  0.00    +0.000 C 
ENDBRANCH  10  11
ENDBRANCH   5   6
ENDBRANCH   2   5
BRANCH   3  16
ATOM     16  C   UNL     1       4.270   2.647  19.670  0.00  0.00    +0.000 C 
BRANCH  16  17
ATOM     17  C   UNL     1       3.276   2.008  18.679  0.00  0.00    +0.000 C 
ATOM     18  C   UNL     1       1.863   2.020  19.290  0.00  0.00    +0.000 C 
ATOM     19  C   UNL     1       1.251   3.421  19.306  0.00  0.00    +0.000 C 
ATOM     20  C   UNL     1       1.152   3.977  17.892  0.00  0.00    +0.000 C 
ATOM     21  C   UNL     1       2.506   3.982  17.188  0.00  0.00    +0.000 C 
ATOM     22  C   UNL     1       3.243   2.644  17.276  0.00  0.00    +0.000 C 
ENDBRANCH  16  17
ENDBRANCH   3  16
TORSDOF 5
ENDMDL
MODEL 2
REMARK VINA RESULT:      -7.6      2.326      5.920
REMARK  Name = 
REMARK  5 active torsions:
REMARK  status: ('A' for Active; 'I' for Inactive)
REMARK    1  A    between atoms: C_2  and  C_3
REMARK    2  A    between atoms: C_3  and  N_4
REMARK    3  A    between atoms: C_8  and  C_9
REMARK    4  A    between atoms: N_14  and  C_15
REMARK    5  A    between atoms: C_15  and  C_16
REMARK                            x       y       z     vdW  Elec       q    Type
REMARK                         _______ _______ _______ _____ _____    ______ ____
ROOT
ATOM      1  O   UNL     1       3.381   1.573  17.916  0.00  0.00    +0.000 OA
ATOM      2  C   UNL     1       4.013   2.399  18.570  0.00  0.00    +0.000 C 
ATOM      3  N   UNL     1       4.755   3.416  17.979  0.00  0.00    +0.000 N 
ATOM      4  H   UNL     1       5.304   4.024  18.562  0.00  0.00    +0.000 HD
ENDROOT
BRANCH   2   5
ATOM      5  C   UNL     1       4.054   2.406  20.102  0.00  0.00    +0.000 C 
BRANCH   5   6
ATOM      6  N   UNL     1       3.264   3.515  20.675  0.00  0.00    +0.000 NA
ATOM      7  C   UNL     1       2.409   3.041  21.771  0.00  0.00    +0.000 C 
ATOM      8  C   UNL     1       1.060   2.799  21.135  0.00  0.00    +0.000 C 
ATOM      9  C   UNL     1       0.950   3.972  20.185  0.00  0.00    +0.000 C 
ATOM     10  C   UNL     1       2.391   4.219  19.703  0.00  0.00    +0.000 C 
BRANCH  10  11
ATOM     11  C   UNL     1       2.684   5.739  19.582  0.00  0.00    +0.000 C 
ATOM     12  C   UNL     1       2.497   6.350  18.189  0.00  0.00    +0.000 C 
ATOM     13  C   UNL     1       2.394   7.849  18.433  0.00  0.00    +0.000 C 
ATOM     14  C   UNL     1       1.839   8.007  19.847  0.00  0.00    +0.000 C 
ATOM     15  C   UNL     1       1.774   6.608  20.452  0.00  0.00    +0.000 C 
ENDBRANCH  10  11
ENDBRANCH   5   6
ENDBRANCH   2   5
BRANCH   3  16
ATOM     16  C   UNL     1       5.015   3.409  16.552  0.00  0.00    +0.000 C 
BRANCH  16  17
ATOM     17  C   UNL     1       6.277   4.179  16.114  0.00  0.00    +0.000 C 
ATOM     18  C   UNL     1       5.869   5.369  15.226  0.00  0.00    +0.000 C 
ATOM     19  C   UNL     1       5.220   6.497  16.029  0.00  0.00    +0.000 C 
ATOM     20  C   UNL     1       6.179   7.015  17.093  0.00  0.00    +0.000 C 
ATOM     21  C   UNL     1       6.664   5.899  18.013  0.00  0.00    +0.000 C 
ATOM     22  C   UNL     1       7.181   4.670  17.260  0.00  0.00    +0.000 C 
ENDBRANCH  16  17
ENDBRANCH   3  16
TORSDOF 5
ENDMDL
MODEL 3
REMARK VINA RESULT:      -7.4      3.693      7.651
REMARK  Name = 
REMARK  5 active torsions:
REMARK  status: ('A' for Active; 'I' for Inactive)
REMARK    1  A    between atoms: C_2  and  C_3
REMARK    2  A    between atoms: C_3  and  N_4
REMARK    3  A    between atoms: C_8  and  C_9
REMARK    4  A    between atoms: N_14  and  C_15
REMARK    5  A    between atoms: C_15  and  C_16
REMARK                            x       y       z     vdW  Elec       q    Type
REMARK                         _______ _______ _______ _____ _____    ______ ____
ROOT
ATOM      1  O   UNL     1       8.274   6.898  18.873  0.00  0.00    +0.000 OA
ATOM      2  C   UNL     1       7.755   7.608  18.015  0.00  0.00    +0.000 C 
ATOM      3  N   UNL     1       8.123   8.934  17.815  0.00  0.00    +0.000 N 
ATOM      4  H   UNL     1       7.619   9.485  17.142  0.00  0.00    +0.000 HD
ENDROOT
BRANCH   2   5
ATOM      5  C   UNL     1       6.652   7.117  17.072  0.00  0.00    +0.000 C 
BRANCH   5   6
ATOM      6  N   UNL     1       6.255   5.723  17.357  0.00  0.00    +0.000 NA
ATOM      7  C   UNL     1       7.191   4.773  16.743  0.00  0.00    +0.000 C 
ATOM      8  C   UNL     1       6.543   4.380  15.435  0.00  0.00    +0.000 C 
ATOM      9  C   UNL     1       5.087   4.270  15.832  0.00  0.00    +0.000 C 
ATOM     10  C   UNL     1       4.891   5.362  16.899  0.00  0.00    +0.000 C 
BRANCH  10  11
ATOM     11  C   UNL     1       3.957   4.867  18.036  0.00  0.00    +0.000 C 
ATOM     12  C   UNL     1       2.467   5.193  17.872  0.00  0.00    +0.000 C 
ATOM     13  C   UNL     1       1.755   4.242  18.824  0.00  0.00    +0.000 C 
ATOM     14  C   UNL     1       2.661   3.021  18.954  0.00  0.00    +0.000 C 
ATOM     15  C   UNL     1       3.948   3.346  18.202  0.00  0.00    +0.000 C 
ENDBRANCH  10  11
ENDBRANCH   5   6
ENDBRANCH   2   5
BRANCH   3  16
ATOM     16  C   UNL     1       8.974   9.618  18.770  0.00  0.00    +0.000 C 
BRANCH  16  17
ATOM     17  C   UNL     1       9.190  11.120  18.493  0.00  0.00    +0.000 C 
ATOM     18  C   UNL     1       9.111  11.902  19.817  0.00  0.00    +0.000 C 
ATOM     19  C   UNL     1      10.344  11.685  20.693  0.00  0.00    +0.000 C 
ATOM     20  C   UNL     1      11.604  12.131  19.962  0.00  0.00    +0.000 C 
ATOM     21  C   UNL     1      11.759  11.428  18.617  0.00  0.00    +0.000 C 
ATOM     22  C   UNL     1      10.495  11.474  17.756  0.00  0.00    +0.000 C 
ENDBRANCH  16  17
ENDBRANCH   3  16
TORSDOF 5
ENDMDL
MODEL 4
REMARK VINA RESULT:      -7.4      1.059      1.643
REMARK  Name = 
REMARK  5 active torsions:
REMARK  status: ('A' for Active; 'I' for Inactive)
REMARK    1  A    between atoms: C_2  and  C_3
REMARK    2  A    between atoms: C_3  and  N_4
REMARK    3  A    between atoms: C_8  and  C_9
REMARK    4  A    between atoms: N_14  and  C_15
REMARK    5  A    between atoms: C_15  and  C_16
REMARK                            x       y       z     vdW  Elec       q    Type
REMARK                         _______ _______ _______ _____ _____    ______ ____
ROOT
ATOM      1  O   UNL     1       5.918   4.707  19.490  0.00  0.00    +0.000 OA
ATOM      2  C   UNL     1       6.093   4.231  18.372  0.00  0.00    +0.000 C 
ATOM      3  N   UNL     1       5.143   3.442  17.734  0.00  0.00    +0.000 N 
ATOM      4  H   UNL     1       5.368   3.027  16.846  0.00  0.00    +0.000 HD
ENDROOT
BRANCH   2   5
ATOM      5  C   UNL     1       7.370   4.454  17.555  0.00  0.00    +0.000 C 
BRANCH   5   6
ATOM      6  N   UNL     1       7.172   5.437  16.469  0.00  0.00    +0.000 NA
ATOM      7  C   UNL     1       7.278   6.810  16.978  0.00  0.00    +0.000 C 
ATOM      8  C   UNL     1       5.852   7.242  17.230  0.00  0.00    +0.000 C 
ATOM      9  C   UNL     1       5.132   6.644  16.041  0.00  0.00    +0.000 C 
ATOM     10  C   UNL     1       5.873   5.324  15.762  0.00  0.00    +0.000 C 
BRANCH  10  11
ATOM     11  C   UNL     1       6.010   5.075  14.235  0.00  0.00    +0.000 C 
ATOM     12  C   UNL     1       7.442   4.999  13.692  0.00  0.00    +0.000 C 
ATOM     13  C   UNL     1       7.308   4.317  12.338  0.00  0.00    +0.000 C 
ATOM     14  C   UNL     1       6.060   3.442  12.430  0.00  0.00    +0.000 C 
ATOM     15  C   UNL     1       5.408   3.745  13.776  0.00  0.00    +0.000 C 
ENDBRANCH  10  11
ENDBRANCH   5   6
ENDBRANCH   2   5
BRANCH   3  16
ATOM     16  C   UNL     1       3.990   2.941  18.457  0.00  0.00    +0.000 C 
BRANCH  16  17
ATOM     17  C   UNL     1       2.638   3.549  18.033  0.00  0.00    +0.000 C 
ATOM     18  C   UNL     1       1.490   2.672  18.566  0.00  0.00    +0.000 C 
ATOM     19  C   UNL     1       1.305   2.815  20.077  0.00  0.00    +0.000 C 
ATOM     20  C   UNL     1       0.994   4.261  20.442  0.00  0.00    +0.000 C 
ATOM     21  C   UNL     1       2.067   5.218  19.931  0.00  0.00    +0.000 C 
ATOM     22  C   UNL     1       2.412   5.014  18.454  0.00  0.00    +0.000 C 
ENDBRANCH  16  17
ENDBRANCH   3  16
TORSDOF 5
ENDMDL
MODEL 5
REMARK VINA RESULT:      -7.3      1.113      1.921
REMARK  Name = 
REMARK  5 active torsions:
REMARK  status: ('A' for Active; 'I' for Inactive)
REMARK    1  A    between atoms: C_2  and  C_3
REMARK    2  A    between atoms: C_3  and  N_4
REMARK    3  A    between atoms: C_8  and  C_9
REMARK    4  A    between atoms: N_14  and  C_15
REMARK    5  A    between atoms: C_15  and  C_16
REMARK                            x       y       z     vdW  Elec       q    Type
REMARK                         _______ _______ _______ _____ _____    ______ ____
ROOT
ATOM      1  O   UNL     1       6.464   5.151  19.687  0.00  0.00    +0.000 OA
ATOM      2  C   UNL     1       6.410   4.527  18.630  0.00  0.00    +0.000 C 
ATOM      3  N   UNL     1       5.319   3.740  18.277  0.00  0.00    +0.000 N 
ATOM      4  H   UNL     1       5.358   3.202  17.429  0.00  0.00    +0.000 HD
ENDROOT
BRANCH   2   5
ATOM      5  C   UNL     1       7.529   4.549  17.583  0.00  0.00    +0.000 C 
BRANCH   5   6
ATOM      6  N   UNL     1       7.254   5.508  16.493  0.00  0.00    +0.000 NA
ATOM      7  C   UNL     1       7.312   6.891  16.984  0.00  0.00    +0.000 C 
ATOM      8  C   UNL     1       5.876   7.262  17.275  0.00  0.00    +0.000 C 
ATOM      9  C   UNL     1       5.149   6.617  16.115  0.00  0.00    +0.000 C 
ATOM     10  C   UNL     1       5.940   5.328  15.828  0.00  0.00    +0.000 C 
BRANCH  10  11
ATOM     11  C   UNL     1       6.042   5.067  14.300  0.00  0.00    +0.000 C 
ATOM     12  C   UNL     1       7.457   5.072  13.711  0.00  0.00    +0.000 C 
ATOM     13  C   UNL     1       7.321   4.364  12.370  0.00  0.00    +0.000 C 
ATOM     14  C   UNL     1       6.135   3.415  12.514  0.00  0.00    +0.000 C 
ATOM     15  C   UNL     1       5.510   3.696  13.877  0.00  0.00    +0.000 C 
ENDBRANCH  10  11
ENDBRANCH   5   6
ENDBRANCH   2   5
BRANCH   3  16
ATOM     16  C   UNL     1       4.290   3.423  19.250  0.00  0.00    +0.000 C 
BRANCH  16  17
ATOM     17  C   UNL     1       3.155   4.461  19.361  0.00  0.00    +0.000 C 
ATOM     18  C   UNL     1       2.087   4.171  18.290  0.00  0.00    +0.000 C 
ATOM     19  C   UNL     1       1.255   2.932  18.623  0.00  0.00    +0.000 C 
ATOM     20  C   UNL     1       0.541   3.111  19.956  0.00  0.00    +0.000 C 
ATOM     21  C   UNL     1       1.517   3.431  21.085  0.00  0.00    +0.000 C 
ATOM     22  C   UNL     1       2.489   4.564  20.746  0.00  0.00    +0.000 C 
ENDBRANCH  16  17
ENDBRANCH   3  16
TORSDOF 5
ENDMDL
MODEL 6
REMARK VINA RESULT:      -7.2      3.903      7.814
REMARK  Name = 
REMARK  5 active torsions:
REMARK  status: ('A' for Active; 'I' for Inactive)
REMARK    1  A    between atoms: C_2  and  C_3
REMARK    2  A    between atoms: C_3  and  N_4
REMARK    3  A    between atoms: C_8  and  C_9
REMARK    4  A    between atoms: N_14  and  C_15
REMARK    5  A    between atoms: C_15  and  C_16
REMARK                            x       y       z     vdW  Elec       q    Type
REMARK                         _______ _______ _______ _____ _____    ______ ____
ROOT
ATOM      1  O   UNL     1       8.331   7.015  18.878  0.00  0.00    +0.000 OA
ATOM      2  C   UNL     1       7.876   7.716  17.977  0.00  0.00    +0.000 C 
ATOM      3  N   UNL     1       8.233   9.049  17.810  0.00  0.00    +0.000 N 
ATOM      4  H   UNL     1       7.780   9.591  17.094  0.00  0.00    +0.000 HD
ENDROOT
BRANCH   2   5
ATOM      5  C   UNL     1       6.873   7.203  16.939  0.00  0.00    +0.000 C 
BRANCH   5   6
ATOM      6  N   UNL     1       6.261   5.920  17.342  0.00  0.00    +0.000 NA
ATOM      7  C   UNL     1       7.134   4.790  17.000  0.00  0.00    +0.000 C 
ATOM      8  C   UNL     1       6.614   4.284  15.675  0.00  0.00    +0.000 C 
ATOM      9  C   UNL     1       5.117   4.400  15.864  0.00  0.00    +0.000 C 
ATOM     10  C   UNL     1       4.932   5.653  16.739  0.00  0.00    +0.000 C 
BRANCH  10  11
ATOM     11  C   UNL     1       3.801   5.441  17.782  0.00  0.00    +0.000 C 
ATOM     12  C   UNL     1       4.228   4.822  19.119  0.00  0.00    +0.000 C 
ATOM     13  C   UNL     1       3.087   5.142  20.075  0.00  0.00    +0.000 C 
ATOM     14  C   UNL     1       2.444   6.423  19.549  0.00  0.00    +0.000 C 
ATOM     15  C   UNL     1       3.119   6.739  18.218  0.00  0.00    +0.000 C 
ENDBRANCH  10  11
ENDBRANCH   5   6
ENDBRANCH   2   5
BRANCH   3  16
ATOM     16  C   UNL     1       8.980   9.750  18.838  0.00  0.00    +0.000 C 
BRANCH  16  17
ATOM     17  C   UNL     1       9.231  11.246  18.557  0.00  0.00    +0.000 C 
ATOM     18  C   UNL     1       9.205  12.028  19.883  0.00  0.00    +0.000 C 
ATOM     19  C   UNL     1      10.452  11.775  20.730  0.00  0.00    +0.000 C 
ATOM     20  C   UNL     1      11.706  12.187  19.970  0.00  0.00    +0.000 C 
ATOM     21  C   UNL     1      11.810  11.481  18.621  0.00  0.00    +0.000 C 
ATOM     22  C   UNL     1      10.528  11.564  17.790  0.00  0.00    +0.000 C 
ENDBRANCH  16  17
ENDBRANCH   3  16
TORSDOF 5
ENDMDL
MODEL 7
REMARK VINA RESULT:      -7.2      1.117      1.741
REMARK  Name = 
REMARK  5 active torsions:
REMARK  status: ('A' for Active; 'I' for Inactive)
REMARK    1  A    between atoms: C_2  and  C_3
REMARK    2  A    between atoms: C_3  and  N_4
REMARK    3  A    between atoms: C_8  and  C_9
REMARK    4  A    between atoms: N_14  and  C_15
REMARK    5  A    between atoms: C_15  and  C_16
REMARK                            x       y       z     vdW  Elec       q    Type
REMARK                         _______ _______ _______ _____ _____    ______ ____
ROOT
ATOM      1  O   UNL     1       6.691   5.575  19.801  0.00  0.00    +0.000 OA
ATOM      2  C   UNL     1       6.496   4.789  18.877  0.00  0.00    +0.000 C 
ATOM      3  N   UNL     1       5.261   4.194  18.645  0.00  0.00    +0.000 N 
ATOM      4  H   UNL     1       5.177   3.510  17.913  0.00  0.00    +0.000 HD
ENDROOT
BRANCH   2   5
ATOM      5  C   UNL     1       7.583   4.380  17.878  0.00  0.00    +0.000 C 
BRANCH   5   6
ATOM      6  N   UNL     1       7.435   5.070  16.579  0.00  0.00    +0.000 NA
ATOM      7  C   UNL     1       7.277   6.517  16.769  0.00  0.00    +0.000 C 
ATOM      8  C   UNL     1       5.784   6.753  16.731  0.00  0.00    +0.000 C 
ATOM      9  C   UNL     1       5.350   5.811  15.629  0.00  0.00    +0.000 C 
ATOM     10  C   UNL     1       6.293   4.601  15.757  0.00  0.00    +0.000 C 
BRANCH  10  11
ATOM     11  C   UNL     1       6.704   4.066  14.358  0.00  0.00    +0.000 C 
ATOM     12  C   UNL     1       5.558   3.587  13.459  0.00  0.00    +0.000 C 
ATOM     13  C   UNL     1       6.151   3.560  12.057  0.00  0.00    +0.000 C 
ATOM     14  C   UNL     1       7.263   4.606  12.051  0.00  0.00    +0.000 C 
ATOM     15  C   UNL     1       7.399   5.111  13.484  0.00  0.00    +0.000 C 
ENDBRANCH  10  11
ENDBRANCH   5   6
ENDBRANCH   2   5
BRANCH   3  16
ATOM     16  C   UNL     1       4.198   4.287  19.628  0.00  0.00    +0.000 C 
BRANCH  16  17
ATOM     17  C   UNL     1       2.862   4.843  19.096  0.00  0.00    +0.000 C 
ATOM     18  C   UNL     1       2.502   4.137  17.775  0.00  0.00    +0.000 C 
ATOM     19  C   UNL     1       2.041   2.696  17.995  0.00  0.00    +0.000 C 
ATOM     20  C   UNL     1       0.812   2.660  18.893  0.00  0.00    +0.000 C 
ATOM     21  C   UNL     1       1.061   3.362  20.225  0.00  0.00    +0.000 C 
ATOM     22  C   UNL     1       1.675   4.756  20.073  0.00  0.00    +0.000 C 
ENDBRANCH  16  17
ENDBRANCH   3  16
TORSDOF 5
ENDMDL
MODEL 8
REMARK VINA RESULT:      -7.1      1.695      2.693
REMARK  Name = 
REMARK  5 active torsions:
REMARK  status: ('A' for Active; 'I' for Inactive)
REMARK    1  A    between atoms: C_2  and  C_3
REMARK    2  A    between atoms: C_3  and  N_4
REMARK    3  A    between atoms: C_8  and  C_9
REMARK    4  A    between atoms: N_14  and  C_15
REMARK    5  A    between atoms: C_15  and  C_16
REMARK                            x       y       z     vdW  Elec       q    Type
REMARK                         _______ _______ _______ _____ _____    ______ ____
ROOT
ATOM      1  O   UNL     1       2.446   5.844  18.043  0.00  0.00    +0.000 OA
ATOM      2  C   UNL     1       3.185   5.911  19.021  0.00  0.00    +0.000 C 
ATOM      3  N   UNL     1       2.840   5.385  20.261  0.00  0.00    +0.000 N 
ATOM      4  H   UNL     1       3.458   5.525  21.042  0.00  0.00    +0.000 HD
ENDROOT
BRANCH   2   5
ATOM      5  C   UNL     1       4.566   6.575  18.988  0.00  0.00    +0.000 C 
BRANCH   5   6
ATOM      6  N   UNL     1       5.540   5.796  18.195  0.00  0.00    +0.000 NA
ATOM      7  C   UNL     1       6.710   5.437  19.006  0.00  0.00    +0.000 C 
ATOM      8  C   UNL     1       7.742   6.494  18.687  0.00  0.00    +0.000 C 
ATOM      9  C   UNL     1       7.546   6.680  17.198  0.00  0.00    +0.000 C 
ATOM     10  C   UNL     1       6.036   6.482  16.977  0.00  0.00    +0.000 C 
BRANCH  10  11
ATOM     11  C   UNL     1       5.764   5.702  15.662  0.00  0.00    +0.000 C 
ATOM     12  C   UNL     1       7.004   5.261  14.875  0.00  0.00    +0.000 C 
ATOM     13  C   UNL     1       6.500   4.172  13.937  0.00  0.00    +0.000 C 
ATOM     14  C   UNL     1       5.290   3.549  14.628  0.00  0.00    +0.000 C 
ATOM     15  C   UNL     1       5.019   4.383  15.876  0.00  0.00    +0.000 C 
ENDBRANCH  10  11
ENDBRANCH   5   6
ENDBRANCH   2   5
BRANCH   3  16
ATOM     16  C   UNL     1       1.485   4.939  20.525  0.00  0.00    +0.000 C 
BRANCH  16  17
ATOM     17  C   UNL     1       1.339   3.432  20.820  0.00  0.00    +0.000 C 
ATOM     18  C   UNL     1       0.650   2.740  19.629  0.00  0.00    +0.000 C 
ATOM     19  C   UNL     1       1.576   2.614  18.418  0.00  0.00    +0.000 C 
ATOM     20  C   UNL     1       2.815   1.804  18.776  0.00  0.00    +0.000 C 
ATOM     21  C   UNL     1       3.557   2.398  19.970  0.00  0.00    +0.000 C 
ATOM     22  C   UNL     1       2.648   2.697  21.164  0.00  0.00    +0.000 C 
ENDBRANCH  16  17
ENDBRANCH   3  16
TORSDOF 5
ENDMDL
MODEL 9
REMARK VINA RESULT:      -7.0      1.461      2.232
REMARK  Name = 
REMARK  5 active torsions:
REMARK  status: ('A' for Active; 'I' for Inactive)
REMARK    1  A    between atoms: C_2  and  C_3
REMARK    2  A    between atoms: C_3  and  N_4
REMARK    3  A    between atoms: C_8  and  C_9
REMARK    4  A    between atoms: N_14  and  C_15
REMARK    5  A    between atoms: C_15  and  C_16
REMARK                            x       y       z     vdW  Elec       q    Type
REMARK                         _______ _______ _______ _____ _____    ______ ____
ROOT
ATOM      1  O   UNL     1       4.229   2.663  17.681  0.00  0.00    +0.000 OA
ATOM      2  C   UNL     1       4.476   3.787  18.111  0.00  0.00    +0.000 C 
ATOM      3  N   UNL     1       3.481   4.701  18.440  0.00  0.00    +0.000 N 
ATOM      4  H   UNL     1       3.742   5.628  18.727  0.00  0.00    +0.000 HD
ENDROOT
BRANCH   2   5
ATOM      5  C   UNL     1       5.899   4.307  18.336  0.00  0.00    +0.000 C 
BRANCH   5   6
ATOM      6  N   UNL     1       6.469   4.917  17.117  0.00  0.00    +0.000 NA
ATOM      7  C   UNL     1       6.834   6.320  17.352  0.00  0.00    +0.000 C 
ATOM      8  C   UNL     1       5.655   7.118  16.846  0.00  0.00    +0.000 C 
ATOM      9  C   UNL     1       5.278   6.355  15.595  0.00  0.00    +0.000 C 
ATOM     10  C   UNL     1       5.576   4.882  15.933  0.00  0.00    +0.000 C 
BRANCH  10  11
ATOM     11  C   UNL     1       6.182   4.142  14.710  0.00  0.00    +0.000 C 
ATOM     12  C   UNL     1       5.189   3.719  13.621  0.00  0.00    +0.000 C 
ATOM     13  C   UNL     1       6.050   3.455  12.393  0.00  0.00    +0.000 C 
ATOM     14  C   UNL     1       7.286   4.338  12.548  0.00  0.00    +0.000 C 
ATOM     15  C   UNL     1       7.196   4.981  13.929  0.00  0.00    +0.000 C 
ENDBRANCH  10  11
ENDBRANCH   5   6
ENDBRANCH   2   5
BRANCH   3  16
ATOM     16  C   UNL     1       2.100   4.458  18.066  0.00  0.00    +0.000 C 
BRANCH  16  17
ATOM     17  C   UNL     1       1.103   4.409  19.241  0.00  0.00    +0.000 C 
ATOM     18  C   UNL     1       0.688   2.949  19.502  0.00  0.00    +0.000 C 
ATOM     19  C   UNL     1       1.805   2.137  20.157  0.00  0.00    +0.000 C 
ATOM     20  C   UNL     1       2.201   2.755  21.492  0.00  0.00    +0.000 C 
ATOM     21  C   UNL     1       2.606   4.218  21.343  0.00  0.00    +0.000 C 
ATOM     22  C   UNL     1       1.596   5.052  20.552  0.00  0.00    +0.000 C 
ENDBRANCH  16  17
ENDBRANCH   3  16
TORSDOF 5
ENDMDL
