MODEL 1
REMARK VINA RESULT:      -7.8      0.000      0.000
REMARK  Name = 
REMARK  10 active torsions:
REMARK  status: ('A' for Active; 'I' for Inactive)
REMARK    1  A    between atoms: C_1  and  C_2
REMARK    2  A    between atoms: C_2  and  C_3
REMARK    3  A    between atoms: C_2  and  N_10
REMARK    4  A    between atoms: C_3  and  C_4
REMARK    5  A    between atoms: N_10  and  C_11
REMARK    6  A    between atoms: N_19  and  C1*_20
REMARK    7  A    between atoms: C4*_22  and  C5*_23
REMARK    8  A    between atoms: C5*_23  and  O5*_24
REMARK    9  A    between atoms: C3*_25  and  O3*_26
REMARK   10  A    between atoms: C2*_27  and  O2*_28
REMARK                            x       y       z     vdW  Elec       q    Type
REMARK                         _______ _______ _______ _____ _____    ______ ____
ROOT
ATOM      1  C   UNL     1       6.229   6.423  17.151  0.00  0.00    +0.000 A 
ATOM      2  N   UNL     1       6.775   5.179  17.159  0.00  0.00    +0.000 NA
ATOM      3  C   UNL     1       6.010   4.134  17.548  0.00  0.00    +0.000 A 
ATOM      4  N   UNL     1       4.724   4.135  17.964  0.00  0.00    +0.000 NA
ATOM      5  C   UNL     1       4.213   5.376  17.908  0.00  0.00    +0.000 A 
ATOM      6  C   UNL     1       4.866   6.532  17.504  0.00  0.00    +0.000 A 
ATOM      7  N   UNL     1       4.000   7.611  17.526  0.00  0.00    +0.000 NA
ATOM      8  C   UNL     1       2.853   7.113  17.938  0.00  0.00    +0.000 A 
ATOM      9  N   UNL     1       2.949   5.782  18.250  0.00  0.00    +0.000 N 
ENDROOT
BRANCH   9  10
ATOM     10  C1* UNL     1       1.931   4.962  18.877  0.00  0.00    +0.000 C 
ATOM     11  O4* UNL     1       2.500   4.290  20.030  0.00  0.00    +0.000 OA
ATOM     12  C4* UNL     1       2.101   2.904  19.994  0.00  0.00    +0.000 C 
ATOM     13  C3* UNL     1       0.979   2.782  18.966  0.00  0.00    +0.000 C 
ATOM     14  C2* UNL     1       1.323   3.879  17.968  0.00  0.00    +0.000 C 
BRANCH  13  15
ATOM     15  O3* UNL     1       0.969   1.488  18.373  0.00  0.00    +0.000 OA
ATOM     16  H3* UNL     1       1.481   1.553  17.542  0.00  0.00    +0.000 HD
ENDBRANCH  13  15
BRANCH  14  17
ATOM     17  O2* UNL     1       2.208   3.318  16.984  0.00  0.00    +0.000 OA
ATOM     18  H2* UNL     1       1.692   2.947  16.244  0.00  0.00    +0.000 HD
ENDBRANCH  14  17
BRANCH  12  19
ATOM     19  C5* UNL     1       1.673   2.440  21.385  0.00  0.00    +0.000 C 
BRANCH  19  20
ATOM     20  O5* UNL     1       2.344   3.193  22.396  0.00  0.00    +0.000 OA
ATOM     21  H5* UNL     1       1.895   4.059  22.439  0.00  0.00    +0.000 HD
ENDBRANCH  19  20
ENDBRANCH  12  19
ENDBRANCH   9  10
BRANCH   1  22
ATOM     22  N   UNL     1       6.988   7.552  16.828  0.00  0.00    +0.000 N 
ATOM     23  H   UNL     1       7.587   7.326  16.034  0.00  0.00    +0.000 HD
BRANCH  22  25
ATOM     24  C   UNL     1       8.350   7.282  18.812  0.00  0.00    +0.000 C 
ATOM     25  C   UNL     1       7.630   8.300  17.914  0.00  0.00    +0.000 C 
BRANCH  25  26
ATOM     26  C   UNL     1       8.634   9.345  17.360  0.00  0.00    +0.000 C 
BRANCH  26  27
ATOM     27  C   UNL     1       8.938  10.483  18.316  0.00  0.00    +0.000 A 
ATOM     28  C   UNL     1       9.381  10.232  19.622  0.00  0.00    +0.000 A 
ATOM     29  C   UNL     1       9.640  11.288  20.500  0.00  0.00    +0.000 A 
ATOM     30  C   UNL     1       9.459  12.607  20.083  0.00  0.00    +0.000 A 
ATOM     31  C   UNL     1       9.034  12.870  18.784  0.00  0.00    +0.000 A 
ATOM     32  C   UNL     1       8.787  11.815  17.907  0.00  0.00    +0.000 A 
ENDBRANCH  26  27
ENDBRANCH  25  26
ENDBRANCH  22  25
ENDBRANCH   1  22
TORSDOF 9
ENDMDL
MODEL 2
REMARK VINA RESULT:      -7.8      4.778      7.726
REMARK  Name = 
REMARK  10 active torsions:
REMARK  status: ('A' for Active; 'I' for Inactive)
REMARK    1  A    between atoms: C_1  and  C_2
REMARK    2  A    between atoms: C_2  and  C_3
REMARK    3  A    between atoms: C_2  and  N_10
REMARK    4  A    between atoms: C_3  and  C_4
REMARK    5  A    between atoms: N_10  and  C_11
REMARK    6  A    between atoms: N_19  and  C1*_20
REMARK    7  A    between atoms: C4*_22  and  C5*_23
REMARK    8  A    between atoms: C5*_23  and  O5*_24
REMARK    9  A    between atoms: C3*_25  and  O3*_26
REMARK   10  A    between atoms: C2*_27  and  O2*_28
REMARK                            x       y       z     vdW  Elec       q    Type
REMARK                         _______ _______ _______ _____ _____    ______ ____
ROOT
ATOM      1  C   UNL     1       1.264   9.784  19.984  0.00  0.00    +0.000 A 
ATOM      2  N   UNL     1       1.466  10.383  18.782  0.00  0.00    +0.000 NA
ATOM      3  C   UNL     1       1.912   9.637  17.747  0.00  0.00    +0.000 A 
ATOM      4  N   UNL     1       2.216   8.320  17.723  0.00  0.00    +0.000 NA
ATOM      5  C   UNL     1       1.969   7.758  18.918  0.00  0.00    +0.000 A 
ATOM      6  C   UNL     1       1.487   8.390  20.055  0.00  0.00    +0.000 A 
ATOM      7  N   UNL     1       1.307   7.477  21.078  0.00  0.00    +0.000 NA
ATOM      8  C   UNL     1       1.677   6.321  20.566  0.00  0.00    +0.000 A 
ATOM      9  N   UNL     1       2.153   6.452  19.287  0.00  0.00    +0.000 N 
ENDROOT
BRANCH   9  10
ATOM     10  C1* UNL     1       2.787   5.420  18.488  0.00  0.00    +0.000 C 
ATOM     11  O4* UNL     1       2.272   4.124  18.886  0.00  0.00    +0.000 OA
ATOM     12  C4* UNL     1       3.386   3.217  19.036  0.00  0.00    +0.000 C 
ATOM     13  C3* UNL     1       4.600   3.881  18.394  0.00  0.00    +0.000 C 
ATOM     14  C2* UNL     1       4.320   5.363  18.608  0.00  0.00    +0.000 C 
BRANCH  13  15
ATOM     15  O3* UNL     1       5.805   3.457  19.022  0.00  0.00    +0.000 OA
ATOM     16  H3* UNL     1       5.557   2.782  19.685  0.00  0.00    +0.000 HD
ENDBRANCH  13  15
BRANCH  14  17
ATOM     17  O2* UNL     1       4.864   5.734  19.885  0.00  0.00    +0.000 OA
ATOM     18  H2* UNL     1       5.442   6.514  19.788  0.00  0.00    +0.000 HD
ENDBRANCH  14  17
BRANCH  12  19
ATOM     19  C5* UNL     1       3.055   1.865  18.405  0.00  0.00    +0.000 C 
BRANCH  19  20
ATOM     20  O5* UNL     1       4.233   1.070  18.272  0.00  0.00    +0.000 OA
ATOM     21  H5* UNL     1       4.422   0.706  19.158  0.00  0.00    +0.000 HD
ENDBRANCH  19  20
ENDBRANCH  12  19
ENDBRANCH   9  10
BRANCH   1  22
ATOM     22  N   UNL     1       0.873  10.514  21.110  0.00  0.00    +0.000 N 
ATOM     23  H   UNL     1       1.366  10.148  21.924  0.00  0.00    +0.000 HD
BRANCH  22  25
ATOM     24  C   UNL     1      -0.802  10.893  22.817  0.00  0.00    +0.000 C 
ATOM     25  C   UNL     1      -0.555  10.790  21.304  0.00  0.00    +0.000 C 
BRANCH  25  26
ATOM     26  C   UNL     1      -0.976  12.102  20.592  0.00  0.00    +0.000 C 
BRANCH  26  27
ATOM     27  C   UNL     1      -2.093  11.930  19.581  0.00  0.00    +0.000 A 
ATOM     28  C   UNL     1      -3.411  12.298  19.888  0.00  0.00    +0.000 A 
ATOM     29  C   UNL     1      -4.435  12.118  18.955  0.00  0.00    +0.000 A 
ATOM     30  C   UNL     1      -4.156  11.567  17.704  0.00  0.00    +0.000 A 
ATOM     31  C   UNL     1      -2.850  11.210  17.382  0.00  0.00    +0.000 A 
ATOM     32  C   UNL     1      -1.828  11.402  18.310  0.00  0.00    +0.000 A 
ENDBRANCH  26  27
ENDBRANCH  25  26
ENDBRANCH  22  25
ENDBRANCH   1  22
TORSDOF 9
ENDMDL
MODEL 3
REMARK VINA RESULT:      -7.8      4.563      7.709
REMARK  Name = 
REMARK  10 active torsions:
REMARK  status: ('A' for Active; 'I' for Inactive)
REMARK    1  A    between atoms: C_1  and  C_2
REMARK    2  A    between atoms: C_2  and  C_3
REMARK    3  A    between atoms: C_2  and  N_10
REMARK    4  A    between atoms: C_3  and  C_4
REMARK    5  A    between atoms: N_10  and  C_11
REMARK    6  A    between atoms: N_19  and  C1*_20
REMARK    7  A    between atoms: C4*_22  and  C5*_23
REMARK    8  A    between atoms: C5*_23  and  O5*_24
REMARK    9  A    between atoms: C3*_25  and  O3*_26
REMARK   10  A    between atoms: C2*_27  and  O2*_28
REMARK                            x       y       z     vdW  Elec       q    Type
REMARK                         _______ _______ _______ _____ _____    ______ ____
ROOT
ATOM      1  C   UNL     1       1.341   9.828  19.864  0.00  0.00    +0.000 A 
ATOM      2  N   UNL     1       1.589  10.480  18.699  0.00  0.00    +0.000 NA
ATOM      3  C   UNL     1       2.093   9.783  17.656  0.00  0.00    +0.000 A 
ATOM      4  N   UNL     1       2.418   8.473  17.592  0.00  0.00    +0.000 NA
ATOM      5  C   UNL     1       2.125   7.858  18.750  0.00  0.00    +0.000 A 
ATOM      6  C   UNL     1       1.581   8.436  19.889  0.00  0.00    +0.000 A 
ATOM      7  N   UNL     1       1.369   7.478  20.863  0.00  0.00    +0.000 NA
ATOM      8  C   UNL     1       1.780   6.350  20.323  0.00  0.00    +0.000 A 
ATOM      9  N   UNL     1       2.312   6.540  19.073  0.00  0.00    +0.000 N 
ENDROOT
BRANCH   9  10
ATOM     10  C1* UNL     1       2.997   5.552  18.263  0.00  0.00    +0.000 C 
ATOM     11  O4* UNL     1       2.478   4.234  18.577  0.00  0.00    +0.000 OA
ATOM     12  C4* UNL     1       3.593   3.332  18.743  0.00  0.00    +0.000 C 
ATOM     13  C3* UNL     1       4.831   4.035  18.194  0.00  0.00    +0.000 C 
ATOM     14  C2* UNL     1       4.523   5.503  18.458  0.00  0.00    +0.000 C 
BRANCH  13  15
ATOM     15  O3* UNL     1       6.007   3.595  18.863  0.00  0.00    +0.000 OA
ATOM     16  H3* UNL     1       5.923   3.873  19.798  0.00  0.00    +0.000 HD
ENDBRANCH  13  15
BRANCH  14  17
ATOM     17  O2* UNL     1       4.997   5.822  19.777  0.00  0.00    +0.000 OA
ATOM     18  H2* UNL     1       5.082   5.007  20.307  0.00  0.00    +0.000 HD
ENDBRANCH  14  17
BRANCH  12  19
ATOM     19  C5* UNL     1       3.311   2.007  18.037  0.00  0.00    +0.000 C 
BRANCH  19  20
ATOM     20  O5* UNL     1       1.932   1.656  18.155  0.00  0.00    +0.000 OA
ATOM     21  H5* UNL     1       1.711   1.722  19.102  0.00  0.00    +0.000 HD
ENDBRANCH  19  20
ENDBRANCH  12  19
ENDBRANCH   9  10
BRANCH   1  22
ATOM     22  N   UNL     1       0.887  10.506  21.000  0.00  0.00    +0.000 N 
ATOM     23  H   UNL     1       1.405  10.167  21.811  0.00  0.00    +0.000 HD
BRANCH  22  25
ATOM     24  C   UNL     1      -0.801  10.909  22.688  0.00  0.00    +0.000 C 
ATOM     25  C   UNL     1      -0.558  10.662  21.192  0.00  0.00    +0.000 C 
BRANCH  25  26
ATOM     26  C   UNL     1      -1.114  11.838  20.347  0.00  0.00    +0.000 C 
BRANCH  26  27
ATOM     27  C   UNL     1      -2.132  11.428  19.301  0.00  0.00    +0.000 A 
ATOM     28  C   UNL     1      -1.858  10.399  18.388  0.00  0.00    +0.000 A 
ATOM     29  C   UNL     1      -2.796  10.041  17.417  0.00  0.00    +0.000 A 
ATOM     30  C   UNL     1      -4.020  10.708  17.344  0.00  0.00    +0.000 A 
ATOM     31  C   UNL     1      -4.310  11.721  18.253  0.00  0.00    +0.000 A 
ATOM     32  C   UNL     1      -3.377  12.068  19.229  0.00  0.00    +0.000 A 
ENDBRANCH  26  27
ENDBRANCH  25  26
ENDBRANCH  22  25
ENDBRANCH   1  22
TORSDOF 9
ENDMDL
MODEL 4
REMARK VINA RESULT:      -7.7      4.325      7.554
REMARK  Name = 
REMARK  10 active torsions:
REMARK  status: ('A' for Active; 'I' for Inactive)
REMARK    1  A    between atoms: C_1  and  C_2
REMARK    2  A    between atoms: C_2  and  C_3
REMARK    3  A    between atoms: C_2  and  N_10
REMARK    4  A    between atoms: C_3  and  C_4
REMARK    5  A    between atoms: N_10  and  C_11
REMARK    6  A    between atoms: N_19  and  C1*_20
REMARK    7  A    between atoms: C4*_22  and  C5*_23
REMARK    8  A    between atoms: C5*_23  and  O5*_24
REMARK    9  A    between atoms: C3*_25  and  O3*_26
REMARK   10  A    between atoms: C2*_27  and  O2*_28
REMARK                            x       y       z     vdW  Elec       q    Type
REMARK                         _______ _______ _______ _____ _____    ______ ____
ROOT
ATOM      1  C   UNL     1       1.181   9.034  20.210  0.00  0.00    +0.000 A 
ATOM      2  N   UNL     1       0.892   8.217  21.255  0.00  0.00    +0.000 NA
ATOM      3  C   UNL     1       1.321   6.935  21.218  0.00  0.00    +0.000 A 
ATOM      4  N   UNL     1       2.019   6.303  20.249  0.00  0.00    +0.000 NA
ATOM      5  C   UNL     1       2.315   7.154  19.252  0.00  0.00    +0.000 A 
ATOM      6  C   UNL     1       1.967   8.495  19.166  0.00  0.00    +0.000 A 
ATOM      7  N   UNL     1       2.495   9.060  18.020  0.00  0.00    +0.000 NA
ATOM      8  C   UNL     1       3.143   8.078  17.428  0.00  0.00    +0.000 A 
ATOM      9  N   UNL     1       3.002   6.890  18.097  0.00  0.00    +0.000 N 
ENDROOT
BRANCH   9  10
ATOM     10  C1* UNL     1       3.445   5.584  17.647  0.00  0.00    +0.000 C 
ATOM     11  O4* UNL     1       2.395   4.613  17.890  0.00  0.00    +0.000 OA
ATOM     12  C4* UNL     1       2.987   3.442  18.491  0.00  0.00    +0.000 C 
ATOM     13  C3* UNL     1       4.498   3.557  18.316  0.00  0.00    +0.000 C 
ATOM     14  C2* UNL     1       4.721   5.064  18.333  0.00  0.00    +0.000 C 
BRANCH  13  15
ATOM     15  O3* UNL     1       5.187   2.892  19.369  0.00  0.00    +0.000 OA
ATOM     16  H3* UNL     1       5.570   3.587  19.941  0.00  0.00    +0.000 HD
ENDBRANCH  13  15
BRANCH  14  17
ATOM     17  O2* UNL     1       4.906   5.465  19.700  0.00  0.00    +0.000 OA
ATOM     18  H2* UNL     1       5.224   6.387  19.737  0.00  0.00    +0.000 HD
ENDBRANCH  14  17
BRANCH  12  19
ATOM     19  C5* UNL     1       2.418   2.175  17.853  0.00  0.00    +0.000 C 
BRANCH  19  20
ATOM     20  O5* UNL     1       1.489   1.542  18.732  0.00  0.00    +0.000 OA
ATOM     21  H5* UNL     1       1.676   1.885  19.626  0.00  0.00    +0.000 HD
ENDBRANCH  19  20
ENDBRANCH  12  19
ENDBRANCH   9  10
BRANCH   1  22
ATOM     22  N   UNL     1       0.706  10.347  20.155  0.00  0.00    +0.000 N 
ATOM     23  H   UNL     1       1.402  10.964  20.574  0.00  0.00    +0.000 HD
BRANCH  22  25
ATOM     24  C   UNL     1      -0.684  11.009  22.024  0.00  0.00    +0.000 C 
ATOM     25  C   UNL     1      -0.685  10.606  20.542  0.00  0.00    +0.000 C 
BRANCH  25  26
ATOM     26  C   UNL     1      -1.312  11.727  19.672  0.00  0.00    +0.000 C 
BRANCH  26  27
ATOM     27  C   UNL     1      -2.138  11.222  18.505  0.00  0.00    +0.000 A 
ATOM     28  C   UNL     1      -3.475  11.611  18.343  0.00  0.00    +0.000 A 
ATOM     29  C   UNL     1      -4.233  11.125  17.274  0.00  0.00    +0.000 A 
ATOM     30  C   UNL     1      -3.664  10.241  16.356  0.00  0.00    +0.000 A 
ATOM     31  C   UNL     1      -2.334   9.858  16.498  0.00  0.00    +0.000 A 
ATOM     32  C   UNL     1      -1.577  10.355  17.558  0.00  0.00    +0.000 A 
ENDBRANCH  26  27
ENDBRANCH  25  26
ENDBRANCH  22  25
ENDBRANCH   1  22
TORSDOF 9
ENDMDL
MODEL 5
REMARK VINA RESULT:      -7.6      5.515      7.674
REMARK  Name = 
REMARK  10 active torsions:
REMARK  status: ('A' for Active; 'I' for Inactive)
REMARK    1  A    between atoms: C_1  and  C_2
REMARK    2  A    between atoms: C_2  and  C_3
REMARK    3  A    between atoms: C_2  and  N_10
REMARK    4  A    between atoms: C_3  and  C_4
REMARK    5  A    between atoms: N_10  and  C_11
REMARK    6  A    between atoms: N_19  and  C1*_20
REMARK    7  A    between atoms: C4*_22  and  C5*_23
REMARK    8  A    between atoms: C5*_23  and  O5*_24
REMARK    9  A    between atoms: C3*_25  and  O3*_26
REMARK   10  A    between atoms: C2*_27  and  O2*_28
REMARK                            x       y       z     vdW  Elec       q    Type
REMARK                         _______ _______ _______ _____ _____    ______ ____
ROOT
ATOM      1  C   UNL     1       1.252   9.678  20.074  0.00  0.00    +0.000 A 
ATOM      2  N   UNL     1       1.404  10.339  18.898  0.00  0.00    +0.000 NA
ATOM      3  C   UNL     1       1.860   9.658  17.822  0.00  0.00    +0.000 A 
ATOM      4  N   UNL     1       2.217   8.358  17.733  0.00  0.00    +0.000 NA
ATOM      5  C   UNL     1       2.018   7.734  18.905  0.00  0.00    +0.000 A 
ATOM      6  C   UNL     1       1.533   8.293  20.078  0.00  0.00    +0.000 A 
ATOM      7  N   UNL     1       1.412   7.328  21.062  0.00  0.00    +0.000 NA
ATOM      8  C   UNL     1       1.819   6.213  20.491  0.00  0.00    +0.000 A 
ATOM      9  N   UNL     1       2.264   6.421  19.211  0.00  0.00    +0.000 N 
ENDROOT
BRANCH   9  10
ATOM     10  C1* UNL     1       2.923   5.454  18.355  0.00  0.00    +0.000 C 
ATOM     11  O4* UNL     1       2.419   4.127  18.655  0.00  0.00    +0.000 OA
ATOM     12  C4* UNL     1       3.542   3.226  18.762  0.00  0.00    +0.000 C 
ATOM     13  C3* UNL     1       4.757   3.946  18.187  0.00  0.00    +0.000 C 
ATOM     14  C2* UNL     1       4.455   5.407  18.496  0.00  0.00    +0.000 C 
BRANCH  13  15
ATOM     15  O3* UNL     1       5.958   3.495  18.805  0.00  0.00    +0.000 OA
ATOM     16  H3* UNL     1       5.958   3.850  19.717  0.00  0.00    +0.000 HD
ENDBRANCH  13  15
BRANCH  14  17
ATOM     17  O2* UNL     1       4.974   5.696  19.805  0.00  0.00    +0.000 OA
ATOM     18  H2* UNL     1       5.118   6.656  19.902  0.00  0.00    +0.000 HD
ENDBRANCH  14  17
BRANCH  12  19
ATOM     19  C5* UNL     1       3.239   1.916  18.035  0.00  0.00    +0.000 C 
BRANCH  19  20
ATOM     20  O5* UNL     1       4.142   0.891  18.447  0.00  0.00    +0.000 OA
ATOM     21  H5* UNL     1       4.037   0.802  19.413  0.00  0.00    +0.000 HD
ENDBRANCH  19  20
ENDBRANCH  12  19
ENDBRANCH   9  10
BRANCH   1  22
ATOM     22  N   UNL     1       0.853  10.340  21.239  0.00  0.00    +0.000 N 
ATOM     23  H   UNL     1       1.495  10.092  21.992  0.00  0.00    +0.000 HD
BRANCH  22  25
ATOM     24  C   UNL     1      -0.665  10.207  23.122  0.00  0.00    +0.000 C 
ATOM     25  C   UNL     1      -0.570  10.339  21.594  0.00  0.00    +0.000 C 
BRANCH  25  26
ATOM     26  C   UNL     1      -1.271  11.637  21.114  0.00  0.00    +0.000 C 
BRANCH  26  27
ATOM     27  C   UNL     1      -1.742  12.542  22.237  0.00  0.00    +0.000 A 
ATOM     28  C   UNL     1      -0.898  13.521  22.780  0.00  0.00    +0.000 A 
ATOM     29  C   UNL     1      -1.336  14.336  23.827  0.00  0.00    +0.000 A 
ATOM     30  C   UNL     1      -2.623  14.182  24.345  0.00  0.00    +0.000 A 
ATOM     31  C   UNL     1      -3.475  13.224  23.804  0.00  0.00    +0.000 A 
ATOM     32  C   UNL     1      -3.040  12.420  22.752  0.00  0.00    +0.000 A 
ENDBRANCH  26  27
ENDBRANCH  25  26
ENDBRANCH  22  25
ENDBRANCH   1  22
TORSDOF 9
ENDMDL
MODEL 6
REMARK VINA RESULT:      -7.6      5.323      8.325
REMARK  Name = 
REMARK  10 active torsions:
REMARK  status: ('A' for Active; 'I' for Inactive)
REMARK    1  A    between atoms: C_1  and  C_2
REMARK    2  A    between atoms: C_2  and  C_3
REMARK    3  A    between atoms: C_2  and  N_10
REMARK    4  A    between atoms: C_3  and  C_4
REMARK    5  A    between atoms: N_10  and  C_11
REMARK    6  A    between atoms: N_19  and  C1*_20
REMARK    7  A    between atoms: C4*_22  and  C5*_23
REMARK    8  A    between atoms: C5*_23  and  O5*_24
REMARK    9  A    between atoms: C3*_25  and  O3*_26
REMARK   10  A    between atoms: C2*_27  and  O2*_28
REMARK                            x       y       z     vdW  Elec       q    Type
REMARK                         _______ _______ _______ _____ _____    ______ ____
ROOT
ATOM      1  C   UNL     1       0.557  10.213  19.140  0.00  0.00    +0.000 A 
ATOM      2  N   UNL     1       0.056  10.171  20.401  0.00  0.00    +0.000 NA
ATOM      3  C   UNL     1       0.385   9.129  21.198  0.00  0.00    +0.000 A 
ATOM      4  N   UNL     1       1.165   8.061  20.917  0.00  0.00    +0.000 NA
ATOM      5  C   UNL     1       1.667   8.160  19.675  0.00  0.00    +0.000 A 
ATOM      6  C   UNL     1       1.442   9.179  18.760  0.00  0.00    +0.000 A 
ATOM      7  N   UNL     1       2.173   8.965  17.607  0.00  0.00    +0.000 NA
ATOM      8  C   UNL     1       2.821   7.839  17.822  0.00  0.00    +0.000 A 
ATOM      9  N   UNL     1       2.493   7.278  19.029  0.00  0.00    +0.000 N 
ENDROOT
BRANCH   9  10
ATOM     10  C1* UNL     1       2.892   5.971  19.515  0.00  0.00    +0.000 C 
ATOM     11  O4* UNL     1       4.256   5.703  19.098  0.00  0.00    +0.000 OA
ATOM     12  C4* UNL     1       4.315   4.360  18.570  0.00  0.00    +0.000 C 
ATOM     13  C3* UNL     1       3.022   3.658  18.972  0.00  0.00    +0.000 C 
ATOM     14  C2* UNL     1       2.021   4.804  19.018  0.00  0.00    +0.000 C 
BRANCH  13  15
ATOM     15  O3* UNL     1       2.667   2.660  18.021  0.00  0.00    +0.000 OA
ATOM     16  H3* UNL     1       1.860   2.976  17.566  0.00  0.00    +0.000 HD
ENDBRANCH  13  15
BRANCH  14  17
ATOM     17  O2* UNL     1       1.463   4.954  17.703  0.00  0.00    +0.000 OA
ATOM     18  H2* UNL     1       0.573   4.555  17.670  0.00  0.00    +0.000 HD
ENDBRANCH  14  17
BRANCH  12  19
ATOM     19  C5* UNL     1       5.559   3.642  19.090  0.00  0.00    +0.000 C 
BRANCH  19  20
ATOM     20  O5* UNL     1       5.202   2.423  19.741  0.00  0.00    +0.000 OA
ATOM     21  H5* UNL     1       5.213   1.730  19.055  0.00  0.00    +0.000 HD
ENDBRANCH  19  20
ENDBRANCH  12  19
ENDBRANCH   9  10
BRANCH   1  22
ATOM     22  N   UNL     1       0.199  11.226  18.244  0.00  0.00    +0.000 N 
ATOM     23  H   UNL     1       1.038  11.745  17.985  0.00  0.00    +0.000 HD
BRANCH  22  25
ATOM     24  C   UNL     1      -0.582  13.514  18.376  0.00  0.00    +0.000 C 
ATOM     25  C   UNL     1      -0.983  12.041  18.544  0.00  0.00    +0.000 C 
BRANCH  25  26
ATOM     26  C   UNL     1      -2.164  11.686  17.603  0.00  0.00    +0.000 C 
BRANCH  26  27
ATOM     27  C   UNL     1      -3.521  11.679  18.282  0.00  0.00    +0.000 A 
ATOM     28  C   UNL     1      -3.732  12.369  19.484  0.00  0.00    +0.000 A 
ATOM     29  C   UNL     1      -4.981  12.340  20.111  0.00  0.00    +0.000 A 
ATOM     30  C   UNL     1      -6.033  11.620  19.544  0.00  0.00    +0.000 A 
ATOM     31  C   UNL     1      -5.841  10.943  18.344  0.00  0.00    +0.000 A 
ATOM     32  C   UNL     1      -4.597  10.983  17.715  0.00  0.00    +0.000 A 
ENDBRANCH  26  27
ENDBRANCH  25  26
ENDBRANCH  22  25
ENDBRANCH   1  22
TORSDOF 9
ENDMDL
MODEL 7
REMARK VINA RESULT:      -7.5      5.391      7.981
REMARK  Name = 
REMARK  10 active torsions:
REMARK  status: ('A' for Active; 'I' for Inactive)
REMARK    1  A    between atoms: C_1  and  C_2
REMARK    2  A    between atoms: C_2  and  C_3
REMARK    3  A    between atoms: C_2  and  N_10
REMARK    4  A    between atoms: C_3  and  C_4
REMARK    5  A    between atoms: N_10  and  C_11
REMARK    6  A    between atoms: N_19  and  C1*_20
REMARK    7  A    between atoms: C4*_22  and  C5*_23
REMARK    8  A    between atoms: C5*_23  and  O5*_24
REMARK    9  A    between atoms: C3*_25  and  O3*_26
REMARK   10  A    between atoms: C2*_27  and  O2*_28
REMARK                            x       y       z     vdW  Elec       q    Type
REMARK                         _______ _______ _______ _____ _____    ______ ____
ROOT
ATOM      1  C   UNL     1       1.316   9.627  20.158  0.00  0.00    +0.000 A 
ATOM      2  N   UNL     1       1.368  10.266  18.961  0.00  0.00    +0.000 NA
ATOM      3  C   UNL     1       1.716   9.562  17.861  0.00  0.00    +0.000 A 
ATOM      4  N   UNL     1       2.049   8.256  17.762  0.00  0.00    +0.000 NA
ATOM      5  C   UNL     1       1.951   7.654  18.958  0.00  0.00    +0.000 A 
ATOM      6  C   UNL     1       1.581   8.239  20.161  0.00  0.00    +0.000 A 
ATOM      7  N   UNL     1       1.540   7.292  21.168  0.00  0.00    +0.000 NA
ATOM      8  C   UNL     1       1.881   6.163  20.583  0.00  0.00    +0.000 A 
ATOM      9  N   UNL     1       2.208   6.344  19.264  0.00  0.00    +0.000 N 
ENDROOT
BRANCH   9  10
ATOM     10  C1* UNL     1       2.776   5.354  18.368  0.00  0.00    +0.000 C 
ATOM     11  O4* UNL     1       2.440   4.027  18.848  0.00  0.00    +0.000 OA
ATOM     12  C4* UNL     1       3.631   3.211  18.805  0.00  0.00    +0.000 C 
ATOM     13  C3* UNL     1       4.662   3.959  17.965  0.00  0.00    +0.000 C 
ATOM     14  C2* UNL     1       4.307   5.417  18.224  0.00  0.00    +0.000 C 
BRANCH  13  15
ATOM     15  O3* UNL     1       5.986   3.638  18.377  0.00  0.00    +0.000 OA
ATOM     16  H3* UNL     1       6.144   4.114  19.218  0.00  0.00    +0.000 HD
ENDBRANCH  13  15
BRANCH  14  17
ATOM     17  O2* UNL     1       5.029   5.846  19.389  0.00  0.00    +0.000 OA
ATOM     18  H2* UNL     1       5.922   5.452  19.392  0.00  0.00    +0.000 HD
ENDBRANCH  14  17
BRANCH  12  19
ATOM     19  C5* UNL     1       3.305   1.830  18.239  0.00  0.00    +0.000 C 
BRANCH  19  20
ATOM     20  O5* UNL     1       2.117   1.876  17.450  0.00  0.00    +0.000 OA
ATOM     21  H5* UNL     1       2.372   1.600  16.550  0.00  0.00    +0.000 HD
ENDBRANCH  19  20
ENDBRANCH  12  19
ENDBRANCH   9  10
BRANCH   1  22
ATOM     22  N   UNL     1       1.033  10.314  21.343  0.00  0.00    +0.000 N 
ATOM     23  H   UNL     1       1.670   9.987  22.069  0.00  0.00    +0.000 HD
BRANCH  22  25
ATOM     24  C   UNL     1      -0.612   9.505  22.925  0.00  0.00    +0.000 C 
ATOM     25  C   UNL     1      -0.368  10.463  21.749  0.00  0.00    +0.000 C 
BRANCH  25  26
ATOM     26  C   UNL     1      -0.681  11.925  22.162  0.00  0.00    +0.000 C 
BRANCH  26  27
ATOM     27  C   UNL     1      -2.151  12.291  22.091  0.00  0.00    +0.000 A 
ATOM     28  C   UNL     1      -2.784  12.512  20.860  0.00  0.00    +0.000 A 
ATOM     29  C   UNL     1      -4.134  12.867  20.808  0.00  0.00    +0.000 A 
ATOM     30  C   UNL     1      -4.869  13.006  21.986  0.00  0.00    +0.000 A 
ATOM     31  C   UNL     1      -4.257  12.775  23.214  0.00  0.00    +0.000 A 
ATOM     32  C   UNL     1      -2.912  12.409  23.262  0.00  0.00    +0.000 A 
ENDBRANCH  26  27
ENDBRANCH  25  26
ENDBRANCH  22  25
ENDBRANCH   1  22
TORSDOF 9
ENDMDL
MODEL 8
REMARK VINA RESULT:      -7.5      4.737      7.305
REMARK  Name = 
REMARK  10 active torsions:
REMARK  status: ('A' for Active; 'I' for Inactive)
REMARK    1  A    between atoms: C_1  and  C_2
REMARK    2  A    between atoms: C_2  and  C_3
REMARK    3  A    between atoms: C_2  and  N_10
REMARK    4  A    between atoms: C_3  and  C_4
REMARK    5  A    between atoms: N_10  and  C_11
REMARK    6  A    between atoms: N_19  and  C1*_20
REMARK    7  A    between atoms: C4*_22  and  C5*_23
REMARK    8  A    between atoms: C5*_23  and  O5*_24
REMARK    9  A    between atoms: C3*_25  and  O3*_26
REMARK   10  A    between atoms: C2*_27  and  O2*_28
REMARK                            x       y       z     vdW  Elec       q    Type
REMARK                         _______ _______ _______ _____ _____    ______ ____
ROOT
ATOM      1  C   UNL     1       2.728   7.144  19.395  0.00  0.00    +0.000 A 
ATOM      2  N   UNL     1       3.017   7.469  18.109  0.00  0.00    +0.000 NA
ATOM      3  C   UNL     1       2.332   8.477  17.522  0.00  0.00    +0.000 A 
ATOM      4  N   UNL     1       1.346   9.243  18.038  0.00  0.00    +0.000 NA
ATOM      5  C   UNL     1       1.116   8.913  19.320  0.00  0.00    +0.000 A 
ATOM      6  C   UNL     1       1.756   7.927  20.057  0.00  0.00    +0.000 A 
ATOM      7  N   UNL     1       1.291   7.916  21.359  0.00  0.00    +0.000 NA
ATOM      8  C   UNL     1       0.388   8.874  21.402  0.00  0.00    +0.000 A 
ATOM      9  N   UNL     1       0.195   9.457  20.176  0.00  0.00    +0.000 N 
ENDROOT
BRANCH   9  10
ATOM     10  C1* UNL     1      -0.826  10.425  19.828  0.00  0.00    +0.000 C 
ATOM     11  O4* UNL     1      -1.549   9.960  18.660  0.00  0.00    +0.000 OA
ATOM     12  C4* UNL     1      -1.678  11.060  17.734  0.00  0.00    +0.000 C 
ATOM     13  C3* UNL     1      -1.313  12.333  18.491  0.00  0.00    +0.000 C 
ATOM     14  C2* UNL     1      -0.297  11.835  19.509  0.00  0.00    +0.000 C 
BRANCH  13  15
ATOM     15  O3* UNL     1      -0.770  13.312  17.612  0.00  0.00    +0.000 OA
ATOM     16  H3* UNL     1      -1.468  13.984  17.469  0.00  0.00    +0.000 HD
ENDBRANCH  13  15
BRANCH  14  17
ATOM     17  O2* UNL     1       1.003  11.893  18.899  0.00  0.00    +0.000 OA
ATOM     18  H2* UNL     1       1.676  12.119  19.568  0.00  0.00    +0.000 HD
ENDBRANCH  14  17
BRANCH  12  19
ATOM     19  C5* UNL     1      -3.094  11.105  17.162  0.00  0.00    +0.000 C 
BRANCH  19  20
ATOM     20  O5* UNL     1      -3.802  12.241  17.655  0.00  0.00    +0.000 OA
ATOM     21  H5* UNL     1      -3.170  12.985  17.649  0.00  0.00    +0.000 HD
ENDBRANCH  19  20
ENDBRANCH  12  19
ENDBRANCH   9  10
BRANCH   1  22
ATOM     22  N   UNL     1       3.350   6.067  20.034  0.00  0.00    +0.000 N 
ATOM     23  H   UNL     1       4.349   6.263  20.107  0.00  0.00    +0.000 HD
BRANCH  22  25
ATOM     24  C   UNL     1       2.012   4.824  18.444  0.00  0.00    +0.000 C 
ATOM     25  C   UNL     1       3.000   4.706  19.615  0.00  0.00    +0.000 C 
BRANCH  25  26
ATOM     26  C   UNL     1       4.260   3.908  19.188  0.00  0.00    +0.000 C 
BRANCH  26  27
ATOM     27  C   UNL     1       5.308   4.736  18.470  0.00  0.00    +0.000 A 
ATOM     28  C   UNL     1       6.384   5.303  19.168  0.00  0.00    +0.000 A 
ATOM     29  C   UNL     1       7.334   6.080  18.500  0.00  0.00    +0.000 A 
ATOM     30  C   UNL     1       7.220   6.302  17.127  0.00  0.00    +0.000 A 
ATOM     31  C   UNL     1       6.164   5.733  16.421  0.00  0.00    +0.000 A 
ATOM     32  C   UNL     1       5.224   4.949  17.088  0.00  0.00    +0.000 A 
ENDBRANCH  26  27
ENDBRANCH  25  26
ENDBRANCH  22  25
ENDBRANCH   1  22
TORSDOF 9
ENDMDL
MODEL 9
REMARK VINA RESULT:      -7.5      1.668      2.057
REMARK  Name = 
REMARK  10 active torsions:
REMARK  status: ('A' for Active; 'I' for Inactive)
REMARK    1  A    between atoms: C_1  and  C_2
REMARK    2  A    between atoms: C_2  and  C_3
REMARK    3  A    between atoms: C_2  and  N_10
REMARK    4  A    between atoms: C_3  and  C_4
REMARK    5  A    between atoms: N_10  and  C_11
REMARK    6  A    between atoms: N_19  and  C1*_20
REMARK    7  A    between atoms: C4*_22  and  C5*_23
REMARK    8  A    between atoms: C5*_23  and  O5*_24
REMARK    9  A    between atoms: C3*_25  and  O3*_26
REMARK   10  A    between atoms: C2*_27  and  O2*_28
REMARK                            x       y       z     vdW  Elec       q    Type
REMARK                         _______ _______ _______ _____ _____    ______ ____
ROOT
ATOM      1  C   UNL     1       7.615   7.301  17.972  0.00  0.00    +0.000 A 
ATOM      2  N   UNL     1       8.173   6.542  18.949  0.00  0.00    +0.000 NA
ATOM      3  C   UNL     1       7.479   5.485  19.430  0.00  0.00    +0.000 A 
ATOM      4  N   UNL     1       6.248   5.052  19.080  0.00  0.00    +0.000 NA
ATOM      5  C   UNL     1       5.747   5.807  18.088  0.00  0.00    +0.000 A 
ATOM      6  C   UNL     1       6.353   6.898  17.481  0.00  0.00    +0.000 A 
ATOM      7  N   UNL     1       5.558   7.388  16.462  0.00  0.00    +0.000 NA
ATOM      8  C   UNL     1       4.495   6.611  16.459  0.00  0.00    +0.000 A 
ATOM      9  N   UNL     1       4.530   5.686  17.471  0.00  0.00    +0.000 N 
ENDROOT
BRANCH   9  10
ATOM     10  C1* UNL     1       3.463   4.784  17.858  0.00  0.00    +0.000 C 
ATOM     11  O4* UNL     1       3.421   4.686  19.305  0.00  0.00    +0.000 OA
ATOM     12  C4* UNL     1       3.304   3.293  19.665  0.00  0.00    +0.000 C 
ATOM     13  C3* UNL     1       2.932   2.527  18.399  0.00  0.00    +0.000 C 
ATOM     14  C2* UNL     1       3.594   3.354  17.304  0.00  0.00    +0.000 C 
BRANCH  13  15
ATOM     15  O3* UNL     1       3.423   1.192  18.447  0.00  0.00    +0.000 OA
ATOM     16  H3* UNL     1       4.315   1.203  18.045  0.00  0.00    +0.000 HD
ENDBRANCH  13  15
BRANCH  14  17
ATOM     17  O2* UNL     1       4.936   2.867  17.136  0.00  0.00    +0.000 OA
ATOM     18  H2* UNL     1       4.940   1.891  17.136  0.00  0.00    +0.000 HD
ENDBRANCH  14  17
BRANCH  12  19
ATOM     19  C5* UNL     1       2.272   3.119  20.778  0.00  0.00    +0.000 C 
BRANCH  19  20
ATOM     20  O5* UNL     1       2.870   2.529  21.932  0.00  0.00    +0.000 OA
ATOM     21  H5* UNL     1       2.136   2.237  22.505  0.00  0.00    +0.000 HD
ENDBRANCH  19  20
ENDBRANCH  12  19
ENDBRANCH   9  10
BRANCH   1  22
ATOM     22  N   UNL     1       8.251   8.447  17.483  0.00  0.00    +0.000 N 
ATOM     23  H   UNL     1       9.181   8.189  17.155  0.00  0.00    +0.000 HD
BRANCH  22  25
ATOM     24  C   UNL     1       9.248   9.589  19.372  0.00  0.00    +0.000 C 
ATOM     25  C   UNL     1       8.177   9.680  18.274  0.00  0.00    +0.000 C 
BRANCH  25  26
ATOM     26  C   UNL     1       8.409  10.931  17.387  0.00  0.00    +0.000 C 
BRANCH  26  27
ATOM     27  C   UNL     1       9.435  11.904  17.939  0.00  0.00    +0.000 A 
ATOM     28  C   UNL     1      10.796  11.773  17.629  0.00  0.00    +0.000 A 
ATOM     29  C   UNL     1      11.734  12.663  18.157  0.00  0.00    +0.000 A 
ATOM     30  C   UNL     1      11.324  13.694  19.003  0.00  0.00    +0.000 A 
ATOM     31  C   UNL     1       9.974  13.844  19.307  0.00  0.00    +0.000 A 
ATOM     32  C   UNL     1       9.039  12.961  18.769  0.00  0.00    +0.000 A 
ENDBRANCH  26  27
ENDBRANCH  25  26
ENDBRANCH  22  25
ENDBRANCH   1  22
TORSDOF 9
ENDMDL
