MODEL 1
REMARK VINA RESULT:      -8.1      0.000      0.000
REMARK  Name = 
REMARK  6 active torsions:
REMARK  status: ('A' for Active; 'I' for Inactive)
REMARK    1  A    between atoms: C_1  and  C_2
REMARK    2  A    between atoms: C_4  and  C_5
REMARK    3  A    between atoms: C_13  and  C_14
REMARK    4  A    between atoms: C_15  and  N_16
REMARK    5  A    between atoms: N_22  and  C_23
REMARK    6  A    between atoms: C_26  and  C_27
REMARK                            x       y       z     vdW  Elec       q    Type
REMARK                         _______ _______ _______ _____ _____    ______ ____
ROOT
ATOM      1  N   UNL     1       0.745   7.641  20.276  0.00  0.00    +0.000 N 
ATOM      2  C   UNL     1       0.522   8.909  20.883  0.00  0.00    +0.000 A 
ATOM      3  C   UNL     1      -0.392   8.981  21.916  0.00  0.00    +0.000 A 
ATOM      4  C   UNL     1      -0.567  10.211  22.490  0.00  0.00    +0.000 A 
ATOM      5  N   UNL     1       0.073  11.308  22.075  0.00  0.00    +0.000 NA
ATOM      6  C   UNL     1       0.923  11.175  21.044  0.00  0.00    +0.000 A 
ATOM      7  N   UNL     1       1.648  12.291  20.620  0.00  0.00    +0.000 N 
ATOM      8  N   UNL     1       1.158  10.008  20.427  0.00  0.00    +0.000 NA
ATOM      9  H   UNL     1       0.470   6.903  20.919  0.00  0.00    +0.000 HD
ATOM     10  H   UNL     1       2.323  12.033  19.914  0.00  0.00    +0.000 HD
ENDROOT
BRANCH   1  18
ATOM     11  C   UNL     1       1.613   9.051  17.900  0.00  0.00    +0.000 C 
ATOM     12  C   UNL     1       2.338   7.844  18.443  0.00  0.00    +0.000 A 
ATOM     13  C   UNL     1       3.418   7.340  17.689  0.00  0.00    +0.000 A 
ATOM     14  C   UNL     1       4.132   6.203  18.077  0.00  0.00    +0.000 A 
ATOM     15  C   UNL     1       3.717   5.570  19.255  0.00  0.00    +0.000 A 
ATOM     16  C   UNL     1       2.634   6.030  20.030  0.00  0.00    +0.000 A 
ATOM     17  C   UNL     1       2.278   5.194  21.234  0.00  0.00    +0.000 C 
ATOM     18  C   UNL     1       1.950   7.201  19.647  0.00  0.00    +0.000 A 
BRANCH  14  19
ATOM     19  C   UNL     1       5.260   5.674  17.279  0.00  0.00    +0.000 A 
ATOM     20  C   UNL     1       5.246   5.715  15.877  0.00  0.00    +0.000 A 
ATOM     21  C   UNL     1       6.330   5.219  15.166  0.00  0.00    +0.000 A 
ATOM     22  N   UNL     1       7.418   4.676  15.742  0.00  0.00    +0.000 NA
ATOM     23  C   UNL     1       7.419   4.636  17.088  0.00  0.00    +0.000 A 
ATOM     24  F   UNL     1       8.487   4.093  17.690  0.00  0.00    +0.000 F 
ATOM     25  C   UNL     1       6.392   5.116  17.883  0.00  0.00    +0.000 A 
ENDBRANCH  14  19
ENDBRANCH   1  18
BRANCH   7  26
ATOM     26  C   UNL     1       1.201  13.621  20.596  0.00  0.00    +0.000 A 
ATOM     27  C   UNL     1       1.550  14.500  21.628  0.00  0.00    +0.000 A 
ATOM     28  C   UNL     1       1.031  15.802  21.663  0.00  0.00    +0.000 A 
ATOM     29  C   UNL     1       0.174  16.245  20.646  0.00  0.00    +0.000 A 
ATOM     30  C   UNL     1      -0.155  15.389  19.600  0.00  0.00    +0.000 A 
ATOM     31  C   UNL     1       0.355  14.090  19.579  0.00  0.00    +0.000 A 
BRANCH  29  32
ATOM     32  C   UNL     1      -0.378  17.565  20.686  0.00  0.00    +0.000 C 
ATOM     33  N   UNL     1      -0.839  18.631  20.721  0.00  0.00    +0.000 NA
ENDBRANCH  29  32
ENDBRANCH   7  26
TORSDOF 4
ENDMDL
MODEL 2
REMARK VINA RESULT:      -8.0      3.860      5.196
REMARK  Name = 
REMARK  6 active torsions:
REMARK  status: ('A' for Active; 'I' for Inactive)
REMARK    1  A    between atoms: C_1  and  C_2
REMARK    2  A    between atoms: C_4  and  C_5
REMARK    3  A    between atoms: C_13  and  C_14
REMARK    4  A    between atoms: C_15  and  N_16
REMARK    5  A    between atoms: N_22  and  C_23
REMARK    6  A    between atoms: C_26  and  C_27
REMARK                            x       y       z     vdW  Elec       q    Type
REMARK                         _______ _______ _______ _____ _____    ______ ____
ROOT
ATOM      1  N   UNL     1       1.827  10.223  19.626  0.00  0.00    +0.000 N 
ATOM      2  C   UNL     1       0.812  11.137  19.229  0.00  0.00    +0.000 A 
ATOM      3  C   UNL     1       1.201  12.382  18.775  0.00  0.00    +0.000 A 
ATOM      4  C   UNL     1       0.200  13.228  18.382  0.00  0.00    +0.000 A 
ATOM      5  N   UNL     1      -1.096  12.908  18.451  0.00  0.00    +0.000 NA
ATOM      6  C   UNL     1      -1.407  11.694  18.932  0.00  0.00    +0.000 A 
ATOM      7  N   UNL     1      -2.749  11.307  18.967  0.00  0.00    +0.000 N 
ATOM      8  N   UNL     1      -0.491  10.802  19.335  0.00  0.00    +0.000 NA
ATOM      9  H   UNL     1       2.707  10.481  19.186  0.00  0.00    +0.000 HD
ATOM     10  H   UNL     1      -2.836  10.340  19.248  0.00  0.00    +0.000 HD
ENDROOT
BRANCH   1  18
ATOM     11  C   UNL     1       0.965   8.841  22.020  0.00  0.00    +0.000 C 
ATOM     12  C   UNL     1       1.400   8.115  20.771  0.00  0.00    +0.000 A 
ATOM     13  C   UNL     1       1.480   6.709  20.831  0.00  0.00    +0.000 A 
ATOM     14  C   UNL     1       1.910   5.939  19.746  0.00  0.00    +0.000 A 
ATOM     15  C   UNL     1       2.277   6.634  18.587  0.00  0.00    +0.000 A 
ATOM     16  C   UNL     1       2.229   8.039  18.489  0.00  0.00    +0.000 A 
ATOM     17  C   UNL     1       2.721   8.630  17.192  0.00  0.00    +0.000 C 
ATOM     18  C   UNL     1       1.754   8.798  19.578  0.00  0.00    +0.000 A 
BRANCH  14  19
ATOM     19  C   UNL     1       1.999   4.464  19.816  0.00  0.00    +0.000 A 
ATOM     20  C   UNL     1       1.796   3.775  21.021  0.00  0.00    +0.000 A 
ATOM     21  C   UNL     1       1.877   2.390  21.040  0.00  0.00    +0.000 A 
ATOM     22  N   UNL     1       2.152   1.640  19.957  0.00  0.00    +0.000 NA
ATOM     23  C   UNL     1       2.351   2.312  18.806  0.00  0.00    +0.000 A 
ATOM     24  F   UNL     1       2.636   1.592  17.712  0.00  0.00    +0.000 F 
ATOM     25  C   UNL     1       2.280   3.689  18.685  0.00  0.00    +0.000 A 
ENDBRANCH  14  19
ENDBRANCH   1  18
BRANCH   7  26
ATOM     26  C   UNL     1      -3.853  12.133  19.230  0.00  0.00    +0.000 A 
ATOM     27  C   UNL     1      -4.892  12.237  18.298  0.00  0.00    +0.000 A 
ATOM     28  C   UNL     1      -5.951  13.131  18.507  0.00  0.00    +0.000 A 
ATOM     29  C   UNL     1      -5.992  13.914  19.670  0.00  0.00    +0.000 A 
ATOM     30  C   UNL     1      -4.980  13.795  20.617  0.00  0.00    +0.000 A 
ATOM     31  C   UNL     1      -3.922  12.912  20.395  0.00  0.00    +0.000 A 
BRANCH  29  32
ATOM     32  C   UNL     1      -7.059  14.845  19.881  0.00  0.00    +0.000 C 
ATOM     33  N   UNL     1      -7.915  15.612  20.047  0.00  0.00    +0.000 NA
ENDBRANCH  29  32
ENDBRANCH   7  26
TORSDOF 4
ENDMDL
MODEL 3
REMARK VINA RESULT:      -7.9      3.952      5.257
REMARK  Name = 
REMARK  6 active torsions:
REMARK  status: ('A' for Active; 'I' for Inactive)
REMARK    1  A    between atoms: C_1  and  C_2
REMARK    2  A    between atoms: C_4  and  C_5
REMARK    3  A    between atoms: C_13  and  C_14
REMARK    4  A    between atoms: C_15  and  N_16
REMARK    5  A    between atoms: N_22  and  C_23
REMARK    6  A    between atoms: C_26  and  C_27
REMARK                            x       y       z     vdW  Elec       q    Type
REMARK                         _______ _______ _______ _____ _____    ______ ____
ROOT
ATOM      1  N   UNL     1       1.721  10.385  19.726  0.00  0.00    +0.000 N 
ATOM      2  C   UNL     1       0.701  11.317  19.389  0.00  0.00    +0.000 A 
ATOM      3  C   UNL     1       1.086  12.561  18.926  0.00  0.00    +0.000 A 
ATOM      4  C   UNL     1       0.079  13.425  18.592  0.00  0.00    +0.000 A 
ATOM      5  N   UNL     1      -1.216  13.124  18.725  0.00  0.00    +0.000 NA
ATOM      6  C   UNL     1      -1.521  11.910  19.212  0.00  0.00    +0.000 A 
ATOM      7  N   UNL     1      -2.865  11.544  19.313  0.00  0.00    +0.000 N 
ATOM      8  N   UNL     1      -0.599  11.001  19.559  0.00  0.00    +0.000 NA
ATOM      9  H   UNL     1       2.582  10.633  19.243  0.00  0.00    +0.000 HD
ATOM     10  H   UNL     1      -2.953  10.576  19.590  0.00  0.00    +0.000 HD
ENDROOT
BRANCH   1  18
ATOM     11  C   UNL     1       0.905   8.999  22.133  0.00  0.00    +0.000 C 
ATOM     12  C   UNL     1       1.292   8.276  20.867  0.00  0.00    +0.000 A 
ATOM     13  C   UNL     1       1.350   6.867  20.915  0.00  0.00    +0.000 A 
ATOM     14  C   UNL     1       1.738   6.099  19.813  0.00  0.00    +0.000 A 
ATOM     15  C   UNL     1       2.083   6.797  18.649  0.00  0.00    +0.000 A 
ATOM     16  C   UNL     1       2.055   8.203  18.563  0.00  0.00    +0.000 A 
ATOM     17  C   UNL     1       2.520   8.796  17.256  0.00  0.00    +0.000 C 
ATOM     18  C   UNL     1       1.623   8.961  19.670  0.00  0.00    +0.000 A 
BRANCH  14  19
ATOM     19  C   UNL     1       1.804   4.622  19.870  0.00  0.00    +0.000 A 
ATOM     20  C   UNL     1       2.033   3.855  18.719  0.00  0.00    +0.000 A 
ATOM     21  C   UNL     1       2.100   2.473  18.819  0.00  0.00    +0.000 A 
ATOM     22  N   UNL     1       1.947   1.796  19.972  0.00  0.00    +0.000 NA
ATOM     23  C   UNL     1       1.721   2.542  21.071  0.00  0.00    +0.000 A 
ATOM     24  F   UNL     1       1.555   1.895  22.233  0.00  0.00    +0.000 F 
ATOM     25  C   UNL     1       1.649   3.924  21.073  0.00  0.00    +0.000 A 
ENDBRANCH  14  19
ENDBRANCH   1  18
BRANCH   7  26
ATOM     26  C   UNL     1      -3.941  12.384  19.640  0.00  0.00    +0.000 A 
ATOM     27  C   UNL     1      -5.061  12.450  18.803  0.00  0.00    +0.000 A 
ATOM     28  C   UNL     1      -6.098  13.356  19.070  0.00  0.00    +0.000 A 
ATOM     29  C   UNL     1      -6.033  14.190  20.195  0.00  0.00    +0.000 A 
ATOM     30  C   UNL     1      -4.938  14.109  21.049  0.00  0.00    +0.000 A 
ATOM     31  C   UNL     1      -3.903  13.214  20.770  0.00  0.00    +0.000 A 
BRANCH  29  32
ATOM     32  C   UNL     1      -7.077  15.132  20.462  0.00  0.00    +0.000 C 
ATOM     33  N   UNL     1      -7.916  15.901  20.691  0.00  0.00    +0.000 NA
ENDBRANCH  29  32
ENDBRANCH   7  26
TORSDOF 4
ENDMDL
MODEL 4
REMARK VINA RESULT:      -7.9      0.844      1.965
REMARK  Name = 
REMARK  6 active torsions:
REMARK  status: ('A' for Active; 'I' for Inactive)
REMARK    1  A    between atoms: C_1  and  C_2
REMARK    2  A    between atoms: C_4  and  C_5
REMARK    3  A    between atoms: C_13  and  C_14
REMARK    4  A    between atoms: C_15  and  N_16
REMARK    5  A    between atoms: N_22  and  C_23
REMARK    6  A    between atoms: C_26  and  C_27
REMARK                            x       y       z     vdW  Elec       q    Type
REMARK                         _______ _______ _______ _____ _____    ______ ____
ROOT
ATOM      1  N   UNL     1       0.731   7.447  20.348  0.00  0.00    +0.000 N 
ATOM      2  C   UNL     1       0.627   8.763  20.877  0.00  0.00    +0.000 A 
ATOM      3  C   UNL     1      -0.074   8.935  22.055  0.00  0.00    +0.000 A 
ATOM      4  C   UNL     1      -0.137  10.211  22.547  0.00  0.00    +0.000 A 
ATOM      5  N   UNL     1       0.412  11.260  21.927  0.00  0.00    +0.000 NA
ATOM      6  C   UNL     1       1.051  11.028  20.769  0.00  0.00    +0.000 A 
ATOM      7  N   UNL     1       1.682  12.094  20.124  0.00  0.00    +0.000 N 
ATOM      8  N   UNL     1       1.164   9.811  20.219  0.00  0.00    +0.000 NA
ATOM      9  H   UNL     1       0.584   6.769  21.091  0.00  0.00    +0.000 HD
ATOM     10  H   UNL     1       2.211  11.768  19.327  0.00  0.00    +0.000 HD
ENDROOT
BRANCH   1  18
ATOM     11  C   UNL     1       2.087   5.058  21.265  0.00  0.00    +0.000 C 
ATOM     12  C   UNL     1       2.506   5.809  20.025  0.00  0.00    +0.000 A 
ATOM     13  C   UNL     1       3.670   5.369  19.361  0.00  0.00    +0.000 A 
ATOM     14  C   UNL     1       4.171   6.016  18.228  0.00  0.00    +0.000 A 
ATOM     15  C   UNL     1       3.468   7.142  17.782  0.00  0.00    +0.000 A 
ATOM     16  C   UNL     1       2.310   7.625  18.424  0.00  0.00    +0.000 A 
ATOM     17  C   UNL     1       1.712   8.886  17.853  0.00  0.00    +0.000 C 
ATOM     18  C   UNL     1       1.794   6.937  19.542  0.00  0.00    +0.000 A 
BRANCH  14  19
ATOM     19  C   UNL     1       5.397   5.556  17.539  0.00  0.00    +0.000 A 
ATOM     20  C   UNL     1       6.501   5.072  18.256  0.00  0.00    +0.000 A 
ATOM     21  C   UNL     1       7.627   4.639  17.570  0.00  0.00    +0.000 A 
ATOM     22  N   UNL     1       7.742   4.659  16.229  0.00  0.00    +0.000 NA
ATOM     23  C   UNL     1       6.678   5.130  15.551  0.00  0.00    +0.000 A 
ATOM     24  F   UNL     1       6.767   5.171  14.214  0.00  0.00    +0.000 F 
ATOM     25  C   UNL     1       5.509   5.574  16.144  0.00  0.00    +0.000 A 
ENDBRANCH  14  19
ENDBRANCH   1  18
BRANCH   7  26
ATOM     26  C   UNL     1       1.238  13.424  20.073  0.00  0.00    +0.000 A 
ATOM     27  C   UNL     1       1.830  14.395  20.889  0.00  0.00    +0.000 A 
ATOM     28  C   UNL     1       1.331  15.705  20.916  0.00  0.00    +0.000 A 
ATOM     29  C   UNL     1       0.246  16.062  20.103  0.00  0.00    +0.000 A 
ATOM     30  C   UNL     1      -0.329  15.112  19.265  0.00  0.00    +0.000 A 
ATOM     31  C   UNL     1       0.165  13.807  19.254  0.00  0.00    +0.000 A 
BRANCH  29  32
ATOM     32  C   UNL     1      -0.283  17.392  20.141  0.00  0.00    +0.000 C 
ATOM     33  N   UNL     1      -0.726  18.465  20.169  0.00  0.00    +0.000 NA
ENDBRANCH  29  32
ENDBRANCH   7  26
TORSDOF 4
ENDMDL
MODEL 5
REMARK VINA RESULT:      -7.9      3.611      4.419
REMARK  Name = 
REMARK  6 active torsions:
REMARK  status: ('A' for Active; 'I' for Inactive)
REMARK    1  A    between atoms: C_1  and  C_2
REMARK    2  A    between atoms: C_4  and  C_5
REMARK    3  A    between atoms: C_13  and  C_14
REMARK    4  A    between atoms: C_15  and  N_16
REMARK    5  A    between atoms: N_22  and  C_23
REMARK    6  A    between atoms: C_26  and  C_27
REMARK                            x       y       z     vdW  Elec       q    Type
REMARK                         _______ _______ _______ _____ _____    ______ ____
ROOT
ATOM      1  N   UNL     1       1.472   8.283  20.638  0.00  0.00    +0.000 N 
ATOM      2  C   UNL     1       0.573   9.375  20.486  0.00  0.00    +0.000 A 
ATOM      3  C   UNL     1       0.517  10.316  21.496  0.00  0.00    +0.000 A 
ATOM      4  C   UNL     1      -0.343  11.363  21.307  0.00  0.00    +0.000 A 
ATOM      5  N   UNL     1      -1.124  11.481  20.230  0.00  0.00    +0.000 NA
ATOM      6  C   UNL     1      -1.045  10.515  19.301  0.00  0.00    +0.000 A 
ATOM      7  N   UNL     1      -1.808  10.636  18.137  0.00  0.00    +0.000 N 
ATOM      8  N   UNL     1      -0.227   9.458  19.403  0.00  0.00    +0.000 NA
ATOM      9  H   UNL     1       2.204   8.535  21.298  0.00  0.00    +0.000 HD
ATOM     10  H   UNL     1      -1.578   9.904  17.480  0.00  0.00    +0.000 HD
ENDROOT
BRANCH   1  18
ATOM     11  C   UNL     1       1.867   5.441  21.024  0.00  0.00    +0.000 C 
ATOM     12  C   UNL     1       2.366   6.176  19.805  0.00  0.00    +0.000 A 
ATOM     13  C   UNL     1       3.143   5.447  18.880  0.00  0.00    +0.000 A 
ATOM     14  C   UNL     1       3.691   6.038  17.738  0.00  0.00    +0.000 A 
ATOM     15  C   UNL     1       3.444   7.405  17.555  0.00  0.00    +0.000 A 
ATOM     16  C   UNL     1       2.688   8.173  18.462  0.00  0.00    +0.000 A 
ATOM     17  C   UNL     1       2.573   9.644  18.149  0.00  0.00    +0.000 C 
ATOM     18  C   UNL     1       2.108   7.554  19.588  0.00  0.00    +0.000 A 
BRANCH  14  19
ATOM     19  C   UNL     1       4.511   5.272  16.774  0.00  0.00    +0.000 A 
ATOM     20  C   UNL     1       4.549   3.870  16.799  0.00  0.00    +0.000 A 
ATOM     21  C   UNL     1       5.323   3.190  15.868  0.00  0.00    +0.000 A 
ATOM     22  N   UNL     1       6.067   3.796  14.925  0.00  0.00    +0.000 NA
ATOM     23  C   UNL     1       6.027   5.143  14.914  0.00  0.00    +0.000 A 
ATOM     24  F   UNL     1       6.766   5.775  13.991  0.00  0.00    +0.000 F 
ATOM     25  C   UNL     1       5.278   5.908  15.791  0.00  0.00    +0.000 A 
ENDBRANCH  14  19
ENDBRANCH   1  18
BRANCH   7  26
ATOM     26  C   UNL     1      -3.097  11.182  18.033  0.00  0.00    +0.000 A 
ATOM     27  C   UNL     1      -3.762  11.186  16.801  0.00  0.00    +0.000 A 
ATOM     28  C   UNL     1      -5.009  11.813  16.665  0.00  0.00    +0.000 A 
ATOM     29  C   UNL     1      -5.614  12.423  17.773  0.00  0.00    +0.000 A 
ATOM     30  C   UNL     1      -4.975  12.397  19.008  0.00  0.00    +0.000 A 
ATOM     31  C   UNL     1      -3.728  11.782  19.133  0.00  0.00    +0.000 A 
BRANCH  29  32
ATOM     32  C   UNL     1      -6.876  13.085  17.637  0.00  0.00    +0.000 C 
ATOM     33  N   UNL     1      -7.906  13.611  17.536  0.00  0.00    +0.000 NA
ENDBRANCH  29  32
ENDBRANCH   7  26
TORSDOF 4
ENDMDL
MODEL 6
REMARK VINA RESULT:      -7.9      0.470      1.850
REMARK  Name = 
REMARK  6 active torsions:
REMARK  status: ('A' for Active; 'I' for Inactive)
REMARK    1  A    between atoms: C_1  and  C_2
REMARK    2  A    between atoms: C_4  and  C_5
REMARK    3  A    between atoms: C_13  and  C_14
REMARK    4  A    between atoms: C_15  and  N_16
REMARK    5  A    between atoms: N_22  and  C_23
REMARK    6  A    between atoms: C_26  and  C_27
REMARK                            x       y       z     vdW  Elec       q    Type
REMARK                         _______ _______ _______ _____ _____    ______ ____
ROOT
ATOM      1  N   UNL     1       0.721   7.441  20.374  0.00  0.00    +0.000 N 
ATOM      2  C   UNL     1       0.625   8.759  20.902  0.00  0.00    +0.000 A 
ATOM      3  C   UNL     1      -0.007   8.926  22.118  0.00  0.00    +0.000 A 
ATOM      4  C   UNL     1      -0.063  10.203  22.607  0.00  0.00    +0.000 A 
ATOM      5  N   UNL     1       0.428  11.258  21.950  0.00  0.00    +0.000 NA
ATOM      6  C   UNL     1       1.001  11.031  20.757  0.00  0.00    +0.000 A 
ATOM      7  N   UNL     1       1.573  12.103  20.069  0.00  0.00    +0.000 N 
ATOM      8  N   UNL     1       1.103   9.812  20.207  0.00  0.00    +0.000 NA
ATOM      9  H   UNL     1       0.630   6.765  21.128  0.00  0.00    +0.000 HD
ATOM     10  H   UNL     1       2.059  11.782  19.243  0.00  0.00    +0.000 HD
ENDROOT
BRANCH   1  18
ATOM     11  C   UNL     1       2.140   5.056  21.197  0.00  0.00    +0.000 C 
ATOM     12  C   UNL     1       2.487   5.819  19.943  0.00  0.00    +0.000 A 
ATOM     13  C   UNL     1       3.617   5.393  19.215  0.00  0.00    +0.000 A 
ATOM     14  C   UNL     1       4.052   6.052  18.061  0.00  0.00    +0.000 A 
ATOM     15  C   UNL     1       3.318   7.176  17.662  0.00  0.00    +0.000 A 
ATOM     16  C   UNL     1       2.193   7.645  18.370  0.00  0.00    +0.000 A 
ATOM     17  C   UNL     1       1.557   8.906  17.841  0.00  0.00    +0.000 C 
ATOM     18  C   UNL     1       1.743   6.946  19.507  0.00  0.00    +0.000 A 
BRANCH  14  19
ATOM     19  C   UNL     1       5.242   5.606  17.304  0.00  0.00    +0.000 A 
ATOM     20  C   UNL     1       5.300   5.706  15.907  0.00  0.00    +0.000 A 
ATOM     21  C   UNL     1       6.441   5.287  15.236  0.00  0.00    +0.000 A 
ATOM     22  N   UNL     1       7.521   4.767  15.848  0.00  0.00    +0.000 NA
ATOM     23  C   UNL     1       7.453   4.670  17.189  0.00  0.00    +0.000 A 
ATOM     24  F   UNL     1       8.511   4.147  17.826  0.00  0.00    +0.000 F 
ATOM     25  C   UNL     1       6.366   5.071  17.946  0.00  0.00    +0.000 A 
ENDBRANCH  14  19
ENDBRANCH   1  18
BRANCH   7  26
ATOM     26  C   UNL     1       1.103  13.425  20.038  0.00  0.00    +0.000 A 
ATOM     27  C   UNL     1       0.251  13.845  19.009  0.00  0.00    +0.000 A 
ATOM     28  C   UNL     1      -0.147  15.186  18.915  0.00  0.00    +0.000 A 
ATOM     29  C   UNL     1       0.286  16.118  19.870  0.00  0.00    +0.000 A 
ATOM     30  C   UNL     1       1.107  15.703  20.913  0.00  0.00    +0.000 A 
ATOM     31  C   UNL     1       1.510  14.369  20.992  0.00  0.00    +0.000 A 
BRANCH  29  32
ATOM     32  C   UNL     1      -0.099  17.493  19.768  0.00  0.00    +0.000 C 
ATOM     33  N   UNL     1      -0.425  18.604  19.683  0.00  0.00    +0.000 NA
ENDBRANCH  29  32
ENDBRANCH   7  26
TORSDOF 4
ENDMDL
MODEL 7
REMARK VINA RESULT:      -7.8      3.438      4.616
REMARK  Name = 
REMARK  6 active torsions:
REMARK  status: ('A' for Active; 'I' for Inactive)
REMARK    1  A    between atoms: C_1  and  C_2
REMARK    2  A    between atoms: C_4  and  C_5
REMARK    3  A    between atoms: C_13  and  C_14
REMARK    4  A    between atoms: C_15  and  N_16
REMARK    5  A    between atoms: N_22  and  C_23
REMARK    6  A    between atoms: C_26  and  C_27
REMARK                            x       y       z     vdW  Elec       q    Type
REMARK                         _______ _______ _______ _____ _____    ______ ____
ROOT
ATOM      1  N   UNL     1       3.002   6.021  19.048  0.00  0.00    +0.000 N 
ATOM      2  C   UNL     1       2.230   7.167  19.387  0.00  0.00    +0.000 A 
ATOM      3  C   UNL     1       2.206   7.566  20.709  0.00  0.00    +0.000 A 
ATOM      4  C   UNL     1       1.470   8.683  20.997  0.00  0.00    +0.000 A 
ATOM      5  N   UNL     1       0.774   9.356  20.075  0.00  0.00    +0.000 NA
ATOM      6  C   UNL     1       0.813   8.896  18.814  0.00  0.00    +0.000 A 
ATOM      7  N   UNL     1       0.141   9.607  17.817  0.00  0.00    +0.000 N 
ATOM      8  N   UNL     1       1.512   7.813  18.444  0.00  0.00    +0.000 NA
ATOM      9  H   UNL     1       3.713   5.868  19.759  0.00  0.00    +0.000 HD
ATOM     10  H   UNL     1       0.336   9.217  16.905  0.00  0.00    +0.000 HD
ENDROOT
BRANCH   1  18
ATOM     11  C   UNL     1       2.509   3.449  17.814  0.00  0.00    +0.000 C 
ATOM     12  C   UNL     1       3.443   4.473  17.219  0.00  0.00    +0.000 A 
ATOM     13  C   UNL     1       4.171   4.100  16.070  0.00  0.00    +0.000 A 
ATOM     14  C   UNL     1       5.094   4.956  15.461  0.00  0.00    +0.000 A 
ATOM     15  C   UNL     1       5.276   6.211  16.055  0.00  0.00    +0.000 A 
ATOM     16  C   UNL     1       4.582   6.618  17.211  0.00  0.00    +0.000 A 
ATOM     17  C   UNL     1       4.945   7.976  17.758  0.00  0.00    +0.000 C 
ATOM     18  C   UNL     1       3.625   5.759  17.790  0.00  0.00    +0.000 A 
BRANCH  14  19
ATOM     19  C   UNL     1       5.861   4.557  14.261  0.00  0.00    +0.000 A 
ATOM     20  C   UNL     1       7.097   5.144  13.954  0.00  0.00    +0.000 A 
ATOM     21  C   UNL     1       7.790   4.732  12.824  0.00  0.00    +0.000 A 
ATOM     22  N   UNL     1       7.343   3.789  11.974  0.00  0.00    +0.000 NA
ATOM     23  C   UNL     1       6.153   3.235  12.275  0.00  0.00    +0.000 A 
ATOM     24  F   UNL     1       5.678   2.299  11.440  0.00  0.00    +0.000 F 
ATOM     25  C   UNL     1       5.395   3.571  13.383  0.00  0.00    +0.000 A 
ENDBRANCH  14  19
ENDBRANCH   1  18
BRANCH   7  26
ATOM     26  C   UNL     1      -1.077  10.292  17.952  0.00  0.00    +0.000 A 
ATOM     27  C   UNL     1      -1.171  11.397  18.806  0.00  0.00    +0.000 A 
ATOM     28  C   UNL     1      -2.404  12.029  19.022  0.00  0.00    +0.000 A 
ATOM     29  C   UNL     1      -3.554  11.572  18.361  0.00  0.00    +0.000 A 
ATOM     30  C   UNL     1      -3.463  10.494  17.487  0.00  0.00    +0.000 A 
ATOM     31  C   UNL     1      -2.235   9.862  17.288  0.00  0.00    +0.000 A 
BRANCH  29  32
ATOM     32  C   UNL     1      -4.820  12.198  18.593  0.00  0.00    +0.000 C 
ATOM     33  N   UNL     1      -5.842  12.719  18.774  0.00  0.00    +0.000 NA
ENDBRANCH  29  32
ENDBRANCH   7  26
TORSDOF 4
ENDMDL
MODEL 8
REMARK VINA RESULT:      -7.8      3.789      5.229
REMARK  Name = 
REMARK  6 active torsions:
REMARK  status: ('A' for Active; 'I' for Inactive)
REMARK    1  A    between atoms: C_1  and  C_2
REMARK    2  A    between atoms: C_4  and  C_5
REMARK    3  A    between atoms: C_13  and  C_14
REMARK    4  A    between atoms: C_15  and  N_16
REMARK    5  A    between atoms: N_22  and  C_23
REMARK    6  A    between atoms: C_26  and  C_27
REMARK                            x       y       z     vdW  Elec       q    Type
REMARK                         _______ _______ _______ _____ _____    ______ ____
ROOT
ATOM      1  N   UNL     1       1.582  10.803  20.267  0.00  0.00    +0.000 N 
ATOM      2  C   UNL     1       0.532  11.750  20.107  0.00  0.00    +0.000 A 
ATOM      3  C   UNL     1       0.871  13.040  19.746  0.00  0.00    +0.000 A 
ATOM      4  C   UNL     1      -0.164  13.920  19.581  0.00  0.00    +0.000 A 
ATOM      5  N   UNL     1      -1.443  13.588  19.783  0.00  0.00    +0.000 NA
ATOM      6  C   UNL     1      -1.701  12.327  20.165  0.00  0.00    +0.000 A 
ATOM      7  N   UNL     1      -3.030  11.932  20.332  0.00  0.00    +0.000 N 
ATOM      8  N   UNL     1      -0.749  11.400  20.345  0.00  0.00    +0.000 NA
ATOM      9  H   UNL     1       2.400  11.112  19.747  0.00  0.00    +0.000 HD
ATOM     10  H   UNL     1      -3.090  10.940  20.515  0.00  0.00    +0.000 HD
ENDROOT
BRANCH   1  18
ATOM     11  C   UNL     1       0.965   9.169  22.575  0.00  0.00    +0.000 C 
ATOM     12  C   UNL     1       1.257   8.583  21.216  0.00  0.00    +0.000 A 
ATOM     13  C   UNL     1       1.327   7.178  21.115  0.00  0.00    +0.000 A 
ATOM     14  C   UNL     1       1.632   6.532  19.913  0.00  0.00    +0.000 A 
ATOM     15  C   UNL     1       1.881   7.349  18.803  0.00  0.00    +0.000 A 
ATOM     16  C   UNL     1       1.837   8.756  18.864  0.00  0.00    +0.000 A 
ATOM     17  C   UNL     1       2.195   9.486  17.593  0.00  0.00    +0.000 C 
ATOM     18  C   UNL     1       1.489   9.391  20.073  0.00  0.00    +0.000 A 
BRANCH  14  19
ATOM     19  C   UNL     1       1.712   5.058  19.813  0.00  0.00    +0.000 A 
ATOM     20  C   UNL     1       1.580   4.240  20.945  0.00  0.00    +0.000 A 
ATOM     21  C   UNL     1       1.650   2.861  20.805  0.00  0.00    +0.000 A 
ATOM     22  N   UNL     1       1.850   2.236  19.630  0.00  0.00    +0.000 NA
ATOM     23  C   UNL     1       1.982   3.031  18.551  0.00  0.00    +0.000 A 
ATOM     24  F   UNL     1       2.192   2.436  17.368  0.00  0.00    +0.000 F 
ATOM     25  C   UNL     1       1.915   4.413  18.588  0.00  0.00    +0.000 A 
ENDBRANCH  14  19
ENDBRANCH   1  18
BRANCH   7  26
ATOM     26  C   UNL     1      -4.082  12.719  20.826  0.00  0.00    +0.000 A 
ATOM     27  C   UNL     1      -5.038  13.247  19.949  0.00  0.00    +0.000 A 
ATOM     28  C   UNL     1      -6.037  14.111  20.419  0.00  0.00    +0.000 A 
ATOM     29  C   UNL     1      -6.102  14.438  21.781  0.00  0.00    +0.000 A 
ATOM     30  C   UNL     1      -5.175  13.894  22.665  0.00  0.00    +0.000 A 
ATOM     31  C   UNL     1      -4.176  13.044  22.187  0.00  0.00    +0.000 A 
BRANCH  29  32
ATOM     32  C   UNL     1      -7.105  15.337  22.264  0.00  0.00    +0.000 C 
ATOM     33  N   UNL     1      -7.910  16.069  22.669  0.00  0.00    +0.000 NA
ENDBRANCH  29  32
ENDBRANCH   7  26
TORSDOF 4
ENDMDL
MODEL 9
REMARK VINA RESULT:      -7.8      3.881      5.270
REMARK  Name = 
REMARK  6 active torsions:
REMARK  status: ('A' for Active; 'I' for Inactive)
REMARK    1  A    between atoms: C_1  and  C_2
REMARK    2  A    between atoms: C_4  and  C_5
REMARK    3  A    between atoms: C_13  and  C_14
REMARK    4  A    between atoms: C_15  and  N_16
REMARK    5  A    between atoms: N_22  and  C_23
REMARK    6  A    between atoms: C_26  and  C_27
REMARK                            x       y       z     vdW  Elec       q    Type
REMARK                         _______ _______ _______ _____ _____    ______ ____
ROOT
ATOM      1  N   UNL     1       1.739  10.516  19.642  0.00  0.00    +0.000 N 
ATOM      2  C   UNL     1       0.687  11.442  19.399  0.00  0.00    +0.000 A 
ATOM      3  C   UNL     1       1.007  12.645  18.802  0.00  0.00    +0.000 A 
ATOM      4  C   UNL     1      -0.032  13.504  18.565  0.00  0.00    +0.000 A 
ATOM      5  N   UNL     1      -1.295  13.235  18.911  0.00  0.00    +0.000 NA
ATOM      6  C   UNL     1      -1.532  12.061  19.518  0.00  0.00    +0.000 A 
ATOM      7  N   UNL     1      -2.848  11.725  19.844  0.00  0.00    +0.000 N 
ATOM      8  N   UNL     1      -0.575  11.160  19.784  0.00  0.00    +0.000 NA
ATOM      9  H   UNL     1       2.519  10.717  19.020  0.00  0.00    +0.000 HD
ATOM     10  H   UNL     1      -2.900  10.779  20.196  0.00  0.00    +0.000 HD
ENDROOT
BRANCH   1  18
ATOM     11  C   UNL     1       0.824   9.337  22.122  0.00  0.00    +0.000 C 
ATOM     12  C   UNL     1       1.243   8.510  20.933  0.00  0.00    +0.000 A 
ATOM     13  C   UNL     1       1.280   7.110  21.095  0.00  0.00    +0.000 A 
ATOM     14  C   UNL     1       1.693   6.251  20.072  0.00  0.00    +0.000 A 
ATOM     15  C   UNL     1       2.087   6.848  18.868  0.00  0.00    +0.000 A 
ATOM     16  C   UNL     1       2.081   8.243  18.669  0.00  0.00    +0.000 A 
ATOM     17  C   UNL     1       2.597   8.724  17.336  0.00  0.00    +0.000 C 
ATOM     18  C   UNL     1       1.623   9.093  19.697  0.00  0.00    +0.000 A 
BRANCH  14  19
ATOM     19  C   UNL     1       1.737   4.783  20.250  0.00  0.00    +0.000 A 
ATOM     20  C   UNL     1       2.189   4.204  21.444  0.00  0.00    +0.000 A 
ATOM     21  C   UNL     1       2.203   2.821  21.573  0.00  0.00    +0.000 A 
ATOM     22  N   UNL     1       1.811   1.974  20.604  0.00  0.00    +0.000 NA
ATOM     23  C   UNL     1       1.384   2.541  19.459  0.00  0.00    +0.000 A 
ATOM     24  F   UNL     1       0.996   1.722  18.471  0.00  0.00    +0.000 F 
ATOM     25  C   UNL     1       1.323   3.906  19.240  0.00  0.00    +0.000 A 
ENDBRANCH  14  19
ENDBRANCH   1  18
BRANCH   7  26
ATOM     26  C   UNL     1      -3.856  12.604  20.272  0.00  0.00    +0.000 A 
ATOM     27  C   UNL     1      -3.777  13.203  21.534  0.00  0.00    +0.000 A 
ATOM     28  C   UNL     1      -4.824  14.007  22.009  0.00  0.00    +0.000 A 
ATOM     29  C   UNL     1      -5.952  14.237  21.210  0.00  0.00    +0.000 A 
ATOM     30  C   UNL     1      -6.025  13.670  19.941  0.00  0.00    +0.000 A 
ATOM     31  C   UNL     1      -4.986  12.862  19.481  0.00  0.00    +0.000 A 
BRANCH  29  32
ATOM     32  C   UNL     1      -7.035  15.038  21.696  0.00  0.00    +0.000 C 
ATOM     33  N   UNL     1      -7.917  15.676  22.101  0.00  0.00    +0.000 NA
ENDBRANCH  29  32
ENDBRANCH   7  26
TORSDOF 4
ENDMDL
