MODEL 1
REMARK VINA RESULT:      -8.2      0.000      0.000
REMARK  Name = 
REMARK  1 active torsions:
REMARK  status: ('A' for Active; 'I' for Inactive)
REMARK    1  A    between atoms: C_1  and  C_2
REMARK                            x       y       z     vdW  Elec       q    Type
REMARK                         _______ _______ _______ _____ _____    ______ ____
ROOT
ATOM      1  C   UNL     1       6.891   4.406  14.101  0.00  0.00    +0.000 C 
ATOM      2  C   UNL     1       6.332   5.089  15.356  0.00  0.00    +0.000 C 
ATOM      3  C   UNL     1       7.241   4.732  16.525  0.00  0.00    +0.000 C 
ATOM      4  C   UNL     1       6.705   5.497  17.699  0.00  0.00    +0.000 C 
ATOM      5  O   UNL     1       7.225   6.477  18.196  0.00  0.00    +0.000 OA
ATOM      6  C   UNL     1       5.456   4.900  18.151  0.00  0.00    +0.000 C 
ATOM      7  C   UNL     1       5.682   4.080  19.179  0.00  0.00    +0.000 C 
ATOM      8  N   UNL     1       4.934   3.013  19.586  0.00  0.00    +0.000 N 
ATOM      9  C   UNL     1       3.533   3.155  19.692  0.00  0.00    +0.000 A 
ATOM     10  C   UNL     1       2.965   2.725  20.907  0.00  0.00    +0.000 A 
ATOM     11  C   UNL     1       1.630   2.969  21.192  0.00  0.00    +0.000 A 
ATOM     12  C   UNL     1       0.839   3.625  20.250  0.00  0.00    +0.000 A 
ATOM     13  C   UNL     1       1.390   4.017  19.017  0.00  0.00    +0.000 A 
ATOM     14  C   UNL     1       2.746   3.799  18.705  0.00  0.00    +0.000 A 
ATOM     15  N   UNL     1       3.194   4.141  17.394  0.00  0.00    +0.000 NA
ATOM     16  C   UNL     1       4.397   4.583  17.146  0.00  0.00    +0.000 C 
ATOM     17  C   UNL     1       4.811   4.814  15.653  0.00  0.00    +0.000 C 
ATOM     18  H   UNL     1       5.345   2.485  20.350  0.00  0.00    +0.000 HD
ENDROOT
TORSDOF 0
ENDMDL
MODEL 2
REMARK VINA RESULT:      -7.7      1.390      2.789
REMARK  Name = 
REMARK  1 active torsions:
REMARK  status: ('A' for Active; 'I' for Inactive)
REMARK    1  A    between atoms: C_1  and  C_2
REMARK                            x       y       z     vdW  Elec       q    Type
REMARK                         _______ _______ _______ _____ _____    ______ ____
ROOT
ATOM      1  C   UNL     1       8.177   7.592  18.237  0.00  0.00    +0.000 C 
ATOM      2  C   UNL     1       7.586   6.185  18.077  0.00  0.00    +0.000 C 
ATOM      3  C   UNL     1       6.801   6.154  16.772  0.00  0.00    +0.000 C 
ATOM      4  C   UNL     1       6.327   4.738  16.622  0.00  0.00    +0.000 C 
ATOM      5  O   UNL     1       6.773   3.927  15.835  0.00  0.00    +0.000 OA
ATOM      6  C   UNL     1       5.257   4.472  17.573  0.00  0.00    +0.000 C 
ATOM      7  C   UNL     1       4.069   4.609  16.982  0.00  0.00    +0.000 C 
ATOM      8  N   UNL     1       2.869   4.905  17.561  0.00  0.00    +0.000 N 
ATOM      9  C   UNL     1       2.480   4.216  18.731  0.00  0.00    +0.000 A 
ATOM     10  C   UNL     1       1.185   3.662  18.713  0.00  0.00    +0.000 A 
ATOM     11  C   UNL     1       0.757   2.824  19.731  0.00  0.00    +0.000 A 
ATOM     12  C   UNL     1       1.614   2.551  20.797  0.00  0.00    +0.000 A 
ATOM     13  C   UNL     1       2.891   3.137  20.842  0.00  0.00    +0.000 A 
ATOM     14  C   UNL     1       3.361   3.979  19.815  0.00  0.00    +0.000 A 
ATOM     15  N   UNL     1       4.630   4.606  19.993  0.00  0.00    +0.000 NA
ATOM     16  C   UNL     1       5.442   4.861  19.003  0.00  0.00    +0.000 C 
ATOM     17  C   UNL     1       6.756   5.659  19.307  0.00  0.00    +0.000 C 
ATOM     18  H   UNL     1       2.110   5.038  16.900  0.00  0.00    +0.000 HD
ENDROOT
TORSDOF 0
ENDMDL
MODEL 3
REMARK VINA RESULT:      -7.6      2.202      5.758
REMARK  Name = 
REMARK  1 active torsions:
REMARK  status: ('A' for Active; 'I' for Inactive)
REMARK    1  A    between atoms: C_1  and  C_2
REMARK                            x       y       z     vdW  Elec       q    Type
REMARK                         _______ _______ _______ _____ _____    ______ ____
ROOT
ATOM      1  C   UNL     1       1.412   2.519  21.847  0.00  0.00    +0.000 C 
ATOM      2  C   UNL     1       1.560   3.440  20.629  0.00  0.00    +0.000 C 
ATOM      3  C   UNL     1       1.480   2.575  19.377  0.00  0.00    +0.000 C 
ATOM      4  C   UNL     1       1.536   3.533  18.223  0.00  0.00    +0.000 C 
ATOM      5  O   UNL     1       0.597   3.834  17.514  0.00  0.00    +0.000 OA
ATOM      6  C   UNL     1       2.885   4.063  18.086  0.00  0.00    +0.000 C 
ATOM      7  C   UNL     1       3.556   3.381  17.156  0.00  0.00    +0.000 C 
ATOM      8  N   UNL     1       4.907   3.224  17.037  0.00  0.00    +0.000 N 
ATOM      9  C   UNL     1       5.745   4.354  17.162  0.00  0.00    +0.000 A 
ATOM     10  C   UNL     1       6.696   4.527  16.137  0.00  0.00    +0.000 A 
ATOM     11  C   UNL     1       7.456   5.684  16.062  0.00  0.00    +0.000 A 
ATOM     12  C   UNL     1       7.293   6.673  17.030  0.00  0.00    +0.000 A 
ATOM     13  C   UNL     1       6.377   6.486  18.081  0.00  0.00    +0.000 A 
ATOM     14  C   UNL     1       5.578   5.330  18.175  0.00  0.00    +0.000 A 
ATOM     15  N   UNL     1       4.749   5.182  19.327  0.00  0.00    +0.000 NA
ATOM     16  C   UNL     1       3.587   4.588  19.295  0.00  0.00    +0.000 C 
ATOM     17  C   UNL     1       2.820   4.383  20.646  0.00  0.00    +0.000 C 
ATOM     18  H   UNL     1       5.188   2.594  16.292  0.00  0.00    +0.000 HD
ENDROOT
TORSDOF 0
ENDMDL
MODEL 4
REMARK VINA RESULT:      -7.5      1.815      2.932
REMARK  Name = 
REMARK  1 active torsions:
REMARK  status: ('A' for Active; 'I' for Inactive)
REMARK    1  A    between atoms: C_1  and  C_2
REMARK                            x       y       z     vdW  Elec       q    Type
REMARK                         _______ _______ _______ _____ _____    ______ ____
ROOT
ATOM      1  C   UNL     1       8.432   7.700  18.480  0.00  0.00    +0.000 C 
ATOM      2  C   UNL     1       7.450   6.720  17.825  0.00  0.00    +0.000 C 
ATOM      3  C   UNL     1       6.282   7.529  17.274  0.00  0.00    +0.000 C 
ATOM      4  C   UNL     1       5.405   6.538  16.567  0.00  0.00    +0.000 C 
ATOM      5  O   UNL     1       5.296   6.429  15.362  0.00  0.00    +0.000 OA
ATOM      6  C   UNL     1       4.708   5.710  17.543  0.00  0.00    +0.000 C 
ATOM      7  C   UNL     1       3.480   6.184  17.756  0.00  0.00    +0.000 C 
ATOM      8  N   UNL     1       2.697   6.025  18.863  0.00  0.00    +0.000 N 
ATOM      9  C   UNL     1       2.565   4.741  19.435  0.00  0.00    +0.000 A 
ATOM     10  C   UNL     1       1.246   4.316  19.687  0.00  0.00    +0.000 A 
ATOM     11  C   UNL     1       0.983   3.014  20.087  0.00  0.00    +0.000 A 
ATOM     12  C   UNL     1       2.045   2.128  20.267  0.00  0.00    +0.000 A 
ATOM     13  C   UNL     1       3.366   2.560  20.061  0.00  0.00    +0.000 A 
ATOM     14  C   UNL     1       3.664   3.870  19.637  0.00  0.00    +0.000 A 
ATOM     15  N   UNL     1       5.037   4.249  19.548  0.00  0.00    +0.000 NA
ATOM     16  C   UNL     1       5.486   5.090  18.657  0.00  0.00    +0.000 C 
ATOM     17  C   UNL     1       6.992   5.518  18.731  0.00  0.00    +0.000 C 
ATOM     18  H   UNL     1       1.824   6.545  18.832  0.00  0.00    +0.000 HD
ENDROOT
TORSDOF 0
ENDMDL
MODEL 5
REMARK VINA RESULT:      -7.3      2.558      5.855
REMARK  Name = 
REMARK  1 active torsions:
REMARK  status: ('A' for Active; 'I' for Inactive)
REMARK    1  A    between atoms: C_1  and  C_2
REMARK                            x       y       z     vdW  Elec       q    Type
REMARK                         _______ _______ _______ _____ _____    ______ ____
ROOT
ATOM      1  C   UNL     1       1.592   2.824  22.443  0.00  0.00    +0.000 C 
ATOM      2  C   UNL     1       1.340   3.218  20.982  0.00  0.00    +0.000 C 
ATOM      3  C   UNL     1       1.541   1.976  20.123  0.00  0.00    +0.000 C 
ATOM      4  C   UNL     1       1.193   2.394  18.724  0.00  0.00    +0.000 C 
ATOM      5  O   UNL     1       0.183   2.078  18.127  0.00  0.00    +0.000 OA
ATOM      6  C   UNL     1       2.241   3.250  18.189  0.00  0.00    +0.000 C 
ATOM      7  C   UNL     1       3.082   2.536  17.439  0.00  0.00    +0.000 C 
ATOM      8  N   UNL     1       4.388   2.805  17.149  0.00  0.00    +0.000 N 
ATOM      9  C   UNL     1       4.750   4.109  16.745  0.00  0.00    +0.000 A 
ATOM     10  C   UNL     1       5.529   4.192  15.574  0.00  0.00    +0.000 A 
ATOM     11  C   UNL     1       5.801   5.419  14.988  0.00  0.00    +0.000 A 
ATOM     12  C   UNL     1       5.317   6.584  15.585  0.00  0.00    +0.000 A 
ATOM     13  C   UNL     1       4.577   6.508  16.778  0.00  0.00    +0.000 A 
ATOM     14  C   UNL     1       4.270   5.276  17.388  0.00  0.00    +0.000 A 
ATOM     15  N   UNL     1       3.600   5.302  18.647  0.00  0.00    +0.000 NA
ATOM     16  C   UNL     1       2.742   4.389  19.015  0.00  0.00    +0.000 C 
ATOM     17  C   UNL     1       2.159   4.460  20.467  0.00  0.00    +0.000 C 
ATOM     18  H   UNL     1       4.856   2.074  16.620  0.00  0.00    +0.000 HD
ENDROOT
TORSDOF 0
ENDMDL
MODEL 6
REMARK VINA RESULT:      -7.2      2.022      2.170
REMARK  Name = 
REMARK  1 active torsions:
REMARK  status: ('A' for Active; 'I' for Inactive)
REMARK    1  A    between atoms: C_1  and  C_2
REMARK                            x       y       z     vdW  Elec       q    Type
REMARK                         _______ _______ _______ _____ _____    ______ ____
ROOT
ATOM      1  C   UNL     1       6.528   4.577  13.764  0.00  0.00    +0.000 C 
ATOM      2  C   UNL     1       6.606   5.104  15.203  0.00  0.00    +0.000 C 
ATOM      3  C   UNL     1       6.732   3.903  16.133  0.00  0.00    +0.000 C 
ATOM      4  C   UNL     1       6.898   4.477  17.509  0.00  0.00    +0.000 C 
ATOM      5  O   UNL     1       7.933   4.492  18.144  0.00  0.00    +0.000 OA
ATOM      6  C   UNL     1       5.632   5.029  17.970  0.00  0.00    +0.000 C 
ATOM      7  C   UNL     1       4.999   4.147  18.747  0.00  0.00    +0.000 C 
ATOM      8  N   UNL     1       3.660   4.051  18.993  0.00  0.00    +0.000 N 
ATOM      9  C   UNL     1       2.932   5.218  19.309  0.00  0.00    +0.000 A 
ATOM     10  C   UNL     1       2.119   5.141  20.457  0.00  0.00    +0.000 A 
ATOM     11  C   UNL     1       1.492   6.270  20.961  0.00  0.00    +0.000 A 
ATOM     12  C   UNL     1       1.650   7.490  20.303  0.00  0.00    +0.000 A 
ATOM     13  C   UNL     1       2.423   7.563  19.131  0.00  0.00    +0.000 A 
ATOM     14  C   UNL     1       3.087   6.438  18.605  0.00  0.00    +0.000 A 
ATOM     15  N   UNL     1       3.768   6.585  17.360  0.00  0.00    +0.000 NA
ATOM     16  C   UNL     1       4.860   5.933  17.066  0.00  0.00    +0.000 C 
ATOM     17  C   UNL     1       5.453   6.089  15.624  0.00  0.00    +0.000 C 
ATOM     18  H   UNL     1       3.399   3.247  19.557  0.00  0.00    +0.000 HD
ENDROOT
TORSDOF 0
ENDMDL
MODEL 7
REMARK VINA RESULT:      -7.1      1.844      5.466
REMARK  Name = 
REMARK  1 active torsions:
REMARK  status: ('A' for Active; 'I' for Inactive)
REMARK    1  A    between atoms: C_1  and  C_2
REMARK                            x       y       z     vdW  Elec       q    Type
REMARK                         _______ _______ _______ _____ _____    ______ ____
ROOT
ATOM      1  C   UNL     1       0.545   3.214  20.326  0.00  0.00    +0.000 C 
ATOM      2  C   UNL     1       1.881   2.680  19.794  0.00  0.00    +0.000 C 
ATOM      3  C   UNL     1       2.991   3.240  20.674  0.00  0.00    +0.000 C 
ATOM      4  C   UNL     1       4.259   2.615  20.169  0.00  0.00    +0.000 C 
ATOM      5  O   UNL     1       4.885   1.741  20.735  0.00  0.00    +0.000 OA
ATOM      6  C   UNL     1       4.624   3.203  18.888  0.00  0.00    +0.000 C 
ATOM      7  C   UNL     1       5.530   4.166  19.063  0.00  0.00    +0.000 C 
ATOM      8  N   UNL     1       5.787   5.237  18.258  0.00  0.00    +0.000 N 
ATOM      9  C   UNL     1       5.910   5.038  16.865  0.00  0.00    +0.000 A 
ATOM     10  C   UNL     1       7.055   5.600  16.266  0.00  0.00    +0.000 A 
ATOM     11  C   UNL     1       7.370   5.328  14.943  0.00  0.00    +0.000 A 
ATOM     12  C   UNL     1       6.525   4.509  14.194  0.00  0.00    +0.000 A 
ATOM     13  C   UNL     1       5.358   3.982  14.775  0.00  0.00    +0.000 A 
ATOM     14  C   UNL     1       5.020   4.225  16.120  0.00  0.00    +0.000 A 
ATOM     15  N   UNL     1       3.768   3.732  16.595  0.00  0.00    +0.000 NA
ATOM     16  C   UNL     1       3.584   3.324  17.822  0.00  0.00    +0.000 C 
ATOM     17  C   UNL     1       2.137   2.913  18.258  0.00  0.00    +0.000 C 
ATOM     18  H   UNL     1       6.472   5.886  18.635  0.00  0.00    +0.000 HD
ENDROOT
TORSDOF 0
ENDMDL
MODEL 8
REMARK VINA RESULT:      -7.1      2.544      5.707
REMARK  Name = 
REMARK  1 active torsions:
REMARK  status: ('A' for Active; 'I' for Inactive)
REMARK    1  A    between atoms: C_1  and  C_2
REMARK                            x       y       z     vdW  Elec       q    Type
REMARK                         _______ _______ _______ _____ _____    ______ ____
ROOT
ATOM      1  C   UNL     1       1.301   1.568  19.341  0.00  0.00    +0.000 C 
ATOM      2  C   UNL     1       1.944   2.837  19.914  0.00  0.00    +0.000 C 
ATOM      3  C   UNL     1       1.266   4.037  19.264  0.00  0.00    +0.000 C 
ATOM      4  C   UNL     1       1.865   5.244  19.925  0.00  0.00    +0.000 C 
ATOM      5  O   UNL     1       1.303   5.952  20.737  0.00  0.00    +0.000 OA
ATOM      6  C   UNL     1       3.231   5.436  19.459  0.00  0.00    +0.000 C 
ATOM      7  C   UNL     1       3.262   6.338  18.477  0.00  0.00    +0.000 C 
ATOM      8  N   UNL     1       4.190   6.472  17.486  0.00  0.00    +0.000 N 
ATOM      9  C   UNL     1       5.562   6.426  17.816  0.00  0.00    +0.000 A 
ATOM     10  C   UNL     1       6.350   7.477  17.305  0.00  0.00    +0.000 A 
ATOM     11  C   UNL     1       7.670   7.630  17.700  0.00  0.00    +0.000 A 
ATOM     12  C   UNL     1       8.228   6.716  18.593  0.00  0.00    +0.000 A 
ATOM     13  C   UNL     1       7.459   5.640  19.071  0.00  0.00    +0.000 A 
ATOM     14  C   UNL     1       6.110   5.466  18.702  0.00  0.00    +0.000 A 
ATOM     15  N   UNL     1       5.438   4.293  19.158  0.00  0.00    +0.000 NA
ATOM     16  C   UNL     1       4.166   4.270  19.448  0.00  0.00    +0.000 C 
ATOM     17  C   UNL     1       3.515   2.896  19.826  0.00  0.00    +0.000 C 
ATOM     18  H   UNL     1       3.964   7.186  16.799  0.00  0.00    +0.000 HD
ENDROOT
TORSDOF 0
ENDMDL
MODEL 9
REMARK VINA RESULT:      -6.8      2.497      5.282
REMARK  Name = 
REMARK  1 active torsions:
REMARK  status: ('A' for Active; 'I' for Inactive)
REMARK    1  A    between atoms: C_1  and  C_2
REMARK                            x       y       z     vdW  Elec       q    Type
REMARK                         _______ _______ _______ _____ _____    ______ ____
ROOT
ATOM      1  C   UNL     1       0.073   3.126  19.618  0.00  0.00    +0.000 C 
ATOM      2  C   UNL     1       1.305   3.045  18.707  0.00  0.00    +0.000 C 
ATOM      3  C   UNL     1       2.361   2.214  19.424  0.00  0.00    +0.000 C 
ATOM      4  C   UNL     1       3.501   2.090  18.455  0.00  0.00    +0.000 C 
ATOM      5  O   UNL     1       3.793   1.084  17.839  0.00  0.00    +0.000 OA
ATOM      6  C   UNL     1       4.201   3.362  18.351  0.00  0.00    +0.000 C 
ATOM      7  C   UNL     1       5.275   3.365  19.141  0.00  0.00    +0.000 C 
ATOM      8  N   UNL     1       5.914   4.438  19.691  0.00  0.00    +0.000 N 
ATOM      9  C   UNL     1       6.209   5.555  18.878  0.00  0.00    +0.000 A 
ATOM     10  C   UNL     1       7.537   6.019  18.935  0.00  0.00    +0.000 A 
ATOM     11  C   UNL     1       7.985   6.997  18.060  0.00  0.00    +0.000 A 
ATOM     12  C   UNL     1       7.098   7.542  17.132  0.00  0.00    +0.000 A 
ATOM     13  C   UNL     1       5.760   7.114  17.102  0.00  0.00    +0.000 A 
ATOM     14  C   UNL     1       5.278   6.111  17.966  0.00  0.00    +0.000 A 
ATOM     15  N   UNL     1       3.884   5.810  17.930  0.00  0.00    +0.000 NA
ATOM     16  C   UNL     1       3.410   4.612  18.142  0.00  0.00    +0.000 C 
ATOM     17  C   UNL     1       1.855   4.427  18.193  0.00  0.00    +0.000 C 
ATOM     18  H   UNL     1       6.667   4.192  20.327  0.00  0.00    +0.000 HD
ENDROOT
TORSDOF 0
ENDMDL
