MODEL 1
REMARK VINA RESULT:      -8.7      0.000      0.000
REMARK  Name = 
REMARK  13 active torsions:
REMARK  status: ('A' for Active; 'I' for Inactive)
REMARK    1  A    between atoms: C_1  and  N_2
REMARK    2  A    between atoms: N_2  and  C_3
REMARK    3  A    between atoms: C_3  and  C_4
REMARK    4  A    between atoms: C_13  and  C_15
REMARK    5  A    between atoms: N_22  and  C_23
REMARK    6  A    between atoms: C_23  and  C_24
REMARK    7  A    between atoms: C_24  and  C_25
REMARK    8  A    between atoms: C_25  and  C_26
REMARK    9  A    between atoms: C_25  and  C_27
REMARK   10  A    between atoms: C_25  and  C_28
REMARK   11  A    between atoms: C_31  and  C_32
REMARK   12  A    between atoms: C_32  and  C_33
REMARK   13  A    between atoms: C_33  and  O_35
REMARK                            x       y       z     vdW  Elec       q    Type
REMARK                         _______ _______ _______ _____ _____    ______ ____
ROOT
ATOM      1  C   UNL     1       2.244   7.656  19.629  0.00  0.00    +0.000 A 
ATOM      2  C   UNL     1       2.218   8.218  18.348  0.00  0.00    +0.000 A 
ATOM      3  C   UNL     1       3.145   7.812  17.389  0.00  0.00    +0.000 A 
ATOM      4  C   UNL     1       4.117   6.855  17.705  0.00  0.00    +0.000 A 
ATOM      5  C   UNL     1       4.074   6.201  18.943  0.00  0.00    +0.000 A 
ATOM      6  C   UNL     1       3.119   6.594  19.890  0.00  0.00    +0.000 A 
ATOM      7  C   UNL     1       5.065   5.107  19.216  0.00  0.00    +0.000 C 
ATOM      8  N   UNL     1       4.883   3.940  18.356  0.00  0.00    +0.000 N 
ATOM      9  C   UNL     1       5.291   3.977  17.022  0.00  0.00    +0.000 C 
ATOM     10  O   UNL     1       5.948   3.075  16.500  0.00  0.00    +0.000 OA
ATOM     11  C   UNL     1       4.672   5.131  16.180  0.00  0.00    +0.000 C 
ATOM     12  N   UNL     1       5.061   6.452  16.732  0.00  0.00    +0.000 N 
ATOM     13  H   UNL     1       5.102   7.165  16.001  0.00  0.00    +0.000 HD
ENDROOT
BRANCH   1  16
ATOM     14  C   UNL     1      -0.269   9.843  21.511  0.00  0.00    +0.000 C 
ATOM     15  N   UNL     1       0.656   9.431  20.453  0.00  0.00    +0.000 N 
ATOM     16  C   UNL     1       1.292   8.196  20.647  0.00  0.00    +0.000 C 
ATOM     17  O   UNL     1       1.046   7.482  21.621  0.00  0.00    +0.000 OA
BRANCH  15  18
ATOM     18  C   UNL     1       0.794  10.239  19.237  0.00  0.00    +0.000 C 
BRANCH  18  19
ATOM     19  C   UNL     1      -0.461  10.484  18.495  0.00  0.00    +0.000 A 
ATOM     20  N   UNL     1      -1.454  11.248  18.904  0.00  0.00    +0.000 NA
ATOM     21  C   UNL     1      -2.422  11.132  17.945  0.00  0.00    +0.000 A 
ATOM     22  C   UNL     1      -3.706  11.696  17.895  0.00  0.00    +0.000 A 
ATOM     23  C   UNL     1      -4.517  11.413  16.790  0.00  0.00    +0.000 A 
ATOM     24  C   UNL     1      -4.055  10.593  15.756  0.00  0.00    +0.000 A 
ATOM     25  C   UNL     1      -2.778  10.020  15.790  0.00  0.00    +0.000 A 
ATOM     26  C   UNL     1      -1.996  10.313  16.906  0.00  0.00    +0.000 A 
ATOM     27  N   UNL     1      -0.735   9.923  17.277  0.00  0.00    +0.000 N 
ATOM     28  H   UNL     1      -0.132   9.296  16.767  0.00  0.00    +0.000 HD
ENDBRANCH  18  19
ENDBRANCH  15  18
ENDBRANCH   1  16
BRANCH   8  29
ATOM     29  C   UNL     1       4.275   2.740  18.924  0.00  0.00    +0.000 C 
BRANCH  29  30
ATOM     30  C   UNL     1       2.972   2.287  18.243  0.00  0.00    +0.000 C 
BRANCH  30  31
ATOM     31  C   UNL     1       1.685   3.001  18.728  0.00  0.00    +0.000 C 
ATOM     32  C   UNL     1       1.838   3.481  20.181  0.00  0.00    +0.000 C 
ATOM     33  C   UNL     1       1.374   4.214  17.825  0.00  0.00    +0.000 C 
ATOM     34  C   UNL     1       0.503   2.025  18.648  0.00  0.00    +0.000 C 
ENDBRANCH  30  31
ENDBRANCH  29  30
ENDBRANCH   8  29
BRANCH  11  35
ATOM     35  C   UNL     1       5.030   4.963  14.694  0.00  0.00    +0.000 C 
BRANCH  35  36
ATOM     36  C   UNL     1       6.494   4.791  14.413  0.00  0.00    +0.000 C 
ATOM     37  O   UNL     1       7.392   5.562  14.799  0.00  0.00    +0.000 OA
BRANCH  36  38
ATOM     38  O   UNL     1       6.790   3.665  13.733  0.00  0.00    +0.000 OA
ATOM     39  H   UNL     1       7.185   3.827  12.852  0.00  0.00    +0.000 HD
ENDBRANCH  36  38
ENDBRANCH  35  36
ENDBRANCH  11  35
TORSDOF 9
ENDMDL
MODEL 2
REMARK VINA RESULT:      -8.5      2.507      8.719
REMARK  Name = 
REMARK  13 active torsions:
REMARK  status: ('A' for Active; 'I' for Inactive)
REMARK    1  A    between atoms: C_1  and  N_2
REMARK    2  A    between atoms: N_2  and  C_3
REMARK    3  A    between atoms: C_3  and  C_4
REMARK    4  A    between atoms: C_13  and  C_15
REMARK    5  A    between atoms: N_22  and  C_23
REMARK    6  A    between atoms: C_23  and  C_24
REMARK    7  A    between atoms: C_24  and  C_25
REMARK    8  A    between atoms: C_25  and  C_26
REMARK    9  A    between atoms: C_25  and  C_27
REMARK   10  A    between atoms: C_25  and  C_28
REMARK   11  A    between atoms: C_31  and  C_32
REMARK   12  A    between atoms: C_32  and  C_33
REMARK   13  A    between atoms: C_33  and  O_35
REMARK                            x       y       z     vdW  Elec       q    Type
REMARK                         _______ _______ _______ _____ _____    ______ ____
ROOT
ATOM      1  C   UNL     1       1.933   5.185  18.958  0.00  0.00    +0.000 A 
ATOM      2  C   UNL     1       1.702   5.181  20.338  0.00  0.00    +0.000 A 
ATOM      3  C   UNL     1       1.677   6.382  21.045  0.00  0.00    +0.000 A 
ATOM      4  C   UNL     1       1.901   7.596  20.385  0.00  0.00    +0.000 A 
ATOM      5  C   UNL     1       2.012   7.620  18.989  0.00  0.00    +0.000 A 
ATOM      6  C   UNL     1       2.005   6.409  18.283  0.00  0.00    +0.000 A 
ATOM      7  C   UNL     1       2.148   8.946  18.298  0.00  0.00    +0.000 C 
ATOM      8  N   UNL     1       0.960   9.786  18.428  0.00  0.00    +0.000 N 
ATOM      9  C   UNL     1       0.686  10.439  19.630  0.00  0.00    +0.000 C 
ATOM     10  O   UNL     1       0.370  11.629  19.685  0.00  0.00    +0.000 OA
ATOM     11  C   UNL     1       0.594   9.509  20.875  0.00  0.00    +0.000 C 
ATOM     12  N   UNL     1       1.883   8.812  21.107  0.00  0.00    +0.000 N 
ATOM     13  H   UNL     1       2.023   8.606  22.099  0.00  0.00    +0.000 HD
ENDROOT
BRANCH   1  16
ATOM     14  C   UNL     1       3.134   1.750  17.774  0.00  0.00    +0.000 C 
ATOM     15  N   UNL     1       3.147   3.025  18.495  0.00  0.00    +0.000 N 
ATOM     16  C   UNL     1       2.047   3.865  18.266  0.00  0.00    +0.000 C 
ATOM     17  O   UNL     1       1.106   3.526  17.545  0.00  0.00    +0.000 OA
BRANCH  15  18
ATOM     18  C   UNL     1       4.208   3.314  19.465  0.00  0.00    +0.000 C 
BRANCH  18  19
ATOM     19  C   UNL     1       5.181   4.347  19.049  0.00  0.00    +0.000 A 
ATOM     20  N   UNL     1       6.285   4.663  19.696  0.00  0.00    +0.000 NA
ATOM     21  C   UNL     1       6.836   5.699  18.994  0.00  0.00    +0.000 A 
ATOM     22  C   UNL     1       7.991   6.448  19.261  0.00  0.00    +0.000 A 
ATOM     23  C   UNL     1       8.340   7.476  18.377  0.00  0.00    +0.000 A 
ATOM     24  C   UNL     1       7.559   7.743  17.249  0.00  0.00    +0.000 A 
ATOM     25  C   UNL     1       6.402   7.007  16.967  0.00  0.00    +0.000 A 
ATOM     26  C   UNL     1       6.075   5.996  17.869  0.00  0.00    +0.000 A 
ATOM     27  N   UNL     1       5.031   5.109  17.922  0.00  0.00    +0.000 N 
ATOM     28  H   UNL     1       4.261   5.057  17.272  0.00  0.00    +0.000 HD
ENDBRANCH  18  19
ENDBRANCH  15  18
ENDBRANCH   1  16
BRANCH   8  29
ATOM     29  C   UNL     1       0.075   9.928  17.275  0.00  0.00    +0.000 C 
BRANCH  29  30
ATOM     30  C   UNL     1      -1.367   9.444  17.499  0.00  0.00    +0.000 C 
BRANCH  30  31
ATOM     31  C   UNL     1      -2.477  10.441  17.078  0.00  0.00    +0.000 C 
ATOM     32  C   UNL     1      -3.812  10.094  17.758  0.00  0.00    +0.000 C 
ATOM     33  C   UNL     1      -2.073  11.882  17.458  0.00  0.00    +0.000 C 
ATOM     34  C   UNL     1      -2.663  10.378  15.555  0.00  0.00    +0.000 C 
ENDBRANCH  30  31
ENDBRANCH  29  30
ENDBRANCH   8  29
BRANCH  11  35
ATOM     35  C   UNL     1       0.100  10.298  22.099  0.00  0.00    +0.000 C 
BRANCH  35  36
ATOM     36  C   UNL     1      -0.057   9.487  23.351  0.00  0.00    +0.000 C 
ATOM     37  O   UNL     1       0.743   9.481  24.305  0.00  0.00    +0.000 OA
BRANCH  36  38
ATOM     38  O   UNL     1      -1.201   8.776  23.401  0.00  0.00    +0.000 OA
ATOM     39  H   UNL     1      -1.463   8.384  22.542  0.00  0.00    +0.000 HD
ENDBRANCH  36  38
ENDBRANCH  35  36
ENDBRANCH  11  35
TORSDOF 9
ENDMDL
MODEL 3
REMARK VINA RESULT:      -8.3      0.437      1.174
REMARK  Name = 
REMARK  13 active torsions:
REMARK  status: ('A' for Active; 'I' for Inactive)
REMARK    1  A    between atoms: C_1  and  N_2
REMARK    2  A    between atoms: N_2  and  C_3
REMARK    3  A    between atoms: C_3  and  C_4
REMARK    4  A    between atoms: C_13  and  C_15
REMARK    5  A    between atoms: N_22  and  C_23
REMARK    6  A    between atoms: C_23  and  C_24
REMARK    7  A    between atoms: C_24  and  C_25
REMARK    8  A    between atoms: C_25  and  C_26
REMARK    9  A    between atoms: C_25  and  C_27
REMARK   10  A    between atoms: C_25  and  C_28
REMARK   11  A    between atoms: C_31  and  C_32
REMARK   12  A    between atoms: C_32  and  C_33
REMARK   13  A    between atoms: C_33  and  O_35
REMARK                            x       y       z     vdW  Elec       q    Type
REMARK                         _______ _______ _______ _____ _____    ______ ____
ROOT
ATOM      1  C   UNL     1       2.282   7.568  19.640  0.00  0.00    +0.000 A 
ATOM      2  C   UNL     1       2.410   8.292  18.450  0.00  0.00    +0.000 A 
ATOM      3  C   UNL     1       3.376   7.929  17.513  0.00  0.00    +0.000 A 
ATOM      4  C   UNL     1       4.234   6.852  17.762  0.00  0.00    +0.000 A 
ATOM      5  C   UNL     1       4.034   6.049  18.892  0.00  0.00    +0.000 A 
ATOM      6  C   UNL     1       3.039   6.403  19.814  0.00  0.00    +0.000 A 
ATOM      7  C   UNL     1       4.903   4.839  19.081  0.00  0.00    +0.000 C 
ATOM      8  N   UNL     1       4.696   3.817  18.058  0.00  0.00    +0.000 N 
ATOM      9  C   UNL     1       5.214   3.989  16.775  0.00  0.00    +0.000 C 
ATOM     10  O   UNL     1       5.834   3.105  16.182  0.00  0.00    +0.000 OA
ATOM     11  C   UNL     1       4.767   5.297  16.058  0.00  0.00    +0.000 C 
ATOM     12  N   UNL     1       5.218   6.492  16.812  0.00  0.00    +0.000 N 
ATOM     13  H   UNL     1       5.380   7.287  16.191  0.00  0.00    +0.000 HD
ENDROOT
BRANCH   1  16
ATOM     14  C   UNL     1      -0.338   9.631  21.516  0.00  0.00    +0.000 C 
ATOM     15  N   UNL     1       0.615   9.269  20.465  0.00  0.00    +0.000 N 
ATOM     16  C   UNL     1       1.298   8.058  20.653  0.00  0.00    +0.000 C 
ATOM     17  O   UNL     1       1.070   7.324  21.615  0.00  0.00    +0.000 OA
BRANCH  15  18
ATOM     18  C   UNL     1       0.735  10.095  19.259  0.00  0.00    +0.000 C 
BRANCH  18  19
ATOM     19  C   UNL     1      -0.514  10.272  18.487  0.00  0.00    +0.000 A 
ATOM     20  N   UNL     1      -0.797   9.681  17.344  0.00  0.00    +0.000 NA
ATOM     21  C   UNL     1      -2.012  10.181  16.965  0.00  0.00    +0.000 A 
ATOM     22  C   UNL     1      -2.762   9.929  15.806  0.00  0.00    +0.000 A 
ATOM     23  C   UNL     1      -3.990  10.583  15.651  0.00  0.00    +0.000 A 
ATOM     24  C   UNL     1      -4.462  11.460  16.633  0.00  0.00    +0.000 A 
ATOM     25  C   UNL     1      -3.726  11.724  17.794  0.00  0.00    +0.000 A 
ATOM     26  C   UNL     1      -2.503  11.066  17.918  0.00  0.00    +0.000 A 
ATOM     27  N   UNL     1      -1.533  11.095  18.885  0.00  0.00    +0.000 N 
ATOM     28  H   UNL     1      -1.543  11.659  19.721  0.00  0.00    +0.000 HD
ENDBRANCH  18  19
ENDBRANCH  15  18
ENDBRANCH   1  16
BRANCH   8  29
ATOM     29  C   UNL     1       3.944   2.617  18.412  0.00  0.00    +0.000 C 
BRANCH  29  30
ATOM     30  C   UNL     1       2.957   2.788  19.579  0.00  0.00    +0.000 C 
BRANCH  30  31
ATOM     31  C   UNL     1       1.497   3.112  19.174  0.00  0.00    +0.000 C 
ATOM     32  C   UNL     1       0.785   3.907  20.280  0.00  0.00    +0.000 C 
ATOM     33  C   UNL     1       1.475   3.933  17.866  0.00  0.00    +0.000 C 
ATOM     34  C   UNL     1       0.735   1.801  18.932  0.00  0.00    +0.000 C 
ENDBRANCH  30  31
ENDBRANCH  29  30
ENDBRANCH   8  29
BRANCH  11  35
ATOM     35  C   UNL     1       5.232   5.291  14.592  0.00  0.00    +0.000 C 
BRANCH  35  36
ATOM     36  C   UNL     1       6.706   5.088  14.398  0.00  0.00    +0.000 C 
ATOM     37  O   UNL     1       7.223   4.459  13.456  0.00  0.00    +0.000 OA
BRANCH  36  38
ATOM     38  O   UNL     1       7.468   5.707  15.321  0.00  0.00    +0.000 OA
ATOM     39  H   UNL     1       8.274   5.208  15.569  0.00  0.00    +0.000 HD
ENDBRANCH  36  38
ENDBRANCH  35  36
ENDBRANCH  11  35
TORSDOF 9
ENDMDL
MODEL 4
REMARK VINA RESULT:      -8.3      4.354      8.633
REMARK  Name = 
REMARK  13 active torsions:
REMARK  status: ('A' for Active; 'I' for Inactive)
REMARK    1  A    between atoms: C_1  and  N_2
REMARK    2  A    between atoms: N_2  and  C_3
REMARK    3  A    between atoms: C_3  and  C_4
REMARK    4  A    between atoms: C_13  and  C_15
REMARK    5  A    between atoms: N_22  and  C_23
REMARK    6  A    between atoms: C_23  and  C_24
REMARK    7  A    between atoms: C_24  and  C_25
REMARK    8  A    between atoms: C_25  and  C_26
REMARK    9  A    between atoms: C_25  and  C_27
REMARK   10  A    between atoms: C_25  and  C_28
REMARK   11  A    between atoms: C_31  and  C_32
REMARK   12  A    between atoms: C_32  and  C_33
REMARK   13  A    between atoms: C_33  and  O_35
REMARK                            x       y       z     vdW  Elec       q    Type
REMARK                         _______ _______ _______ _____ _____    ______ ____
ROOT
ATOM      1  C   UNL     1      -3.585  11.323  17.941  0.00  0.00    +0.000 A 
ATOM      2  C   UNL     1      -3.038  10.198  17.314  0.00  0.00    +0.000 A 
ATOM      3  C   UNL     1      -1.736   9.798  17.610  0.00  0.00    +0.000 A 
ATOM      4  C   UNL     1      -0.961  10.527  18.519  0.00  0.00    +0.000 A 
ATOM      5  C   UNL     1      -1.539  11.580  19.240  0.00  0.00    +0.000 A 
ATOM      6  C   UNL     1      -2.860  11.956  18.959  0.00  0.00    +0.000 A 
ATOM      7  C   UNL     1      -0.716  12.279  20.283  0.00  0.00    +0.000 C 
ATOM      8  N   UNL     1      -0.368  11.418  21.412  0.00  0.00    +0.000 N 
ATOM      9  C   UNL     1       0.625  10.447  21.278  0.00  0.00    +0.000 C 
ATOM     10  O   UNL     1       1.522  10.292  22.108  0.00  0.00    +0.000 OA
ATOM     11  C   UNL     1       0.395   9.430  20.121  0.00  0.00    +0.000 C 
ATOM     12  N   UNL     1       0.363  10.123  18.810  0.00  0.00    +0.000 N 
ATOM     13  H   UNL     1       0.692   9.515  18.058  0.00  0.00    +0.000 HD
ENDROOT
BRANCH   1  16
ATOM     14  C   UNL     1      -7.337  12.061  17.832  0.00  0.00    +0.000 C 
ATOM     15  N   UNL     1      -6.059  11.567  18.349  0.00  0.00    +0.000 N 
ATOM     16  C   UNL     1      -4.948  11.765  17.517  0.00  0.00    +0.000 C 
ATOM     17  O   UNL     1      -5.036  12.363  16.443  0.00  0.00    +0.000 OA
BRANCH  15  18
ATOM     18  C   UNL     1      -5.977  11.006  19.702  0.00  0.00    +0.000 C 
BRANCH  18  19
ATOM     19  C   UNL     1      -6.339  11.935  20.795  0.00  0.00    +0.000 A 
ATOM     20  N   UNL     1      -6.968  11.604  21.904  0.00  0.00    +0.000 NA
ATOM     21  C   UNL     1      -7.148  12.775  22.586  0.00  0.00    +0.000 A 
ATOM     22  C   UNL     1      -7.799  13.010  23.806  0.00  0.00    +0.000 A 
ATOM     23  C   UNL     1      -7.852  14.322  24.292  0.00  0.00    +0.000 A 
ATOM     24  C   UNL     1      -7.262  15.372  23.582  0.00  0.00    +0.000 A 
ATOM     25  C   UNL     1      -6.610  15.156  22.363  0.00  0.00    +0.000 A 
ATOM     26  C   UNL     1      -6.580  13.841  21.898  0.00  0.00    +0.000 A 
ATOM     27  N   UNL     1      -6.059  13.275  20.764  0.00  0.00    +0.000 N 
ATOM     28  H   UNL     1      -5.593  13.764  20.015  0.00  0.00    +0.000 HD
ENDBRANCH  18  19
ENDBRANCH  15  18
ENDBRANCH   1  16
BRANCH   8  29
ATOM     29  C   UNL     1      -1.075  11.603  22.675  0.00  0.00    +0.000 C 
BRANCH  29  30
ATOM     30  C   UNL     1      -1.141  13.055  23.177  0.00  0.00    +0.000 C 
BRANCH  30  31
ATOM     31  C   UNL     1      -2.568  13.636  23.348  0.00  0.00    +0.000 C 
ATOM     32  C   UNL     1      -2.657  14.505  24.613  0.00  0.00    +0.000 C 
ATOM     33  C   UNL     1      -2.948  14.490  22.119  0.00  0.00    +0.000 C 
ATOM     34  C   UNL     1      -3.575  12.482  23.463  0.00  0.00    +0.000 C 
ENDBRANCH  30  31
ENDBRANCH  29  30
ENDBRANCH   8  29
BRANCH  11  35
ATOM     35  C   UNL     1       1.433   8.299  20.187  0.00  0.00    +0.000 C 
BRANCH  35  36
ATOM     36  C   UNL     1       2.145   8.020  18.895  0.00  0.00    +0.000 C 
ATOM     37  O   UNL     1       2.564   8.888  18.107  0.00  0.00    +0.000 OA
BRANCH  36  38
ATOM     38  O   UNL     1       2.359   6.709  18.662  0.00  0.00    +0.000 OA
ATOM     39  H   UNL     1       2.021   6.121  19.368  0.00  0.00    +0.000 HD
ENDBRANCH  36  38
ENDBRANCH  35  36
ENDBRANCH  11  35
TORSDOF 9
ENDMDL
MODEL 5
REMARK VINA RESULT:      -8.2      2.517      8.738
REMARK  Name = 
REMARK  13 active torsions:
REMARK  status: ('A' for Active; 'I' for Inactive)
REMARK    1  A    between atoms: C_1  and  N_2
REMARK    2  A    between atoms: N_2  and  C_3
REMARK    3  A    between atoms: C_3  and  C_4
REMARK    4  A    between atoms: C_13  and  C_15
REMARK    5  A    between atoms: N_22  and  C_23
REMARK    6  A    between atoms: C_23  and  C_24
REMARK    7  A    between atoms: C_24  and  C_25
REMARK    8  A    between atoms: C_25  and  C_26
REMARK    9  A    between atoms: C_25  and  C_27
REMARK   10  A    between atoms: C_25  and  C_28
REMARK   11  A    between atoms: C_31  and  C_32
REMARK   12  A    between atoms: C_32  and  C_33
REMARK   13  A    between atoms: C_33  and  O_35
REMARK                            x       y       z     vdW  Elec       q    Type
REMARK                         _______ _______ _______ _____ _____    ______ ____
ROOT
ATOM      1  C   UNL     1       1.928   5.131  18.940  0.00  0.00    +0.000 A 
ATOM      2  C   UNL     1       1.720   5.140  20.324  0.00  0.00    +0.000 A 
ATOM      3  C   UNL     1       1.709   6.347  21.021  0.00  0.00    +0.000 A 
ATOM      4  C   UNL     1       1.922   7.555  20.347  0.00  0.00    +0.000 A 
ATOM      5  C   UNL     1       2.010   7.567  18.949  0.00  0.00    +0.000 A 
ATOM      6  C   UNL     1       1.989   6.350  18.253  0.00  0.00    +0.000 A 
ATOM      7  C   UNL     1       2.136   8.886  18.244  0.00  0.00    +0.000 C 
ATOM      8  N   UNL     1       0.950   9.729  18.387  0.00  0.00    +0.000 N 
ATOM      9  C   UNL     1       0.699  10.394  19.588  0.00  0.00    +0.000 C 
ATOM     10  O   UNL     1       0.385  11.584  19.638  0.00  0.00    +0.000 OA
ATOM     11  C   UNL     1       0.627   9.475  20.842  0.00  0.00    +0.000 C 
ATOM     12  N   UNL     1       1.918   8.778  21.059  0.00  0.00    +0.000 N 
ATOM     13  H   UNL     1       2.076   8.580  22.049  0.00  0.00    +0.000 HD
ENDROOT
BRANCH   1  16
ATOM     14  C   UNL     1       3.107   1.689  17.760  0.00  0.00    +0.000 C 
ATOM     15  N   UNL     1       3.134   2.970  18.469  0.00  0.00    +0.000 N 
ATOM     16  C   UNL     1       2.027   3.806  18.258  0.00  0.00    +0.000 C 
ATOM     17  O   UNL     1       1.072   3.459  17.562  0.00  0.00    +0.000 OA
BRANCH  15  18
ATOM     18  C   UNL     1       4.217   3.270  19.411  0.00  0.00    +0.000 C 
BRANCH  18  19
ATOM     19  C   UNL     1       5.105   4.386  19.020  0.00  0.00    +0.000 A 
ATOM     20  N   UNL     1       4.888   5.224  18.027  0.00  0.00    +0.000 NA
ATOM     21  C   UNL     1       5.986   6.039  17.990  0.00  0.00    +0.000 A 
ATOM     22  C   UNL     1       6.300   7.079  17.103  0.00  0.00    +0.000 A 
ATOM     23  C   UNL     1       7.508   7.764  17.279  0.00  0.00    +0.000 A 
ATOM     24  C   UNL     1       8.377   7.425  18.320  0.00  0.00    +0.000 A 
ATOM     25  C   UNL     1       8.081   6.388  19.214  0.00  0.00    +0.000 A 
ATOM     26  C   UNL     1       6.875   5.718  19.009  0.00  0.00    +0.000 A 
ATOM     27  N   UNL     1       6.282   4.667  19.659  0.00  0.00    +0.000 N 
ATOM     28  H   UNL     1       6.665   4.159  20.442  0.00  0.00    +0.000 HD
ENDBRANCH  18  19
ENDBRANCH  15  18
ENDBRANCH   1  16
BRANCH   8  29
ATOM     29  C   UNL     1       0.046   9.863  17.249  0.00  0.00    +0.000 C 
BRANCH  29  30
ATOM     30  C   UNL     1      -1.413   9.463  17.527  0.00  0.00    +0.000 C 
BRANCH  30  31
ATOM     31  C   UNL     1      -2.484  10.463  17.024  0.00  0.00    +0.000 C 
ATOM     32  C   UNL     1      -2.676  10.342  15.503  0.00  0.00    +0.000 C 
ATOM     33  C   UNL     1      -3.833  10.200  17.728  0.00  0.00    +0.000 C 
ATOM     34  C   UNL     1      -2.039  11.894  17.357  0.00  0.00    +0.000 C 
ENDBRANCH  30  31
ENDBRANCH  29  30
ENDBRANCH   8  29
BRANCH  11  35
ATOM     35  C   UNL     1       0.155  10.274  22.068  0.00  0.00    +0.000 C 
BRANCH  35  36
ATOM     36  C   UNL     1       0.011   9.472  23.328  0.00  0.00    +0.000 C 
ATOM     37  O   UNL     1       0.835   9.452  24.261  0.00  0.00    +0.000 OA
BRANCH  36  38
ATOM     38  O   UNL     1      -1.148   8.788  23.410  0.00  0.00    +0.000 OA
ATOM     39  H   UNL     1      -1.653   8.762  22.571  0.00  0.00    +0.000 HD
ENDBRANCH  36  38
ENDBRANCH  35  36
ENDBRANCH  11  35
TORSDOF 9
ENDMDL
MODEL 6
REMARK VINA RESULT:      -8.1      2.303      4.697
REMARK  Name = 
REMARK  13 active torsions:
REMARK  status: ('A' for Active; 'I' for Inactive)
REMARK    1  A    between atoms: C_1  and  N_2
REMARK    2  A    between atoms: N_2  and  C_3
REMARK    3  A    between atoms: C_3  and  C_4
REMARK    4  A    between atoms: C_13  and  C_15
REMARK    5  A    between atoms: N_22  and  C_23
REMARK    6  A    between atoms: C_23  and  C_24
REMARK    7  A    between atoms: C_24  and  C_25
REMARK    8  A    between atoms: C_25  and  C_26
REMARK    9  A    between atoms: C_25  and  C_27
REMARK   10  A    between atoms: C_25  and  C_28
REMARK   11  A    between atoms: C_31  and  C_32
REMARK   12  A    between atoms: C_32  and  C_33
REMARK   13  A    between atoms: C_33  and  O_35
REMARK                            x       y       z     vdW  Elec       q    Type
REMARK                         _______ _______ _______ _____ _____    ______ ____
ROOT
ATOM      1  C   UNL     1       1.276   9.514  19.485  0.00  0.00    +0.000 A 
ATOM      2  C   UNL     1       0.853   8.939  20.688  0.00  0.00    +0.000 A 
ATOM      3  C   UNL     1       0.972   7.564  20.884  0.00  0.00    +0.000 A 
ATOM      4  C   UNL     1       1.496   6.748  19.875  0.00  0.00    +0.000 A 
ATOM      5  C   UNL     1       2.032   7.328  18.718  0.00  0.00    +0.000 A 
ATOM      6  C   UNL     1       1.937   8.716  18.543  0.00  0.00    +0.000 A 
ATOM      7  C   UNL     1       2.681   6.438  17.698  0.00  0.00    +0.000 C 
ATOM      8  N   UNL     1       3.895   5.790  18.190  0.00  0.00    +0.000 N 
ATOM      9  C   UNL     1       3.811   4.716  19.075  0.00  0.00    +0.000 C 
ATOM     10  O   UNL     1       4.457   3.677  18.926  0.00  0.00    +0.000 OA
ATOM     11  C   UNL     1       3.016   5.004  20.382  0.00  0.00    +0.000 C 
ATOM     12  N   UNL     1       1.607   5.352  20.074  0.00  0.00    +0.000 N 
ATOM     13  H   UNL     1       0.980   5.079  20.834  0.00  0.00    +0.000 HD
ENDROOT
BRANCH   1  16
ATOM     14  C   UNL     1      -0.224  12.888  18.484  0.00  0.00    +0.000 C 
ATOM     15  N   UNL     1      -0.090  11.433  18.592  0.00  0.00    +0.000 N 
ATOM     16  C   UNL     1       1.038  10.976  19.289  0.00  0.00    +0.000 C 
ATOM     17  O   UNL     1       1.835  11.751  19.819  0.00  0.00    +0.000 OA
BRANCH  15  18
ATOM     18  C   UNL     1      -1.149  10.554  18.084  0.00  0.00    +0.000 C 
BRANCH  18  19
ATOM     19  C   UNL     1      -2.519  11.106  18.158  0.00  0.00    +0.000 A 
ATOM     20  N   UNL     1      -3.357  11.209  17.147  0.00  0.00    +0.000 NA
ATOM     21  C   UNL     1      -4.467  11.828  17.654  0.00  0.00    +0.000 A 
ATOM     22  C   UNL     1      -5.646  12.224  17.006  0.00  0.00    +0.000 A 
ATOM     23  C   UNL     1      -6.643  12.855  17.761  0.00  0.00    +0.000 A 
ATOM     24  C   UNL     1      -6.469  13.076  19.131  0.00  0.00    +0.000 A 
ATOM     25  C   UNL     1      -5.298  12.688  19.793  0.00  0.00    +0.000 A 
ATOM     26  C   UNL     1      -4.320  12.071  19.015  0.00  0.00    +0.000 A 
ATOM     27  N   UNL     1      -3.072  11.589  19.313  0.00  0.00    +0.000 N 
ATOM     28  H   UNL     1      -2.620  11.625  20.214  0.00  0.00    +0.000 HD
ENDBRANCH  18  19
ENDBRANCH  15  18
ENDBRANCH   1  16
BRANCH   8  29
ATOM     29  C   UNL     1       5.188   6.288  17.730  0.00  0.00    +0.000 C 
BRANCH  29  30
ATOM     30  C   UNL     1       5.469   6.079  16.233  0.00  0.00    +0.000 C 
BRANCH  30  31
ATOM     31  C   UNL     1       6.321   4.832  15.883  0.00  0.00    +0.000 C 
ATOM     32  C   UNL     1       5.432   3.588  15.724  0.00  0.00    +0.000 C 
ATOM     33  C   UNL     1       7.100   5.068  14.571  0.00  0.00    +0.000 C 
ATOM     34  C   UNL     1       7.336   4.580  17.007  0.00  0.00    +0.000 C 
ENDBRANCH  30  31
ENDBRANCH  29  30
ENDBRANCH   8  29
BRANCH  11  35
ATOM     35  C   UNL     1       3.151   3.828  21.364  0.00  0.00    +0.000 C 
BRANCH  35  36
ATOM     36  C   UNL     1       2.027   2.835  21.319  0.00  0.00    +0.000 C 
ATOM     37  O   UNL     1       1.334   2.494  22.295  0.00  0.00    +0.000 OA
BRANCH  36  38
ATOM     38  O   UNL     1       1.770   2.358  20.085  0.00  0.00    +0.000 OA
ATOM     39  H   UNL     1       1.437   3.033  19.459  0.00  0.00    +0.000 HD
ENDBRANCH  36  38
ENDBRANCH  35  36
ENDBRANCH  11  35
TORSDOF 9
ENDMDL
MODEL 7
REMARK VINA RESULT:      -8.0      2.072      4.141
REMARK  Name = 
REMARK  13 active torsions:
REMARK  status: ('A' for Active; 'I' for Inactive)
REMARK    1  A    between atoms: C_1  and  N_2
REMARK    2  A    between atoms: N_2  and  C_3
REMARK    3  A    between atoms: C_3  and  C_4
REMARK    4  A    between atoms: C_13  and  C_15
REMARK    5  A    between atoms: N_22  and  C_23
REMARK    6  A    between atoms: C_23  and  C_24
REMARK    7  A    between atoms: C_24  and  C_25
REMARK    8  A    between atoms: C_25  and  C_26
REMARK    9  A    between atoms: C_25  and  C_27
REMARK   10  A    between atoms: C_25  and  C_28
REMARK   11  A    between atoms: C_31  and  C_32
REMARK   12  A    between atoms: C_32  and  C_33
REMARK   13  A    between atoms: C_33  and  O_35
REMARK                            x       y       z     vdW  Elec       q    Type
REMARK                         _______ _______ _______ _____ _____    ______ ____
ROOT
ATOM      1  C   UNL     1       1.594   8.098  20.599  0.00  0.00    +0.000 A 
ATOM      2  C   UNL     1       1.486   7.014  21.477  0.00  0.00    +0.000 A 
ATOM      3  C   UNL     1       1.648   5.712  21.003  0.00  0.00    +0.000 A 
ATOM      4  C   UNL     1       1.902   5.480  19.646  0.00  0.00    +0.000 A 
ATOM      5  C   UNL     1       2.132   6.561  18.785  0.00  0.00    +0.000 A 
ATOM      6  C   UNL     1       1.998   7.867  19.278  0.00  0.00    +0.000 A 
ATOM      7  C   UNL     1       2.504   6.281  17.358  0.00  0.00    +0.000 C 
ATOM      8  N   UNL     1       3.801   5.624  17.221  0.00  0.00    +0.000 N 
ATOM      9  C   UNL     1       3.941   4.269  17.523  0.00  0.00    +0.000 C 
ATOM     10  O   UNL     1       4.527   3.478  16.783  0.00  0.00    +0.000 OA
ATOM     11  C   UNL     1       3.498   3.871  18.962  0.00  0.00    +0.000 C 
ATOM     12  N   UNL     1       2.058   4.158  19.168  0.00  0.00    +0.000 N 
ATOM     13  H   UNL     1       1.640   3.514  19.843  0.00  0.00    +0.000 HD
ENDROOT
BRANCH   1  16
ATOM     14  C   UNL     1       0.631  11.784  20.941  0.00  0.00    +0.000 C 
ATOM     15  N   UNL     1       0.892  10.498  20.292  0.00  0.00    +0.000 N 
ATOM     16  C   UNL     1       1.316   9.463  21.138  0.00  0.00    +0.000 C 
ATOM     17  O   UNL     1       1.412   9.616  22.357  0.00  0.00    +0.000 OA
BRANCH  15  18
ATOM     18  C   UNL     1       0.608  10.321  18.864  0.00  0.00    +0.000 C 
BRANCH  18  19
ATOM     19  C   UNL     1      -0.758  10.696  18.439  0.00  0.00    +0.000 A 
ATOM     20  N   UNL     1      -1.675  11.245  19.210  0.00  0.00    +0.000 NA
ATOM     21  C   UNL     1      -2.791  11.356  18.427  0.00  0.00    +0.000 A 
ATOM     22  C   UNL     1      -4.069  11.831  18.754  0.00  0.00    +0.000 A 
ATOM     23  C   UNL     1      -5.054  11.835  17.758  0.00  0.00    +0.000 A 
ATOM     24  C   UNL     1      -4.767  11.383  16.467  0.00  0.00    +0.000 A 
ATOM     25  C   UNL     1      -3.496  10.904  16.124  0.00  0.00    +0.000 A 
ATOM     26  C   UNL     1      -2.539  10.904  17.137  0.00  0.00    +0.000 A 
ATOM     27  N   UNL     1      -1.229  10.500  17.169  0.00  0.00    +0.000 N 
ATOM     28  H   UNL     1      -0.715  10.087  16.406  0.00  0.00    +0.000 HD
ENDBRANCH  18  19
ENDBRANCH  15  18
ENDBRANCH   1  16
BRANCH   8  29
ATOM     29  C   UNL     1       4.938   6.413  16.756  0.00  0.00    +0.000 C 
BRANCH  29  30
ATOM     30  C   UNL     1       5.791   7.043  17.870  0.00  0.00    +0.000 C 
BRANCH  30  31
ATOM     31  C   UNL     1       7.312   6.763  17.784  0.00  0.00    +0.000 C 
ATOM     32  C   UNL     1       8.104   8.074  17.648  0.00  0.00    +0.000 C 
ATOM     33  C   UNL     1       7.790   6.011  19.045  0.00  0.00    +0.000 C 
ATOM     34  C   UNL     1       7.597   5.880  16.560  0.00  0.00    +0.000 C 
ENDBRANCH  30  31
ENDBRANCH  29  30
ENDBRANCH   8  29
BRANCH  11  35
ATOM     35  C   UNL     1       3.874   2.409  19.253  0.00  0.00    +0.000 C 
BRANCH  35  36
ATOM     36  C   UNL     1       4.187   2.112  20.691  0.00  0.00    +0.000 C 
ATOM     37  O   UNL     1       5.259   1.632  21.105  0.00  0.00    +0.000 OA
BRANCH  36  38
ATOM     38  O   UNL     1       3.209   2.468  21.547  0.00  0.00    +0.000 OA
ATOM     39  H   UNL     1       2.573   1.750  21.743  0.00  0.00    +0.000 HD
ENDBRANCH  36  38
ENDBRANCH  35  36
ENDBRANCH  11  35
TORSDOF 9
ENDMDL
MODEL 8
REMARK VINA RESULT:      -8.0      2.215      3.073
REMARK  Name = 
REMARK  13 active torsions:
REMARK  status: ('A' for Active; 'I' for Inactive)
REMARK    1  A    between atoms: C_1  and  N_2
REMARK    2  A    between atoms: N_2  and  C_3
REMARK    3  A    between atoms: C_3  and  C_4
REMARK    4  A    between atoms: C_13  and  C_15
REMARK    5  A    between atoms: N_22  and  C_23
REMARK    6  A    between atoms: C_23  and  C_24
REMARK    7  A    between atoms: C_24  and  C_25
REMARK    8  A    between atoms: C_25  and  C_26
REMARK    9  A    between atoms: C_25  and  C_27
REMARK   10  A    between atoms: C_25  and  C_28
REMARK   11  A    between atoms: C_31  and  C_32
REMARK   12  A    between atoms: C_32  and  C_33
REMARK   13  A    between atoms: C_33  and  O_35
REMARK                            x       y       z     vdW  Elec       q    Type
REMARK                         _______ _______ _______ _____ _____    ______ ____
ROOT
ATOM      1  C   UNL     1       2.187   7.894  19.336  0.00  0.00    +0.000 A 
ATOM      2  C   UNL     1       2.212   8.344  18.011  0.00  0.00    +0.000 A 
ATOM      3  C   UNL     1       3.174   7.858  17.127  0.00  0.00    +0.000 A 
ATOM      4  C   UNL     1       4.130   6.932  17.561  0.00  0.00    +0.000 A 
ATOM      5  C   UNL     1       4.038   6.386  18.848  0.00  0.00    +0.000 A 
ATOM      6  C   UNL     1       3.048   6.858  19.720  0.00  0.00    +0.000 A 
ATOM      7  C   UNL     1       5.014   5.320  19.251  0.00  0.00    +0.000 C 
ATOM      8  N   UNL     1       4.863   4.083  18.488  0.00  0.00    +0.000 N 
ATOM      9  C   UNL     1       5.322   4.006  17.172  0.00  0.00    +0.000 C 
ATOM     10  O   UNL     1       5.996   3.063  16.756  0.00  0.00    +0.000 OA
ATOM     11  C   UNL     1       4.739   5.084  16.211  0.00  0.00    +0.000 C 
ATOM     12  N   UNL     1       5.110   6.447  16.663  0.00  0.00    +0.000 N 
ATOM     13  H   UNL     1       5.181   7.095  15.876  0.00  0.00    +0.000 HD
ENDROOT
BRANCH   1  16
ATOM     14  C   UNL     1      -0.459  10.181  20.886  0.00  0.00    +0.000 C 
ATOM     15  N   UNL     1       0.497   9.676  19.898  0.00  0.00    +0.000 N 
ATOM     16  C   UNL     1       1.198   8.518  20.266  0.00  0.00    +0.000 C 
ATOM     17  O   UNL     1       0.984   7.937  21.331  0.00  0.00    +0.000 OA
BRANCH  15  18
ATOM     18  C   UNL     1       0.600  10.309  18.580  0.00  0.00    +0.000 C 
BRANCH  18  19
ATOM     19  C   UNL     1       1.028  11.725  18.590  0.00  0.00    +0.000 A 
ATOM     20  N   UNL     1       0.276  12.749  18.938  0.00  0.00    +0.000 NA
ATOM     21  C   UNL     1       1.051  13.857  18.736  0.00  0.00    +0.000 A 
ATOM     22  C   UNL     1       0.735  15.214  18.902  0.00  0.00    +0.000 A 
ATOM     23  C   UNL     1       1.720  16.168  18.616  0.00  0.00    +0.000 A 
ATOM     24  C   UNL     1       2.990  15.777  18.183  0.00  0.00    +0.000 A 
ATOM     25  C   UNL     1       3.322  14.428  18.011  0.00  0.00    +0.000 A 
ATOM     26  C   UNL     1       2.320  13.500  18.294  0.00  0.00    +0.000 A 
ATOM     27  N   UNL     1       2.282  12.132  18.222  0.00  0.00    +0.000 N 
ATOM     28  H   UNL     1       3.029  11.532  17.909  0.00  0.00    +0.000 HD
ENDBRANCH  18  19
ENDBRANCH  15  18
ENDBRANCH   1  16
BRANCH   8  29
ATOM     29  C   UNL     1       4.230   2.937  19.133  0.00  0.00    +0.000 C 
BRANCH  29  30
ATOM     30  C   UNL     1       2.985   2.391  18.413  0.00  0.00    +0.000 C 
BRANCH  30  31
ATOM     31  C   UNL     1       1.656   3.118  18.739  0.00  0.00    +0.000 C 
ATOM     32  C   UNL     1       1.393   4.256  17.739  0.00  0.00    +0.000 C 
ATOM     33  C   UNL     1       0.477   2.121  18.694  0.00  0.00    +0.000 C 
ATOM     34  C   UNL     1       1.734   3.707  20.155  0.00  0.00    +0.000 C 
ENDBRANCH  30  31
ENDBRANCH  29  30
ENDBRANCH   8  29
BRANCH  11  35
ATOM     35  C   UNL     1       5.154   4.790  14.760  0.00  0.00    +0.000 C 
BRANCH  35  36
ATOM     36  C   UNL     1       6.598   5.054  14.451  0.00  0.00    +0.000 C 
ATOM     37  O   UNL     1       7.385   5.677  15.187  0.00  0.00    +0.000 OA
BRANCH  36  38
ATOM     38  O   UNL     1       7.019   4.499  13.296  0.00  0.00    +0.000 OA
ATOM     39  H   UNL     1       7.106   5.137  12.558  0.00  0.00    +0.000 HD
ENDBRANCH  36  38
ENDBRANCH  35  36
ENDBRANCH  11  35
TORSDOF 9
ENDMDL
MODEL 9
REMARK VINA RESULT:      -8.0      2.075      2.950
REMARK  Name = 
REMARK  13 active torsions:
REMARK  status: ('A' for Active; 'I' for Inactive)
REMARK    1  A    between atoms: C_1  and  N_2
REMARK    2  A    between atoms: N_2  and  C_3
REMARK    3  A    between atoms: C_3  and  C_4
REMARK    4  A    between atoms: C_13  and  C_15
REMARK    5  A    between atoms: N_22  and  C_23
REMARK    6  A    between atoms: C_23  and  C_24
REMARK    7  A    between atoms: C_24  and  C_25
REMARK    8  A    between atoms: C_25  and  C_26
REMARK    9  A    between atoms: C_25  and  C_27
REMARK   10  A    between atoms: C_25  and  C_28
REMARK   11  A    between atoms: C_31  and  C_32
REMARK   12  A    between atoms: C_32  and  C_33
REMARK   13  A    between atoms: C_33  and  O_35
REMARK                            x       y       z     vdW  Elec       q    Type
REMARK                         _______ _______ _______ _____ _____    ______ ____
ROOT
ATOM      1  C   UNL     1       2.215   7.811  19.426  0.00  0.00    +0.000 A 
ATOM      2  C   UNL     1       2.198   8.300  18.115  0.00  0.00    +0.000 A 
ATOM      3  C   UNL     1       3.131   7.840  17.187  0.00  0.00    +0.000 A 
ATOM      4  C   UNL     1       4.101   6.903  17.562  0.00  0.00    +0.000 A 
ATOM      5  C   UNL     1       4.050   6.320  18.835  0.00  0.00    +0.000 A 
ATOM      6  C   UNL     1       3.088   6.765  19.752  0.00  0.00    +0.000 A 
ATOM      7  C   UNL     1       5.038   5.243  19.176  0.00  0.00    +0.000 C 
ATOM      8  N   UNL     1       4.862   4.029  18.381  0.00  0.00    +0.000 N 
ATOM      9  C   UNL     1       5.279   3.991  17.050  0.00  0.00    +0.000 C 
ATOM     10  O   UNL     1       5.939   3.061  16.585  0.00  0.00    +0.000 OA
ATOM     11  C   UNL     1       4.666   5.096  16.140  0.00  0.00    +0.000 C 
ATOM     12  N   UNL     1       5.051   6.446  16.619  0.00  0.00    +0.000 N 
ATOM     13  H   UNL     1       5.097   7.117  15.850  0.00  0.00    +0.000 HD
ENDROOT
BRANCH   1  16
ATOM     14  C   UNL     1      -0.403  10.031  21.115  0.00  0.00    +0.000 C 
ATOM     15  N   UNL     1       0.518   9.554  20.081  0.00  0.00    +0.000 N 
ATOM     16  C   UNL     1       1.257   8.407  20.405  0.00  0.00    +0.000 C 
ATOM     17  O   UNL     1       1.101   7.811  21.472  0.00  0.00    +0.000 OA
BRANCH  15  18
ATOM     18  C   UNL     1       0.551  10.203  18.766  0.00  0.00    +0.000 C 
BRANCH  18  19
ATOM     19  C   UNL     1       0.799  11.660  18.786  0.00  0.00    +0.000 A 
ATOM     20  N   UNL     1       1.947  12.237  19.081  0.00  0.00    +0.000 NA
ATOM     21  C   UNL     1       1.702  13.581  19.038  0.00  0.00    +0.000 A 
ATOM     22  C   UNL     1       2.559  14.657  19.313  0.00  0.00    +0.000 A 
ATOM     23  C   UNL     1       2.055  15.958  19.200  0.00  0.00    +0.000 A 
ATOM     24  C   UNL     1       0.729  16.180  18.815  0.00  0.00    +0.000 A 
ATOM     25  C   UNL     1      -0.141  15.118  18.539  0.00  0.00    +0.000 A 
ATOM     26  C   UNL     1       0.386  13.834  18.667  0.00  0.00    +0.000 A 
ATOM     27  N   UNL     1      -0.164  12.590  18.500  0.00  0.00    +0.000 N 
ATOM     28  H   UNL     1      -1.122  12.391  18.256  0.00  0.00    +0.000 HD
ENDBRANCH  18  19
ENDBRANCH  15  18
ENDBRANCH   1  16
BRANCH   8  29
ATOM     29  C   UNL     1       4.251   2.864  19.012  0.00  0.00    +0.000 C 
BRANCH  29  30
ATOM     30  C   UNL     1       2.979   2.343  18.321  0.00  0.00    +0.000 C 
BRANCH  30  31
ATOM     31  C   UNL     1       1.662   3.051  18.730  0.00  0.00    +0.000 C 
ATOM     32  C   UNL     1       0.476   2.074  18.680  0.00  0.00    +0.000 C 
ATOM     33  C   UNL     1       1.785   3.626  20.158  0.00  0.00    +0.000 C 
ATOM     34  C   UNL     1       1.390   4.214  17.764  0.00  0.00    +0.000 C 
ENDBRANCH  30  31
ENDBRANCH  29  30
ENDBRANCH   8  29
BRANCH  11  35
ATOM     35  C   UNL     1       5.034   4.845  14.669  0.00  0.00    +0.000 C 
BRANCH  35  36
ATOM     36  C   UNL     1       6.504   4.718  14.399  0.00  0.00    +0.000 C 
ATOM     37  O   UNL     1       7.376   5.513  14.798  0.00  0.00    +0.000 OA
BRANCH  36  38
ATOM     38  O   UNL     1       6.840   3.608  13.712  0.00  0.00    +0.000 OA
ATOM     39  H   UNL     1       6.659   2.774  14.194  0.00  0.00    +0.000 HD
ENDBRANCH  36  38
ENDBRANCH  35  36
ENDBRANCH  11  35
TORSDOF 9
ENDMDL
