MODEL 1
REMARK VINA RESULT:      -9.0      0.000      0.000
REMARK  Name = 
REMARK  4 active torsions:
REMARK  status: ('A' for Active; 'I' for Inactive)
REMARK    1  A    between atoms: N_1  and  C_2
REMARK    2  A    between atoms: C_11  and  C_13
REMARK    3  A    between atoms: C_18  and  S_19
REMARK    4  A    between atoms: S_19  and  N_22
REMARK                            x       y       z     vdW  Elec       q    Type
REMARK                         _______ _______ _______ _____ _____    ______ ____
ROOT
ATOM      1  C   UNL     1       2.268   6.818  19.372  0.00  0.00    +0.000 A 
ATOM      2  C   UNL     1       1.245   6.124  20.021  0.00  0.00    +0.000 A 
ATOM      3  C   UNL     1       1.468   4.828  20.494  0.00  0.00    +0.000 A 
ATOM      4  C   UNL     1       2.709   4.191  20.306  0.00  0.00    +0.000 A 
ATOM      5 CL   UNL     1       2.825   2.603  20.964  0.00  0.00    +0.000 Cl
ATOM      6  C   UNL     1       3.729   4.867  19.633  0.00  0.00    +0.000 A 
ATOM      7  C   UNL     1       3.517   6.198  19.217  0.00  0.00    +0.000 A 
ENDROOT
BRANCH   1  17
ATOM      8  C   UNL     1      -0.412  10.345  22.697  0.00  0.00    +0.000 A 
ATOM      9  C   UNL     1      -1.394  11.341  22.707  0.00  0.00    +0.000 A 
ATOM     10  C   UNL     1      -1.759  12.035  21.534  0.00  0.00    +0.000 A 
ATOM     11  C   UNL     1      -1.194  11.695  20.301  0.00  0.00    +0.000 A 
ATOM     12  C   UNL     1      -0.264  10.678  20.297  0.00  0.00    +0.000 A 
ATOM     13  C   UNL     1       0.120  10.029  21.456  0.00  0.00    +0.000 A 
ATOM     14  C   UNL     1       1.124   9.037  21.084  0.00  0.00    +0.000 C 
ATOM     15  O   UNL     1       1.779   8.418  21.906  0.00  0.00    +0.000 OA
ATOM     16  N   UNL     1       1.196   9.029  19.706  0.00  0.00    +0.000 N 
ATOM     17  C   UNL     1       2.010   8.223  18.921  0.00  0.00    +0.000 C 
ATOM     18  O   UNL     1       2.641   8.635  17.947  0.00  0.00    +0.000 OA
ATOM     19  C   UNL     1       0.417  10.032  19.178  0.00  0.00    +0.000 C 
ATOM     20  O   UNL     1       0.196  10.346  18.023  0.00  0.00    +0.000 OA
BRANCH   8  21
ATOM     21  N   UNL     1      -0.197   9.547  23.822  0.00  0.00    +0.000 N 
ATOM     22  H   UNL     1      -1.024   9.344  24.373  0.00  0.00    +0.000 HD
ATOM     23  H   UNL     1       0.586   9.867  24.395  0.00  0.00    +0.000 HD
ENDBRANCH   8  21
ENDBRANCH   1  17
BRANCH   6  24
ATOM     24  S   UNL     1       5.360   4.188  19.347  0.00  0.00    +0.000 S 
ATOM     25  O   UNL     1       6.290   5.045  20.060  0.00  0.00    +0.000 OA
ATOM     26  O   UNL     1       5.341   2.770  19.626  0.00  0.00    +0.000 OA
BRANCH  24  27
ATOM     27  N   UNL     1       5.637   4.417  17.668  0.00  0.00    +0.000 NA
ATOM     28  C   UNL     1       7.024   4.686  17.248  0.00  0.00    +0.000 C 
ATOM     29  C   UNL     1       7.121   5.673  16.087  0.00  0.00    +0.000 C 
ATOM     30  C   UNL     1       6.941   5.036  14.717  0.00  0.00    +0.000 C 
ATOM     31  C   UNL     1       5.519   4.566  14.472  0.00  0.00    +0.000 C 
ATOM     32  C   UNL     1       5.148   3.386  15.358  0.00  0.00    +0.000 C 
ATOM     33  C   UNL     1       4.677   3.745  16.759  0.00  0.00    +0.000 C 
ENDBRANCH  24  27
ENDBRANCH   6  24
TORSDOF 4
ENDMDL
MODEL 2
REMARK VINA RESULT:      -8.7      0.440      1.074
REMARK  Name = 
REMARK  4 active torsions:
REMARK  status: ('A' for Active; 'I' for Inactive)
REMARK    1  A    between atoms: N_1  and  C_2
REMARK    2  A    between atoms: C_11  and  C_13
REMARK    3  A    between atoms: C_18  and  S_19
REMARK    4  A    between atoms: S_19  and  N_22
REMARK                            x       y       z     vdW  Elec       q    Type
REMARK                         _______ _______ _______ _____ _____    ______ ____
ROOT
ATOM      1  C   UNL     1       2.220   6.874  19.406  0.00  0.00    +0.000 A 
ATOM      2  C   UNL     1       1.224   6.167  20.081  0.00  0.00    +0.000 A 
ATOM      3  C   UNL     1       1.475   4.874  20.548  0.00  0.00    +0.000 A 
ATOM      4  C   UNL     1       2.719   4.254  20.329  0.00  0.00    +0.000 A 
ATOM      5 CL   UNL     1       2.873   2.668  20.983  0.00  0.00    +0.000 Cl
ATOM      6  C   UNL     1       3.712   4.943  19.629  0.00  0.00    +0.000 A 
ATOM      7  C   UNL     1       3.472   6.271  19.219  0.00  0.00    +0.000 A 
ENDROOT
BRANCH   1  17
ATOM      8  C   UNL     1      -0.435  10.362  22.791  0.00  0.00    +0.000 A 
ATOM      9  C   UNL     1      -1.431  11.344  22.824  0.00  0.00    +0.000 A 
ATOM     10  C   UNL     1      -1.832  12.033  21.660  0.00  0.00    +0.000 A 
ATOM     11  C   UNL     1      -1.289  11.702  20.414  0.00  0.00    +0.000 A 
ATOM     12  C   UNL     1      -0.346  10.697  20.389  0.00  0.00    +0.000 A 
ATOM     13  C   UNL     1       0.074  10.054  21.538  0.00  0.00    +0.000 A 
ATOM     14  C   UNL     1       1.083   9.076  21.144  0.00  0.00    +0.000 C 
ATOM     15  O   UNL     1       1.765   8.466  21.951  0.00  0.00    +0.000 OA
ATOM     16  N   UNL     1       1.124   9.070  19.765  0.00  0.00    +0.000 N 
ATOM     17  C   UNL     1       1.932   8.276  18.962  0.00  0.00    +0.000 C 
ATOM     18  O   UNL     1       2.536   8.697  17.974  0.00  0.00    +0.000 OA
ATOM     19  C   UNL     1       0.319  10.062  19.255  0.00  0.00    +0.000 C 
ATOM     20  O   UNL     1       0.068  10.373  18.105  0.00  0.00    +0.000 OA
BRANCH   8  21
ATOM     21  N   UNL     1      -0.184   9.567  23.911  0.00  0.00    +0.000 N 
ATOM     22  H   UNL     1       0.011  10.075  24.768  0.00  0.00    +0.000 HD
ATOM     23  H   UNL     1       0.498   8.828  23.731  0.00  0.00    +0.000 HD
ENDBRANCH   8  21
ENDBRANCH   1  17
BRANCH   6  24
ATOM     24  S   UNL     1       5.344   4.286  19.302  0.00  0.00    +0.000 S 
ATOM     25  O   UNL     1       6.281   5.156  19.989  0.00  0.00    +0.000 OA
ATOM     26  O   UNL     1       5.352   2.868  19.584  0.00  0.00    +0.000 OA
BRANCH  24  27
ATOM     27  N   UNL     1       5.574   4.515  17.616  0.00  0.00    +0.000 NA
ATOM     28  C   UNL     1       4.759   3.686  16.709  0.00  0.00    +0.000 C 
ATOM     29  C   UNL     1       5.507   3.261  15.447  0.00  0.00    +0.000 C 
ATOM     30  C   UNL     1       5.490   4.303  14.338  0.00  0.00    +0.000 C 
ATOM     31  C   UNL     1       6.323   5.527  14.672  0.00  0.00    +0.000 C 
ATOM     32  C   UNL     1       5.713   6.341  15.803  0.00  0.00    +0.000 C 
ATOM     33  C   UNL     1       6.047   5.860  17.208  0.00  0.00    +0.000 C 
ENDBRANCH  24  27
ENDBRANCH   6  24
TORSDOF 4
ENDMDL
MODEL 3
REMARK VINA RESULT:      -8.5      0.907      1.465
REMARK  Name = 
REMARK  4 active torsions:
REMARK  status: ('A' for Active; 'I' for Inactive)
REMARK    1  A    between atoms: N_1  and  C_2
REMARK    2  A    between atoms: C_11  and  C_13
REMARK    3  A    between atoms: C_18  and  S_19
REMARK    4  A    between atoms: S_19  and  N_22
REMARK                            x       y       z     vdW  Elec       q    Type
REMARK                         _______ _______ _______ _____ _____    ______ ____
ROOT
ATOM      1  C   UNL     1       2.161   6.312  19.458  0.00  0.00    +0.000 A 
ATOM      2  C   UNL     1       1.165   5.960  20.371  0.00  0.00    +0.000 A 
ATOM      3  C   UNL     1       1.119   4.664  20.894  0.00  0.00    +0.000 A 
ATOM      4  C   UNL     1       2.053   3.689  20.497  0.00  0.00    +0.000 A 
ATOM      5 CL   UNL     1       1.869   2.150  21.247  0.00  0.00    +0.000 Cl
ATOM      6  C   UNL     1       3.036   4.024  19.563  0.00  0.00    +0.000 A 
ATOM      7  C   UNL     1       3.115   5.351  19.090  0.00  0.00    +0.000 A 
ENDROOT
BRANCH   1  17
ATOM      8  C   UNL     1      -0.279  10.365  22.339  0.00  0.00    +0.000 A 
ATOM      9  C   UNL     1      -1.067  11.512  22.201  0.00  0.00    +0.000 A 
ATOM     10  C   UNL     1      -1.152  12.212  20.980  0.00  0.00    +0.000 A 
ATOM     11  C   UNL     1      -0.498  11.735  19.839  0.00  0.00    +0.000 A 
ATOM     12  C   UNL     1       0.234  10.576  19.975  0.00  0.00    +0.000 A 
ATOM     13  C   UNL     1       0.348   9.917  21.185  0.00  0.00    +0.000 A 
ATOM     14  C   UNL     1       1.205   8.755  20.967  0.00  0.00    +0.000 C 
ATOM     15  O   UNL     1       1.631   8.066  21.879  0.00  0.00    +0.000 OA
ATOM     16  N   UNL     1       1.452   8.684  19.612  0.00  0.00    +0.000 N 
ATOM     17  C   UNL     1       2.210   7.722  18.956  0.00  0.00    +0.000 C 
ATOM     18  O   UNL     1       3.024   7.984  18.069  0.00  0.00    +0.000 OA
ATOM     19  C   UNL     1       0.933   9.783  18.968  0.00  0.00    +0.000 C 
ATOM     20  O   UNL     1       0.921  10.085  17.790  0.00  0.00    +0.000 OA
BRANCH   8  21
ATOM     21  N   UNL     1      -0.352   9.586  23.494  0.00  0.00    +0.000 N 
ATOM     22  H   UNL     1      -1.044   9.884  24.175  0.00  0.00    +0.000 HD
ATOM     23  H   UNL     1       0.561   9.410  23.917  0.00  0.00    +0.000 HD
ENDBRANCH   8  21
ENDBRANCH   1  17
BRANCH   6  24
ATOM     24  S   UNL     1       4.298   2.893  18.990  0.00  0.00    +0.000 S 
ATOM     25  O   UNL     1       5.139   2.603  20.137  0.00  0.00    +0.000 OA
ATOM     26  O   UNL     1       3.673   1.805  18.272  0.00  0.00    +0.000 OA
BRANCH  24  27
ATOM     27  N   UNL     1       5.238   3.815  17.887  0.00  0.00    +0.000 NA
ATOM     28  C   UNL     1       4.741   3.915  16.503  0.00  0.00    +0.000 C 
ATOM     29  C   UNL     1       5.858   3.920  15.461  0.00  0.00    +0.000 C 
ATOM     30  C   UNL     1       6.478   5.289  15.226  0.00  0.00    +0.000 C 
ATOM     31  C   UNL     1       7.295   5.774  16.409  0.00  0.00    +0.000 C 
ATOM     32  C   UNL     1       6.422   6.088  17.614  0.00  0.00    +0.000 C 
ATOM     33  C   UNL     1       6.059   4.895  18.487  0.00  0.00    +0.000 C 
ENDBRANCH  24  27
ENDBRANCH   6  24
TORSDOF 4
ENDMDL
MODEL 4
REMARK VINA RESULT:      -8.3      2.838      8.268
REMARK  Name = 
REMARK  4 active torsions:
REMARK  status: ('A' for Active; 'I' for Inactive)
REMARK    1  A    between atoms: N_1  and  C_2
REMARK    2  A    between atoms: C_11  and  C_13
REMARK    3  A    between atoms: C_18  and  S_19
REMARK    4  A    between atoms: S_19  and  N_22
REMARK                            x       y       z     vdW  Elec       q    Type
REMARK                         _______ _______ _______ _____ _____    ______ ____
ROOT
ATOM      1  C   UNL     1       1.900   6.243  19.599  0.00  0.00    +0.000 A 
ATOM      2  C   UNL     1       1.649   6.265  20.973  0.00  0.00    +0.000 A 
ATOM      3  C   UNL     1       1.285   7.459  21.600  0.00  0.00    +0.000 A 
ATOM      4  C   UNL     1       1.188   8.660  20.873  0.00  0.00    +0.000 A 
ATOM      5 CL   UNL     1       0.712  10.037  21.791  0.00  0.00    +0.000 Cl
ATOM      6  C   UNL     1       1.465   8.653  19.504  0.00  0.00    +0.000 A 
ATOM      7  C   UNL     1       1.767   7.432  18.867  0.00  0.00    +0.000 A 
ENDROOT
BRANCH   1  17
ATOM      8  C   UNL     1       6.685   5.665  16.871  0.00  0.00    +0.000 A 
ATOM      9  C   UNL     1       7.248   5.126  15.710  0.00  0.00    +0.000 A 
ATOM     10  C   UNL     1       6.611   4.098  14.983  0.00  0.00    +0.000 A 
ATOM     11  C   UNL     1       5.349   3.631  15.367  0.00  0.00    +0.000 A 
ATOM     12  C   UNL     1       4.783   4.206  16.484  0.00  0.00    +0.000 A 
ATOM     13  C   UNL     1       5.430   5.184  17.216  0.00  0.00    +0.000 A 
ATOM     14  C   UNL     1       4.557   5.542  18.329  0.00  0.00    +0.000 C 
ATOM     15  O   UNL     1       4.916   6.258  19.250  0.00  0.00    +0.000 OA
ATOM     16  N   UNL     1       3.365   4.874  18.139  0.00  0.00    +0.000 N 
ATOM     17  C   UNL     1       2.239   4.936  18.951  0.00  0.00    +0.000 C 
ATOM     18  O   UNL     1       1.579   3.948  19.278  0.00  0.00    +0.000 OA
ATOM     19  C   UNL     1       3.459   4.015  17.069  0.00  0.00    +0.000 C 
ATOM     20  O   UNL     1       2.637   3.270  16.570  0.00  0.00    +0.000 OA
BRANCH   8  21
ATOM     21  N   UNL     1       7.236   6.799  17.468  0.00  0.00    +0.000 N 
ATOM     22  H   UNL     1       7.079   7.670  16.970  0.00  0.00    +0.000 HD
ATOM     23  H   UNL     1       8.212   6.674  17.739  0.00  0.00    +0.000 HD
ENDBRANCH   8  21
ENDBRANCH   1  17
BRANCH   6  24
ATOM     24  S   UNL     1       1.355  10.099  18.455  0.00  0.00    +0.000 S 
ATOM     25  O   UNL     1       1.906  11.203  19.220  0.00  0.00    +0.000 OA
ATOM     26  O   UNL     1       1.909   9.787  17.155  0.00  0.00    +0.000 OA
BRANCH  24  27
ATOM     27  N   UNL     1      -0.329  10.384  18.283  0.00  0.00    +0.000 NA
ATOM     28  C   UNL     1      -0.816  11.738  18.604  0.00  0.00    +0.000 C 
ATOM     29  C   UNL     1      -2.191  11.742  19.269  0.00  0.00    +0.000 C 
ATOM     30  C   UNL     1      -3.352  11.670  18.290  0.00  0.00    +0.000 C 
ATOM     31  C   UNL     1      -3.457  10.321  17.603  0.00  0.00    +0.000 C 
ATOM     32  C   UNL     1      -2.298  10.075  16.649  0.00  0.00    +0.000 C 
ATOM     33  C   UNL     1      -1.029   9.532  17.291  0.00  0.00    +0.000 C 
ENDBRANCH  24  27
ENDBRANCH   6  24
TORSDOF 4
ENDMDL
MODEL 5
REMARK VINA RESULT:      -8.1      2.881      8.268
REMARK  Name = 
REMARK  4 active torsions:
REMARK  status: ('A' for Active; 'I' for Inactive)
REMARK    1  A    between atoms: N_1  and  C_2
REMARK    2  A    between atoms: C_11  and  C_13
REMARK    3  A    between atoms: C_18  and  S_19
REMARK    4  A    between atoms: S_19  and  N_22
REMARK                            x       y       z     vdW  Elec       q    Type
REMARK                         _______ _______ _______ _____ _____    ______ ____
ROOT
ATOM      1  C   UNL     1       1.911   6.382  19.620  0.00  0.00    +0.000 A 
ATOM      2  C   UNL     1       1.589   6.433  20.978  0.00  0.00    +0.000 A 
ATOM      3  C   UNL     1       1.217   7.646  21.565  0.00  0.00    +0.000 A 
ATOM      4  C   UNL     1       1.183   8.835  20.813  0.00  0.00    +0.000 A 
ATOM      5 CL   UNL     1       0.688  10.237  21.682  0.00  0.00    +0.000 Cl
ATOM      6  C   UNL     1       1.531   8.798  19.461  0.00  0.00    +0.000 A 
ATOM      7  C   UNL     1       1.841   7.560  18.862  0.00  0.00    +0.000 A 
ENDROOT
BRANCH   1  17
ATOM      8  C   UNL     1       6.565   5.818  16.672  0.00  0.00    +0.000 A 
ATOM      9  C   UNL     1       7.085   5.243  15.507  0.00  0.00    +0.000 A 
ATOM     10  C   UNL     1       6.443   4.165  14.861  0.00  0.00    +0.000 A 
ATOM     11  C   UNL     1       5.218   3.681  15.331  0.00  0.00    +0.000 A 
ATOM     12  C   UNL     1       4.692   4.289  16.450  0.00  0.00    +0.000 A 
ATOM     13  C   UNL     1       5.346   5.317  17.104  0.00  0.00    +0.000 A 
ATOM     14  C   UNL     1       4.520   5.701  18.244  0.00  0.00    +0.000 C 
ATOM     15  O   UNL     1       4.903   6.467  19.112  0.00  0.00    +0.000 OA
ATOM     16  N   UNL     1       3.341   4.990  18.147  0.00  0.00    +0.000 N 
ATOM     17  C   UNL     1       2.257   5.057  19.013  0.00  0.00    +0.000 C 
ATOM     18  O   UNL     1       1.646   4.067  19.418  0.00  0.00    +0.000 OA
ATOM     19  C   UNL     1       3.407   4.087  17.112  0.00  0.00    +0.000 C 
ATOM     20  O   UNL     1       2.584   3.296  16.690  0.00  0.00    +0.000 OA
BRANCH   8  21
ATOM     21  N   UNL     1       7.111   6.994  17.189  0.00  0.00    +0.000 N 
ATOM     22  H   UNL     1       6.952   7.827  16.631  0.00  0.00    +0.000 HD
ATOM     23  H   UNL     1       8.087   6.892  17.470  0.00  0.00    +0.000 HD
ENDBRANCH   8  21
ENDBRANCH   1  17
BRANCH   6  24
ATOM     24  S   UNL     1       1.506  10.226  18.383  0.00  0.00    +0.000 S 
ATOM     25  O   UNL     1       2.070  11.325  19.146  0.00  0.00    +0.000 OA
ATOM     26  O   UNL     1       2.089   9.871  17.109  0.00  0.00    +0.000 OA
BRANCH  24  27
ATOM     27  N   UNL     1      -0.161  10.566  18.153  0.00  0.00    +0.000 NA
ATOM     28  C   UNL     1      -1.021   9.448  17.724  0.00  0.00    +0.000 C 
ATOM     29  C   UNL     1      -2.121   9.872  16.754  0.00  0.00    +0.000 C 
ATOM     30  C   UNL     1      -3.364  10.427  17.432  0.00  0.00    +0.000 C 
ATOM     31  C   UNL     1      -3.123  11.780  18.078  0.00  0.00    +0.000 C 
ATOM     32  C   UNL     1      -2.194  11.682  19.278  0.00  0.00    +0.000 C 
ATOM     33  C   UNL     1      -0.707  11.689  18.954  0.00  0.00    +0.000 C 
ENDBRANCH  24  27
ENDBRANCH   6  24
TORSDOF 4
ENDMDL
MODEL 6
REMARK VINA RESULT:      -8.0      6.086      8.399
REMARK  Name = 
REMARK  4 active torsions:
REMARK  status: ('A' for Active; 'I' for Inactive)
REMARK    1  A    between atoms: N_1  and  C_2
REMARK    2  A    between atoms: C_11  and  C_13
REMARK    3  A    between atoms: C_18  and  S_19
REMARK    4  A    between atoms: S_19  and  N_22
REMARK                            x       y       z     vdW  Elec       q    Type
REMARK                         _______ _______ _______ _____ _____    ______ ____
ROOT
ATOM      1  C   UNL     1      -1.171  12.256  22.656  0.00  0.00    +0.000 A 
ATOM      2  C   UNL     1      -1.086  11.137  23.485  0.00  0.00    +0.000 A 
ATOM      3  C   UNL     1      -0.652   9.913  22.969  0.00  0.00    +0.000 A 
ATOM      4  C   UNL     1      -0.316   9.778  21.608  0.00  0.00    +0.000 A 
ATOM      5 CL   UNL     1       0.216   8.210  21.137  0.00  0.00    +0.000 Cl
ATOM      6  C   UNL     1      -0.426  10.886  20.765  0.00  0.00    +0.000 A 
ATOM      7  C   UNL     1      -0.801  12.132  21.308  0.00  0.00    +0.000 A 
ENDROOT
BRANCH   1  17
ATOM      8  C   UNL     1      -6.498  13.148  23.885  0.00  0.00    +0.000 A 
ATOM      9  C   UNL     1      -7.511  14.110  23.823  0.00  0.00    +0.000 A 
ATOM     10  C   UNL     1      -7.221  15.485  23.694  0.00  0.00    +0.000 A 
ATOM     11  C   UNL     1      -5.901  15.925  23.553  0.00  0.00    +0.000 A 
ATOM     12  C   UNL     1      -4.916  14.961  23.565  0.00  0.00    +0.000 A 
ATOM     13  C   UNL     1      -5.202  13.619  23.733  0.00  0.00    +0.000 A 
ATOM     14  C   UNL     1      -3.932  12.900  23.717  0.00  0.00    +0.000 C 
ATOM     15  O   UNL     1      -3.836  11.719  24.008  0.00  0.00    +0.000 OA
ATOM     16  N   UNL     1      -2.952  13.816  23.397  0.00  0.00    +0.000 N 
ATOM     17  C   UNL     1      -1.594  13.564  23.254  0.00  0.00    +0.000 C 
ATOM     18  O   UNL     1      -0.713  14.292  23.713  0.00  0.00    +0.000 OA
ATOM     19  C   UNL     1      -3.479  15.085  23.341  0.00  0.00    +0.000 C 
ATOM     20  O   UNL     1      -2.959  16.154  23.077  0.00  0.00    +0.000 OA
BRANCH   8  21
ATOM     21  N   UNL     1      -6.805  11.787  23.826  0.00  0.00    +0.000 N 
ATOM     22  H   UNL     1      -6.450  11.298  23.010  0.00  0.00    +0.000 HD
ATOM     23  H   UNL     1      -7.792  11.592  24.000  0.00  0.00    +0.000 HD
ENDBRANCH   8  21
ENDBRANCH   1  17
BRANCH   6  24
ATOM     24  S   UNL     1      -0.009  10.864  19.025  0.00  0.00    +0.000 S 
ATOM     25  O   UNL     1       0.592  12.152  18.731  0.00  0.00    +0.000 OA
ATOM     26  O   UNL     1       0.723   9.653  18.726  0.00  0.00    +0.000 OA
BRANCH  24  27
ATOM     27  N   UNL     1      -1.523  10.808  18.217  0.00  0.00    +0.000 NA
ATOM     28  C   UNL     1      -2.377  12.006  18.310  0.00  0.00    +0.000 C 
ATOM     29  C   UNL     1      -3.866  11.679  18.397  0.00  0.00    +0.000 C 
ATOM     30  C   UNL     1      -4.527  11.442  17.047  0.00  0.00    +0.000 C 
ATOM     31  C   UNL     1      -4.069  10.153  16.389  0.00  0.00    +0.000 C 
ATOM     32  C   UNL     1      -2.612  10.220  15.957  0.00  0.00    +0.000 C 
ATOM     33  C   UNL     1      -1.593   9.905  17.043  0.00  0.00    +0.000 C 
ENDBRANCH  24  27
ENDBRANCH   6  24
TORSDOF 4
ENDMDL
MODEL 7
REMARK VINA RESULT:      -7.9      6.366      8.685
REMARK  Name = 
REMARK  4 active torsions:
REMARK  status: ('A' for Active; 'I' for Inactive)
REMARK    1  A    between atoms: N_1  and  C_2
REMARK    2  A    between atoms: C_11  and  C_13
REMARK    3  A    between atoms: C_18  and  S_19
REMARK    4  A    between atoms: S_19  and  N_22
REMARK                            x       y       z     vdW  Elec       q    Type
REMARK                         _______ _______ _______ _____ _____    ______ ____
ROOT
ATOM      1  C   UNL     1      -1.274  12.573  22.715  0.00  0.00    +0.000 A 
ATOM      2  C   UNL     1      -1.149  11.356  23.389  0.00  0.00    +0.000 A 
ATOM      3  C   UNL     1      -0.667  10.229  22.719  0.00  0.00    +0.000 A 
ATOM      4  C   UNL     1      -0.323  10.289  21.355  0.00  0.00    +0.000 A 
ATOM      5 CL   UNL     1       0.270   8.818  20.684  0.00  0.00    +0.000 Cl
ATOM      6  C   UNL     1      -0.471  11.494  20.666  0.00  0.00    +0.000 A 
ATOM      7  C   UNL     1      -0.895  12.642  21.366  0.00  0.00    +0.000 A 
ENDROOT
BRANCH   1  17
ATOM      8  C   UNL     1      -6.675  13.252  23.735  0.00  0.00    +0.000 A 
ATOM      9  C   UNL     1      -7.694  14.210  23.757  0.00  0.00    +0.000 A 
ATOM     10  C   UNL     1      -7.414  15.589  23.857  0.00  0.00    +0.000 A 
ATOM     11  C   UNL     1      -6.093  16.049  23.866  0.00  0.00    +0.000 A 
ATOM     12  C   UNL     1      -5.099  15.097  23.793  0.00  0.00    +0.000 A 
ATOM     13  C   UNL     1      -5.378  13.745  23.737  0.00  0.00    +0.000 A 
ATOM     14  C   UNL     1      -4.102  13.039  23.690  0.00  0.00    +0.000 C 
ATOM     15  O   UNL     1      -4.009  11.828  23.803  0.00  0.00    +0.000 OA
ATOM     16  N   UNL     1      -3.115  13.997  23.573  0.00  0.00    +0.000 N 
ATOM     17  C   UNL     1      -1.748  13.772  23.478  0.00  0.00    +0.000 C 
ATOM     18  O   UNL     1      -0.904  14.425  24.095  0.00  0.00    +0.000 OA
ATOM     19  C   UNL     1      -3.652  15.258  23.679  0.00  0.00    +0.000 C 
ATOM     20  O   UNL     1      -3.130  16.355  23.613  0.00  0.00    +0.000 OA
BRANCH   8  21
ATOM     21  N   UNL     1      -6.962  11.916  23.451  0.00  0.00    +0.000 N 
ATOM     22  H   UNL     1      -7.875  11.746  23.043  0.00  0.00    +0.000 HD
ATOM     23  H   UNL     1      -6.760  11.290  24.232  0.00  0.00    +0.000 HD
ENDBRANCH   8  21
ENDBRANCH   1  17
BRANCH   6  24
ATOM     24  S   UNL     1      -0.048  11.718  18.942  0.00  0.00    +0.000 S 
ATOM     25  O   UNL     1       0.242  13.130  18.771  0.00  0.00    +0.000 OA
ATOM     26  O   UNL     1       0.944  10.737  18.563  0.00  0.00    +0.000 OA
BRANCH  24  27
ATOM     27  N   UNL     1      -1.503  11.389  18.092  0.00  0.00    +0.000 NA
ATOM     28  C   UNL     1      -1.604  10.083  17.415  0.00  0.00    +0.000 C 
ATOM     29  C   UNL     1      -2.358  10.149  16.088  0.00  0.00    +0.000 C 
ATOM     30  C   UNL     1      -3.870  10.072  16.232  0.00  0.00    +0.000 C 
ATOM     31  C   UNL     1      -4.462  11.315  16.870  0.00  0.00    +0.000 C 
ATOM     32  C   UNL     1      -4.068  11.448  18.333  0.00  0.00    +0.000 C 
ATOM     33  C   UNL     1      -2.712  12.090  18.589  0.00  0.00    +0.000 C 
ENDBRANCH  24  27
ENDBRANCH   6  24
TORSDOF 4
ENDMDL
MODEL 8
REMARK VINA RESULT:      -7.9      3.613      8.361
REMARK  Name = 
REMARK  4 active torsions:
REMARK  status: ('A' for Active; 'I' for Inactive)
REMARK    1  A    between atoms: N_1  and  C_2
REMARK    2  A    between atoms: C_11  and  C_13
REMARK    3  A    between atoms: C_18  and  S_19
REMARK    4  A    between atoms: S_19  and  N_22
REMARK                            x       y       z     vdW  Elec       q    Type
REMARK                         _______ _______ _______ _____ _____    ______ ____
ROOT
ATOM      1  C   UNL     1       1.506   8.533  19.893  0.00  0.00    +0.000 A 
ATOM      2  C   UNL     1       1.640   8.251  21.254  0.00  0.00    +0.000 A 
ATOM      3  C   UNL     1       0.909   8.980  22.197  0.00  0.00    +0.000 A 
ATOM      4  C   UNL     1       0.049  10.021  21.799  0.00  0.00    +0.000 A 
ATOM      5 CL   UNL     1      -0.790  10.808  23.081  0.00  0.00    +0.000 Cl
ATOM      6  C   UNL     1      -0.069  10.329  20.442  0.00  0.00    +0.000 A 
ATOM      7  C   UNL     1       0.621   9.545  19.494  0.00  0.00    +0.000 A 
ENDROOT
BRANCH   1  17
ATOM      8  C   UNL     1       2.528   3.199  20.983  0.00  0.00    +0.000 A 
ATOM      9  C   UNL     1       3.519   2.216  20.908  0.00  0.00    +0.000 A 
ATOM     10  C   UNL     1       4.620   2.337  20.033  0.00  0.00    +0.000 A 
ATOM     11  C   UNL     1       4.791   3.489  19.259  0.00  0.00    +0.000 A 
ATOM     12  C   UNL     1       3.833   4.472  19.380  0.00  0.00    +0.000 A 
ATOM     13  C   UNL     1       2.735   4.331  20.208  0.00  0.00    +0.000 A 
ATOM     14  C   UNL     1       1.930   5.541  20.071  0.00  0.00    +0.000 C 
ATOM     15  O   UNL     1       0.812   5.650  20.546  0.00  0.00    +0.000 OA
ATOM     16  N   UNL     1       2.647   6.417  19.283  0.00  0.00    +0.000 N 
ATOM     17  C   UNL     1       2.267   7.699  18.908  0.00  0.00    +0.000 C 
ATOM     18  O   UNL     1       2.400   8.144  17.767  0.00  0.00    +0.000 OA
ATOM     19  C   UNL     1       3.781   5.810  18.797  0.00  0.00    +0.000 C 
ATOM     20  O   UNL     1       4.675   6.238  18.090  0.00  0.00    +0.000 OA
BRANCH   8  21
ATOM     21  N   UNL     1       1.552   3.150  21.980  0.00  0.00    +0.000 N 
ATOM     22  H   UNL     1       0.921   2.357  21.930  0.00  0.00    +0.000 HD
ATOM     23  H   UNL     1       1.057   4.036  22.098  0.00  0.00    +0.000 HD
ENDBRANCH   8  21
ENDBRANCH   1  17
BRANCH   6  24
ATOM     24  S   UNL     1      -1.143  11.606  19.797  0.00  0.00    +0.000 S 
ATOM     25  O   UNL     1      -1.596  11.142  18.498  0.00  0.00    +0.000 OA
ATOM     26  O   UNL     1      -2.117  11.965  20.804  0.00  0.00    +0.000 OA
BRANCH  24  27
ATOM     27  N   UNL     1      -0.107  12.949  19.528  0.00  0.00    +0.000 NA
ATOM     28  C   UNL     1       1.008  12.756  18.583  0.00  0.00    +0.000 C 
ATOM     29  C   UNL     1       2.279  13.498  18.992  0.00  0.00    +0.000 C 
ATOM     30  C   UNL     1       2.308  14.958  18.564  0.00  0.00    +0.000 C 
ATOM     31  C   UNL     1       1.313  15.812  19.329  0.00  0.00    +0.000 C 
ATOM     32  C   UNL     1      -0.125  15.466  18.976  0.00  0.00    +0.000 C 
ATOM     33  C   UNL     1      -0.718  14.285  19.731  0.00  0.00    +0.000 C 
ENDBRANCH  24  27
ENDBRANCH   6  24
TORSDOF 4
ENDMDL
MODEL 9
REMARK VINA RESULT:      -7.8      6.451      9.629
REMARK  Name = 
REMARK  4 active torsions:
REMARK  status: ('A' for Active; 'I' for Inactive)
REMARK    1  A    between atoms: N_1  and  C_2
REMARK    2  A    between atoms: C_11  and  C_13
REMARK    3  A    between atoms: C_18  and  S_19
REMARK    4  A    between atoms: S_19  and  N_22
REMARK                            x       y       z     vdW  Elec       q    Type
REMARK                         _______ _______ _______ _____ _____    ______ ____
ROOT
ATOM      1  C   UNL     1      -5.238  11.659  19.171  0.00  0.00    +0.000 A 
ATOM      2  C   UNL     1      -5.857  11.523  17.927  0.00  0.00    +0.000 A 
ATOM      3  C   UNL     1      -5.087  11.316  16.779  0.00  0.00    +0.000 A 
ATOM      4  C   UNL     1      -3.682  11.266  16.848  0.00  0.00    +0.000 A 
ATOM      5 CL   UNL     1      -2.883  10.988  15.348  0.00  0.00    +0.000 Cl
ATOM      6  C   UNL     1      -3.053  11.430  18.085  0.00  0.00    +0.000 A 
ATOM      7  C   UNL     1      -3.840  11.571  19.246  0.00  0.00    +0.000 A 
ENDROOT
BRANCH   1  17
ATOM      8  C   UNL     1      -5.857  16.672  21.444  0.00  0.00    +0.000 A 
ATOM      9  C   UNL     1      -5.907  17.341  22.671  0.00  0.00    +0.000 A 
ATOM     10  C   UNL     1      -6.199  16.665  23.874  0.00  0.00    +0.000 A 
ATOM     11  C   UNL     1      -6.380  15.278  23.886  0.00  0.00    +0.000 A 
ATOM     12  C   UNL     1      -6.278  14.623  22.677  0.00  0.00    +0.000 A 
ATOM     13  C   UNL     1      -6.033  15.296  21.495  0.00  0.00    +0.000 A 
ATOM     14  C   UNL     1      -6.011  14.303  20.427  0.00  0.00    +0.000 C 
ATOM     15  O   UNL     1      -5.984  14.602  19.244  0.00  0.00    +0.000 OA
ATOM     16  N   UNL     1      -6.100  13.063  21.025  0.00  0.00    +0.000 N 
ATOM     17  C   UNL     1      -6.098  11.830  20.386  0.00  0.00    +0.000 C 
ATOM     18  O   UNL     1      -6.862  10.909  20.678  0.00  0.00    +0.000 OA
ATOM     19  C   UNL     1      -6.312  13.195  22.378  0.00  0.00    +0.000 C 
ATOM     20  O   UNL     1      -6.426  12.357  23.253  0.00  0.00    +0.000 OA
BRANCH   8  21
ATOM     21  N   UNL     1      -5.388  17.318  20.300  0.00  0.00    +0.000 N 
ATOM     22  H   UNL     1      -4.719  18.063  20.467  0.00  0.00    +0.000 HD
ATOM     23  H   UNL     1      -6.136  17.600  19.665  0.00  0.00    +0.000 HD
ENDBRANCH   8  21
ENDBRANCH   1  17
BRANCH   6  24
ATOM     24  S   UNL     1      -1.281  11.363  18.322  0.00  0.00    +0.000 S 
ATOM     25  O   UNL     1      -0.805  10.239  17.536  0.00  0.00    +0.000 OA
ATOM     26  O   UNL     1      -0.720  12.676  18.097  0.00  0.00    +0.000 OA
BRANCH  24  27
ATOM     27  N   UNL     1      -1.080  10.952  19.977  0.00  0.00    +0.000 NA
ATOM     28  C   UNL     1      -0.135   9.863  20.288  0.00  0.00    +0.000 C 
ATOM     29  C   UNL     1      -0.587   8.990  21.456  0.00  0.00    +0.000 C 
ATOM     30  C   UNL     1      -0.225   9.551  22.823  0.00  0.00    +0.000 C 
ATOM     31  C   UNL     1      -1.020  10.796  23.174  0.00  0.00    +0.000 C 
ATOM     32  C   UNL     1      -0.641  11.980  22.298  0.00  0.00    +0.000 C 
ATOM     33  C   UNL     1      -1.338  12.043  20.947  0.00  0.00    +0.000 C 
ENDBRANCH  24  27
ENDBRANCH   6  24
TORSDOF 4
ENDMDL
