MODEL 1
REMARK VINA RESULT:      -7.7      0.000      0.000
REMARK  Name = 
REMARK  6 active torsions:
REMARK  status: ('A' for Active; 'I' for Inactive)
REMARK    1  A    between atoms: C_1  and  C_2
REMARK    2  A    between atoms: C_4  and  O_5
REMARK    3  A    between atoms: C_7  and  S_8
REMARK    4  A    between atoms: S_8  and  C_9
REMARK    5  A    between atoms: C_9  and  C_10
REMARK    6  A    between atoms: C_13  and  C_14
REMARK                            x       y       z     vdW  Elec       q    Type
REMARK                         _______ _______ _______ _____ _____    ______ ____
ROOT
ATOM      1  C   UNL     1       6.367   6.307  16.795  0.00  0.00    +0.000 C 
ENDROOT
BRANCH   1   2
ATOM      2  C   UNL     1       4.997   6.396  17.399  0.00  0.00    +0.000 A 
ATOM      3  C   UNL     1       4.166   7.500  17.375  0.00  0.00    +0.000 A 
ATOM      4  S   UNL     1       2.703   7.162  18.193  0.00  0.00    +0.000 S 
ATOM      5  C   UNL     1       3.260   5.566  18.538  0.00  0.00    +0.000 A 
ATOM      6  N   UNL     1       4.475   5.307  18.092  0.00  0.00    +0.000 NA
BRANCH   5   7
ATOM      7  C   UNL     1       2.394   4.578  19.208  0.00  0.00    +0.000 A 
ATOM      8  C   UNL     1       2.385   4.527  20.612  0.00  0.00    +0.000 A 
ATOM      9  C   UNL     1       1.621   3.578  21.297  0.00  0.00    +0.000 A 
ATOM     10  C   UNL     1       0.843   2.668  20.587  0.00  0.00    +0.000 A 
ATOM     11  C   UNL     1       0.816   2.718  19.196  0.00  0.00    +0.000 A 
ATOM     12  C   UNL     1       1.583   3.667  18.510  0.00  0.00    +0.000 A 
ENDBRANCH   5   7
ENDBRANCH   1   2
BRANCH   1  13
ATOM     13  S   UNL     1       6.875   4.578  16.524  0.00  0.00    +0.000 S 
BRANCH  13  19
ATOM     14  C   UNL     1       5.527   2.745  11.963  0.00  0.00    +0.000 C 
ATOM     15  C   UNL     1       6.373   3.724  12.724  0.00  0.00    +0.000 A 
ATOM     16  C   UNL     1       7.209   4.595  12.060  0.00  0.00    +0.000 A 
ATOM     17  C   UNL     1       7.932   5.447  12.856  0.00  0.00    +0.000 A 
ATOM     18  N   UNL     1       7.864   5.472  14.191  0.00  0.00    +0.000 NA
ATOM     19  C   UNL     1       7.030   4.592  14.755  0.00  0.00    +0.000 A 
ATOM     20  N   UNL     1       6.273   3.712  14.069  0.00  0.00    +0.000 NA
BRANCH  17  21
ATOM     21  O   UNL     1       8.790   6.359  12.320  0.00  0.00    +0.000 OA
ATOM     22  H   UNL     1       8.277   7.005  11.812  0.00  0.00    +0.000 HD
ENDBRANCH  17  21
ENDBRANCH  13  19
ENDBRANCH   1  13
TORSDOF 5
ENDMDL
MODEL 2
REMARK VINA RESULT:      -7.5      2.843      4.167
REMARK  Name = 
REMARK  6 active torsions:
REMARK  status: ('A' for Active; 'I' for Inactive)
REMARK    1  A    between atoms: C_1  and  C_2
REMARK    2  A    between atoms: C_4  and  O_5
REMARK    3  A    between atoms: C_7  and  S_8
REMARK    4  A    between atoms: S_8  and  C_9
REMARK    5  A    between atoms: C_9  and  C_10
REMARK    6  A    between atoms: C_13  and  C_14
REMARK                            x       y       z     vdW  Elec       q    Type
REMARK                         _______ _______ _______ _____ _____    ______ ____
ROOT
ATOM      1  C   UNL     1       5.311   5.073  15.403  0.00  0.00    +0.000 C 
ENDROOT
BRANCH   1   2
ATOM      2  C   UNL     1       4.537   5.399  16.646  0.00  0.00    +0.000 A 
ATOM      3  C   UNL     1       4.162   6.661  17.066  0.00  0.00    +0.000 A 
ATOM      4  S   UNL     1       3.304   6.568  18.541  0.00  0.00    +0.000 S 
ATOM      5  C   UNL     1       3.483   4.852  18.543  0.00  0.00    +0.000 A 
ATOM      6  N   UNL     1       4.165   4.378  17.516  0.00  0.00    +0.000 NA
BRANCH   5   7
ATOM      7  C   UNL     1       2.849   4.015  19.577  0.00  0.00    +0.000 A 
ATOM      8  C   UNL     1       1.458   4.094  19.754  0.00  0.00    +0.000 A 
ATOM      9  C   UNL     1       0.812   3.360  20.753  0.00  0.00    +0.000 A 
ATOM     10  C   UNL     1       1.548   2.522  21.586  0.00  0.00    +0.000 A 
ATOM     11  C   UNL     1       2.925   2.407  21.410  0.00  0.00    +0.000 A 
ATOM     12  C   UNL     1       3.571   3.144  20.412  0.00  0.00    +0.000 A 
ENDBRANCH   5   7
ENDBRANCH   1   2
BRANCH   1  13
ATOM     13  S   UNL     1       6.944   4.363  15.791  0.00  0.00    +0.000 S 
BRANCH  13  19
ATOM     14  C   UNL     1       8.179   9.000  17.506  0.00  0.00    +0.000 C 
ATOM     15  C   UNL     1       7.963   7.553  17.841  0.00  0.00    +0.000 A 
ATOM     16  C   UNL     1       8.114   7.101  19.133  0.00  0.00    +0.000 A 
ATOM     17  C   UNL     1       7.887   5.761  19.323  0.00  0.00    +0.000 A 
ATOM     18  N   UNL     1       7.540   4.909  18.353  0.00  0.00    +0.000 NA
ATOM     19  C   UNL     1       7.419   5.431  17.128  0.00  0.00    +0.000 A 
ATOM     20  N   UNL     1       7.616   6.731  16.830  0.00  0.00    +0.000 NA
BRANCH  17  21
ATOM     21  O   UNL     1       7.998   5.193  20.557  0.00  0.00    +0.000 OA
ATOM     22  H   UNL     1       8.022   4.230  20.452  0.00  0.00    +0.000 HD
ENDBRANCH  17  21
ENDBRANCH  13  19
ENDBRANCH   1  13
TORSDOF 5
ENDMDL
MODEL 3
REMARK VINA RESULT:      -7.5      2.207      3.254
REMARK  Name = 
REMARK  6 active torsions:
REMARK  status: ('A' for Active; 'I' for Inactive)
REMARK    1  A    between atoms: C_1  and  C_2
REMARK    2  A    between atoms: C_4  and  O_5
REMARK    3  A    between atoms: C_7  and  S_8
REMARK    4  A    between atoms: S_8  and  C_9
REMARK    5  A    between atoms: C_9  and  C_10
REMARK    6  A    between atoms: C_13  and  C_14
REMARK                            x       y       z     vdW  Elec       q    Type
REMARK                         _______ _______ _______ _____ _____    ______ ____
ROOT
ATOM      1  C   UNL     1       4.678   4.018  16.696  0.00  0.00    +0.000 C 
ENDROOT
BRANCH   1   2
ATOM      2  C   UNL     1       3.920   4.614  17.845  0.00  0.00    +0.000 A 
ATOM      3  C   UNL     1       3.680   4.008  19.065  0.00  0.00    +0.000 A 
ATOM      4  S   UNL     1       2.768   5.043  20.074  0.00  0.00    +0.000 S 
ATOM      5  C   UNL     1       2.738   6.237  18.830  0.00  0.00    +0.000 A 
ATOM      6  N   UNL     1       3.351   5.877  17.718  0.00  0.00    +0.000 NA
BRANCH   5   7
ATOM      7  C   UNL     1       2.138   7.565  19.054  0.00  0.00    +0.000 A 
ATOM      8  C   UNL     1       1.653   7.882  20.334  0.00  0.00    +0.000 A 
ATOM      9  C   UNL     1       1.029   9.107  20.589  0.00  0.00    +0.000 A 
ATOM     10  C   UNL     1       0.891  10.043  19.568  0.00  0.00    +0.000 A 
ATOM     11  C   UNL     1       1.388   9.760  18.299  0.00  0.00    +0.000 A 
ATOM     12  C   UNL     1       2.011   8.533  18.043  0.00  0.00    +0.000 A 
ENDBRANCH   5   7
ENDBRANCH   1   2
BRANCH   1  13
ATOM     13  S   UNL     1       6.449   4.445  16.761  0.00  0.00    +0.000 S 
BRANCH  13  19
ATOM     14  C   UNL     1       5.444   2.934  11.998  0.00  0.00    +0.000 C 
ATOM     15  C   UNL     1       6.291   3.793  12.891  0.00  0.00    +0.000 A 
ATOM     16  C   UNL     1       7.274   4.601  12.364  0.00  0.00    +0.000 A 
ATOM     17  C   UNL     1       7.981   5.346  13.273  0.00  0.00    +0.000 A 
ATOM     18  N   UNL     1       7.769   5.326  14.593  0.00  0.00    +0.000 NA
ATOM     19  C   UNL     1       6.799   4.512  15.021  0.00  0.00    +0.000 A 
ATOM     20  N   UNL     1       6.042   3.739  14.216  0.00  0.00    +0.000 NA
BRANCH  17  21
ATOM     21  O   UNL     1       8.976   6.188  12.877  0.00  0.00    +0.000 OA
ATOM     22  H   UNL     1       8.826   6.429  11.951  0.00  0.00    +0.000 HD
ENDBRANCH  17  21
ENDBRANCH  13  19
ENDBRANCH   1  13
TORSDOF 5
ENDMDL
MODEL 4
REMARK VINA RESULT:      -7.5      2.833      4.120
REMARK  Name = 
REMARK  6 active torsions:
REMARK  status: ('A' for Active; 'I' for Inactive)
REMARK    1  A    between atoms: C_1  and  C_2
REMARK    2  A    between atoms: C_4  and  O_5
REMARK    3  A    between atoms: C_7  and  S_8
REMARK    4  A    between atoms: S_8  and  C_9
REMARK    5  A    between atoms: C_9  and  C_10
REMARK    6  A    between atoms: C_13  and  C_14
REMARK                            x       y       z     vdW  Elec       q    Type
REMARK                         _______ _______ _______ _____ _____    ______ ____
ROOT
ATOM      1  C   UNL     1       5.416   5.107  15.404  0.00  0.00    +0.000 C 
ENDROOT
BRANCH   1   2
ATOM      2  C   UNL     1       4.617   5.484  16.616  0.00  0.00    +0.000 A 
ATOM      3  C   UNL     1       4.287   6.769  17.008  0.00  0.00    +0.000 A 
ATOM      4  S   UNL     1       3.376   6.734  18.455  0.00  0.00    +0.000 S 
ATOM      5  C   UNL     1       3.476   5.012  18.482  0.00  0.00    +0.000 A 
ATOM      6  N   UNL     1       4.169   4.493  17.485  0.00  0.00    +0.000 NA
BRANCH   5   7
ATOM      7  C   UNL     1       2.770   4.217  19.503  0.00  0.00    +0.000 A 
ATOM      8  C   UNL     1       3.506   3.313  20.287  0.00  0.00    +0.000 A 
ATOM      9  C   UNL     1       2.878   2.499  21.234  0.00  0.00    +0.000 A 
ATOM     10  C   UNL     1       1.502   2.585  21.423  0.00  0.00    +0.000 A 
ATOM     11  C   UNL     1       0.757   3.493  20.676  0.00  0.00    +0.000 A 
ATOM     12  C   UNL     1       1.385   4.306  19.725  0.00  0.00    +0.000 A 
ENDBRANCH   5   7
ENDBRANCH   1   2
BRANCH   1  13
ATOM     13  S   UNL     1       7.011   4.352  15.856  0.00  0.00    +0.000 S 
BRANCH  13  19
ATOM     14  C   UNL     1       8.061   9.036  17.567  0.00  0.00    +0.000 C 
ATOM     15  C   UNL     1       7.941   7.577  17.895  0.00  0.00    +0.000 A 
ATOM     16  C   UNL     1       8.172   7.123  19.174  0.00  0.00    +0.000 A 
ATOM     17  C   UNL     1       8.028   5.770  19.359  0.00  0.00    +0.000 A 
ATOM     18  N   UNL     1       7.687   4.909  18.395  0.00  0.00    +0.000 NA
ATOM     19  C   UNL     1       7.484   5.433  17.182  0.00  0.00    +0.000 A 
ATOM     20  N   UNL     1       7.596   6.745  16.890  0.00  0.00    +0.000 NA
BRANCH  17  21
ATOM     21  O   UNL     1       8.225   5.199  20.580  0.00  0.00    +0.000 OA
ATOM     22  H   UNL     1       7.596   5.585  21.207  0.00  0.00    +0.000 HD
ENDBRANCH  17  21
ENDBRANCH  13  19
ENDBRANCH   1  13
TORSDOF 5
ENDMDL
MODEL 5
REMARK VINA RESULT:      -7.3      4.126      5.090
REMARK  Name = 
REMARK  6 active torsions:
REMARK  status: ('A' for Active; 'I' for Inactive)
REMARK    1  A    between atoms: C_1  and  C_2
REMARK    2  A    between atoms: C_4  and  O_5
REMARK    3  A    between atoms: C_7  and  S_8
REMARK    4  A    between atoms: S_8  and  C_9
REMARK    5  A    between atoms: C_9  and  C_10
REMARK    6  A    between atoms: C_13  and  C_14
REMARK                            x       y       z     vdW  Elec       q    Type
REMARK                         _______ _______ _______ _____ _____    ______ ____
ROOT
ATOM      1  C   UNL     1       3.196   5.379  19.538  0.00  0.00    +0.000 C 
ENDROOT
BRANCH   1   2
ATOM      2  C   UNL     1       2.572   6.730  19.348  0.00  0.00    +0.000 A 
ATOM      3  C   UNL     1       2.564   7.466  18.178  0.00  0.00    +0.000 A 
ATOM      4  S   UNL     1       1.753   8.952  18.417  0.00  0.00    +0.000 S 
ATOM      5  C   UNL     1       1.463   8.535  20.065  0.00  0.00    +0.000 A 
ATOM      6  N   UNL     1       1.963   7.367  20.425  0.00  0.00    +0.000 NA
BRANCH   5   7
ATOM      7  C   UNL     1       0.655   9.398  20.946  0.00  0.00    +0.000 A 
ATOM      8  C   UNL     1       0.497   9.033  22.293  0.00  0.00    +0.000 A 
ATOM      9  C   UNL     1      -0.300   9.788  23.159  0.00  0.00    +0.000 A 
ATOM     10  C   UNL     1      -0.944  10.931  22.693  0.00  0.00    +0.000 A 
ATOM     11  C   UNL     1      -0.779  11.326  21.368  0.00  0.00    +0.000 A 
ATOM     12  C   UNL     1       0.016  10.568  20.501  0.00  0.00    +0.000 A 
ENDBRANCH   5   7
ENDBRANCH   1   2
BRANCH   1  13
ATOM     13  S   UNL     1       3.010   4.335  18.055  0.00  0.00    +0.000 S 
BRANCH  13  19
ATOM     14  C   UNL     1       6.313   4.015  14.187  0.00  0.00    +0.000 C 
ATOM     15  C   UNL     1       6.120   4.231  15.660  0.00  0.00    +0.000 A 
ATOM     16  C   UNL     1       7.198   4.470  16.483  0.00  0.00    +0.000 A 
ATOM     17  C   UNL     1       6.903   4.657  17.810  0.00  0.00    +0.000 A 
ATOM     18  N   UNL     1       5.668   4.621  18.320  0.00  0.00    +0.000 NA
ATOM     19  C   UNL     1       4.679   4.380  17.452  0.00  0.00    +0.000 A 
ATOM     20  N   UNL     1       4.856   4.184  16.130  0.00  0.00    +0.000 NA
BRANCH  17  21
ATOM     21  O   UNL     1       7.882   4.906  18.724  0.00  0.00    +0.000 OA
ATOM     22  H   UNL     1       7.669   4.433  19.542  0.00  0.00    +0.000 HD
ENDBRANCH  17  21
ENDBRANCH  13  19
ENDBRANCH   1  13
TORSDOF 5
ENDMDL
MODEL 6
REMARK VINA RESULT:      -7.3      4.257      5.497
REMARK  Name = 
REMARK  6 active torsions:
REMARK  status: ('A' for Active; 'I' for Inactive)
REMARK    1  A    between atoms: C_1  and  C_2
REMARK    2  A    between atoms: C_4  and  O_5
REMARK    3  A    between atoms: C_7  and  S_8
REMARK    4  A    between atoms: S_8  and  C_9
REMARK    5  A    between atoms: C_9  and  C_10
REMARK    6  A    between atoms: C_13  and  C_14
REMARK                            x       y       z     vdW  Elec       q    Type
REMARK                         _______ _______ _______ _____ _____    ______ ____
ROOT
ATOM      1  C   UNL     1       2.713   5.921  18.187  0.00  0.00    +0.000 C 
ENDROOT
BRANCH   1   2
ATOM      2  C   UNL     1       2.277   7.333  18.443  0.00  0.00    +0.000 A 
ATOM      3  C   UNL     1       2.412   8.398  17.572  0.00  0.00    +0.000 A 
ATOM      4  S   UNL     1       1.791   9.826  18.277  0.00  0.00    +0.000 S 
ATOM      5  C   UNL     1       1.381   8.949  19.705  0.00  0.00    +0.000 A 
ATOM      6  N   UNL     1       1.711   7.671  19.669  0.00  0.00    +0.000 NA
BRANCH   5   7
ATOM      7  C   UNL     1       0.656   9.588  20.818  0.00  0.00    +0.000 A 
ATOM      8  C   UNL     1       0.526   8.890  22.031  0.00  0.00    +0.000 A 
ATOM      9  C   UNL     1      -0.194   9.428  23.101  0.00  0.00    +0.000 A 
ATOM     10  C   UNL     1      -0.789  10.681  22.980  0.00  0.00    +0.000 A 
ATOM     11  C   UNL     1      -0.651  11.400  21.796  0.00  0.00    +0.000 A 
ATOM     12  C   UNL     1       0.069  10.861  20.724  0.00  0.00    +0.000 A 
ENDBRANCH   5   7
ENDBRANCH   1   2
BRANCH   1  13
ATOM     13  S   UNL     1       3.598   5.218  19.616  0.00  0.00    +0.000 S 
BRANCH  13  19
ATOM     14  C   UNL     1       6.556   4.150  15.605  0.00  0.00    +0.000 C 
ATOM     15  C   UNL     1       6.495   4.552  17.050  0.00  0.00    +0.000 A 
ATOM     16  C   UNL     1       7.650   4.786  17.763  0.00  0.00    +0.000 A 
ATOM     17  C   UNL     1       7.474   5.152  19.074  0.00  0.00    +0.000 A 
ATOM     18  N   UNL     1       6.283   5.289  19.666  0.00  0.00    +0.000 NA
ATOM     19  C   UNL     1       5.214   5.040  18.902  0.00  0.00    +0.000 A 
ATOM     20  N   UNL     1       5.272   4.676  17.605  0.00  0.00    +0.000 NA
BRANCH  17  21
ATOM     21  O   UNL     1       8.538   5.416  19.883  0.00  0.00    +0.000 OA
ATOM     22  H   UNL     1       8.321   6.179  20.440  0.00  0.00    +0.000 HD
ENDBRANCH  17  21
ENDBRANCH  13  19
ENDBRANCH   1  13
TORSDOF 5
ENDMDL
MODEL 7
REMARK VINA RESULT:      -7.2      2.659      3.460
REMARK  Name = 
REMARK  6 active torsions:
REMARK  status: ('A' for Active; 'I' for Inactive)
REMARK    1  A    between atoms: C_1  and  C_2
REMARK    2  A    between atoms: C_4  and  O_5
REMARK    3  A    between atoms: C_7  and  S_8
REMARK    4  A    between atoms: S_8  and  C_9
REMARK    5  A    between atoms: C_9  and  C_10
REMARK    6  A    between atoms: C_13  and  C_14
REMARK                            x       y       z     vdW  Elec       q    Type
REMARK                         _______ _______ _______ _____ _____    ______ ____
ROOT
ATOM      1  C   UNL     1       5.190   6.173  16.601  0.00  0.00    +0.000 C 
ENDROOT
BRANCH   1   2
ATOM      2  C   UNL     1       4.156   6.292  17.681  0.00  0.00    +0.000 A 
ATOM      3  C   UNL     1       3.848   5.330  18.624  0.00  0.00    +0.000 A 
ATOM      4  S   UNL     1       2.600   5.884  19.654  0.00  0.00    +0.000 S 
ATOM      5  C   UNL     1       2.535   7.371  18.783  0.00  0.00    +0.000 A 
ATOM      6  N   UNL     1       3.377   7.442  17.768  0.00  0.00    +0.000 NA
BRANCH   5   7
ATOM      7  C   UNL     1       1.658   8.475  19.212  0.00  0.00    +0.000 A 
ATOM      8  C   UNL     1       1.248   8.532  20.555  0.00  0.00    +0.000 A 
ATOM      9  C   UNL     1       0.376   9.527  21.004  0.00  0.00    +0.000 A 
ATOM     10  C   UNL     1      -0.093  10.494  20.118  0.00  0.00    +0.000 A 
ATOM     11  C   UNL     1       0.322  10.472  18.789  0.00  0.00    +0.000 A 
ATOM     12  C   UNL     1       1.193   9.474  18.339  0.00  0.00    +0.000 A 
ENDBRANCH   5   7
ENDBRANCH   1   2
BRANCH   1  13
ATOM     13  S   UNL     1       5.928   4.508  16.554  0.00  0.00    +0.000 S 
BRANCH  13  19
ATOM     14  C   UNL     1       5.613   2.733  11.787  0.00  0.00    +0.000 C 
ATOM     15  C   UNL     1       6.315   3.655  12.740  0.00  0.00    +0.000 A 
ATOM     16  C   UNL     1       7.349   4.457  12.309  0.00  0.00    +0.000 A 
ATOM     17  C   UNL     1       7.913   5.263  13.266  0.00  0.00    +0.000 A 
ATOM     18  N   UNL     1       7.522   5.305  14.544  0.00  0.00    +0.000 NA
ATOM     19  C   UNL     1       6.514   4.493  14.878  0.00  0.00    +0.000 A 
ATOM     20  N   UNL     1       5.887   3.663  14.019  0.00  0.00    +0.000 NA
BRANCH  17  21
ATOM     21  O   UNL     1       8.941   6.106  12.965  0.00  0.00    +0.000 OA
ATOM     22  H   UNL     1       9.710   5.576  12.709  0.00  0.00    +0.000 HD
ENDBRANCH  17  21
ENDBRANCH  13  19
ENDBRANCH   1  13
TORSDOF 5
ENDMDL
MODEL 8
REMARK VINA RESULT:      -7.2      4.249      5.550
REMARK  Name = 
REMARK  6 active torsions:
REMARK  status: ('A' for Active; 'I' for Inactive)
REMARK    1  A    between atoms: C_1  and  C_2
REMARK    2  A    between atoms: C_4  and  O_5
REMARK    3  A    between atoms: C_7  and  S_8
REMARK    4  A    between atoms: S_8  and  C_9
REMARK    5  A    between atoms: C_9  and  C_10
REMARK    6  A    between atoms: C_13  and  C_14
REMARK                            x       y       z     vdW  Elec       q    Type
REMARK                         _______ _______ _______ _____ _____    ______ ____
ROOT
ATOM      1  C   UNL     1       3.027   5.917  19.434  0.00  0.00    +0.000 C 
ENDROOT
BRANCH   1   2
ATOM      2  C   UNL     1       2.344   7.246  19.301  0.00  0.00    +0.000 A 
ATOM      3  C   UNL     1       2.248   8.002  18.148  0.00  0.00    +0.000 A 
ATOM      4  S   UNL     1       1.395   9.451  18.455  0.00  0.00    +0.000 S 
ATOM      5  C   UNL     1       1.204   8.994  20.107  0.00  0.00    +0.000 A 
ATOM      6  N   UNL     1       1.766   7.841  20.419  0.00  0.00    +0.000 NA
BRANCH   5   7
ATOM      7  C   UNL     1       0.409   9.810  21.043  0.00  0.00    +0.000 A 
ATOM      8  C   UNL     1       0.113   9.288  22.313  0.00  0.00    +0.000 A 
ATOM      9  C   UNL     1      -0.679   9.998  23.220  0.00  0.00    +0.000 A 
ATOM     10  C   UNL     1      -1.179  11.251  22.876  0.00  0.00    +0.000 A 
ATOM     11  C   UNL     1      -0.876  11.798  21.632  0.00  0.00    +0.000 A 
ATOM     12  C   UNL     1      -0.085  11.087  20.723  0.00  0.00    +0.000 A 
ENDBRANCH   5   7
ENDBRANCH   1   2
BRANCH   1  13
ATOM     13  S   UNL     1       2.826   4.902  17.934  0.00  0.00    +0.000 S 
BRANCH  13  19
ATOM     14  C   UNL     1       7.760   5.848  18.795  0.00  0.00    +0.000 C 
ATOM     15  C   UNL     1       6.738   5.241  17.878  0.00  0.00    +0.000 A 
ATOM     16  C   UNL     1       7.124   4.613  16.714  0.00  0.00    +0.000 A 
ATOM     17  C   UNL     1       6.105   4.091  15.956  0.00  0.00    +0.000 A 
ATOM     18  N   UNL     1       4.811   4.159  16.283  0.00  0.00    +0.000 NA
ATOM     19  C   UNL     1       4.524   4.788  17.427  0.00  0.00    +0.000 A 
ATOM     20  N   UNL     1       5.444   5.335  18.247  0.00  0.00    +0.000 NA
BRANCH  17  21
ATOM     21  O   UNL     1       6.357   3.441  14.786  0.00  0.00    +0.000 OA
ATOM     22  H   UNL     1       6.821   2.615  14.984  0.00  0.00    +0.000 HD
ENDBRANCH  17  21
ENDBRANCH  13  19
ENDBRANCH   1  13
TORSDOF 5
ENDMDL
MODEL 9
REMARK VINA RESULT:      -7.2      4.053      5.411
REMARK  Name = 
REMARK  6 active torsions:
REMARK  status: ('A' for Active; 'I' for Inactive)
REMARK    1  A    between atoms: C_1  and  C_2
REMARK    2  A    between atoms: C_4  and  O_5
REMARK    3  A    between atoms: C_7  and  S_8
REMARK    4  A    between atoms: S_8  and  C_9
REMARK    5  A    between atoms: C_9  and  C_10
REMARK    6  A    between atoms: C_13  and  C_14
REMARK                            x       y       z     vdW  Elec       q    Type
REMARK                         _______ _______ _______ _____ _____    ______ ____
ROOT
ATOM      1  C   UNL     1       3.066   5.344  19.593  0.00  0.00    +0.000 C 
ENDROOT
BRANCH   1   2
ATOM      2  C   UNL     1       2.483   6.716  19.422  0.00  0.00    +0.000 A 
ATOM      3  C   UNL     1       2.541   7.488  18.277  0.00  0.00    +0.000 A 
ATOM      4  S   UNL     1       1.756   8.986  18.530  0.00  0.00    +0.000 S 
ATOM      5  C   UNL     1       1.388   8.525  20.151  0.00  0.00    +0.000 A 
ATOM      6  N   UNL     1       1.845   7.334  20.493  0.00  0.00    +0.000 NA
BRANCH   5   7
ATOM      7  C   UNL     1       0.565   9.380  21.025  0.00  0.00    +0.000 A 
ATOM      8  C   UNL     1       0.089  10.603  20.522  0.00  0.00    +0.000 A 
ATOM      9  C   UNL     1      -0.653  11.475  21.324  0.00  0.00    +0.000 A 
ATOM     10  C   UNL     1      -0.942  11.133  22.642  0.00  0.00    +0.000 A 
ATOM     11  C   UNL     1      -0.502   9.914  23.152  0.00  0.00    +0.000 A 
ATOM     12  C   UNL     1       0.243   9.042  22.350  0.00  0.00    +0.000 A 
ENDBRANCH   5   7
ENDBRANCH   1   2
BRANCH   1  13
ATOM     13  S   UNL     1       2.915   4.351  18.073  0.00  0.00    +0.000 S 
BRANCH  13  19
ATOM     14  C   UNL     1       7.776   5.682  18.830  0.00  0.00    +0.000 C 
ATOM     15  C   UNL     1       6.773   5.063  17.901  0.00  0.00    +0.000 A 
ATOM     16  C   UNL     1       7.160   4.579  16.670  0.00  0.00    +0.000 A 
ATOM     17  C   UNL     1       6.160   4.031  15.907  0.00  0.00    +0.000 A 
ATOM     18  N   UNL     1       4.881   3.947  16.287  0.00  0.00    +0.000 NA
ATOM     19  C   UNL     1       4.591   4.443  17.494  0.00  0.00    +0.000 A 
ATOM     20  N   UNL     1       5.494   5.001  18.326  0.00  0.00    +0.000 NA
BRANCH  17  21
ATOM     21  O   UNL     1       6.415   3.514  14.673  0.00  0.00    +0.000 OA
ATOM     22  H   UNL     1       5.937   2.676  14.584  0.00  0.00    +0.000 HD
ENDBRANCH  17  21
ENDBRANCH  13  19
ENDBRANCH   1  13
TORSDOF 5
ENDMDL
