MODEL 1
REMARK VINA RESULT:      -7.8      0.000      0.000
REMARK  Name = 
REMARK  12 active torsions:
REMARK  status: ('A' for Active; 'I' for Inactive)
REMARK    1  A    between atoms: C_2  and  C_26
REMARK    2  A    between atoms: N_3  and  N_4
REMARK    3  A    between atoms: C_5  and  C_6
REMARK    4  A    between atoms: C_6  and  C_7
REMARK    5  A    between atoms: C_8  and  O_9
REMARK    6  A    between atoms: C_11  and  O_12
REMARK    7  A    between atoms: C_13  and  C_14
REMARK    8  A    between atoms: C_15  and  C_16
REMARK    9  A    between atoms: C_16  and  O_17
REMARK   10  A    between atoms: C_16  and  C_18
REMARK   11  A    between atoms: C_18  and  O_19
REMARK   12  A    between atoms: O_19  and  C_20
REMARK                            x       y       z     vdW  Elec       q    Type
REMARK                         _______ _______ _______ _____ _____    ______ ____
ROOT
ATOM      1  C   UNL     1       2.617   4.218  20.094  0.00  0.00    +0.000 C 
ATOM      2  C   UNL     1       1.778   2.922  20.147  0.00  0.00    +0.000 C 
ATOM      3  C   UNL     1       1.070   2.785  18.804  0.00  0.00    +0.000 C 
ATOM      4  C   UNL     1       1.879   3.625  17.832  0.00  0.00    +0.000 C 
ATOM      5  C   UNL     1       2.447   4.787  18.664  0.00  0.00    +0.000 C 
ENDROOT
BRANCH   2   6
ATOM      6  O   UNL     1       0.844   2.883  21.215  0.00  0.00    +0.000 OA
ATOM      7  H   UNL     1       0.862   1.966  21.562  0.00  0.00    +0.000 HD
ENDBRANCH   2   6
BRANCH   4   8
ATOM      8  O   UNL     1       1.047   4.106  16.781  0.00  0.00    +0.000 OA
ATOM      9  H   UNL     1       0.992   5.080  16.871  0.00  0.00    +0.000 HD
ENDBRANCH   4   8
BRANCH   5  10
ATOM     10  C   UNL     1       3.761   5.282  18.104  0.00  0.00    +0.000 C 
ATOM     11  C   UNL     1       4.975   4.858  18.497  0.00  0.00    +0.000 C 
BRANCH  11  12
ATOM     12  C   UNL     1       6.286   5.367  17.948  0.00  0.00    +0.000 C 
BRANCH  12  13
ATOM     13  O   UNL     1       7.261   4.322  18.003  0.00  0.00    +0.000 OA
ATOM     14  H   UNL     1       8.129   4.749  18.114  0.00  0.00    +0.000 HD
ENDBRANCH  12  13
BRANCH  12  15
ATOM     15  C   UNL     1       6.146   5.884  16.502  0.00  0.00    +0.000 C 
BRANCH  15  16
ATOM     16  O   UNL     1       7.304   5.499  15.751  0.00  0.00    +0.000 OA
BRANCH  16  17
ATOM     17  C   UNL     1       7.064   4.953  14.520  0.00  0.00    +0.000 A 
ATOM     18  C   UNL     1       5.989   4.062  14.463  0.00  0.00    +0.000 A 
ATOM     19  C   UNL     1       5.655   3.433  13.262  0.00  0.00    +0.000 A 
ATOM     20  C   UNL     1       6.384   3.707  12.107  0.00  0.00    +0.000 A 
ATOM     21  C   UNL     1       7.439   4.616  12.154  0.00  0.00    +0.000 A 
ATOM     22  C   UNL     1       7.778   5.241  13.357  0.00  0.00    +0.000 A 
ENDBRANCH  16  17
ENDBRANCH  15  16
ENDBRANCH  12  15
ENDBRANCH  11  12
ENDBRANCH   5  10
BRANCH   1  23
ATOM     23  C   UNL     1       2.363   5.254  21.203  0.00  0.00    +0.000 C 
BRANCH  23  25
ATOM     24  N   UNL     1       1.944   7.617  20.801  0.00  0.00    +0.000 NA
ATOM     25  C   UNL     1       1.465   6.419  20.841  0.00  0.00    +0.000 C 
BRANCH  24  28
ATOM     26  O   UNL     1       1.205   9.529  22.599  0.00  0.00    +0.000 OA
ATOM     27  C   UNL     1       0.785   9.553  21.445  0.00  0.00    +0.000 C 
ATOM     28  N   UNL     1       1.110   8.627  20.464  0.00  0.00    +0.000 N 
ATOM     29  H   UNL     1       0.811   8.734  19.501  0.00  0.00    +0.000 HD
BRANCH  27  30
ATOM     30  C   UNL     1      -0.121  10.646  21.026  0.00  0.00    +0.000 A 
ATOM     31  C   UNL     1      -0.372  11.682  21.926  0.00  0.00    +0.000 A 
ATOM     32  C   UNL     1      -1.233  12.686  21.528  0.00  0.00    +0.000 A 
ATOM     33  N   UNL     1      -1.845  12.713  20.325  0.00  0.00    +0.000 NA
ATOM     34  C   UNL     1      -1.598  11.685  19.484  0.00  0.00    +0.000 A 
ATOM     35  C   UNL     1      -0.752  10.636  19.782  0.00  0.00    +0.000 A 
ENDBRANCH  27  30
ENDBRANCH  24  28
ENDBRANCH  23  25
ENDBRANCH   1  23
TORSDOF 12
ENDMDL
MODEL 2
REMARK VINA RESULT:      -7.8      4.978      8.674
REMARK  Name = 
REMARK  12 active torsions:
REMARK  status: ('A' for Active; 'I' for Inactive)
REMARK    1  A    between atoms: C_2  and  C_26
REMARK    2  A    between atoms: N_3  and  N_4
REMARK    3  A    between atoms: C_5  and  C_6
REMARK    4  A    between atoms: C_6  and  C_7
REMARK    5  A    between atoms: C_8  and  O_9
REMARK    6  A    between atoms: C_11  and  O_12
REMARK    7  A    between atoms: C_13  and  C_14
REMARK    8  A    between atoms: C_15  and  C_16
REMARK    9  A    between atoms: C_16  and  O_17
REMARK   10  A    between atoms: C_16  and  C_18
REMARK   11  A    between atoms: C_18  and  O_19
REMARK   12  A    between atoms: O_19  and  C_20
REMARK                            x       y       z     vdW  Elec       q    Type
REMARK                         _______ _______ _______ _____ _____    ______ ____
ROOT
ATOM      1  C   UNL     1       6.053   6.018  17.043  0.00  0.00    +0.000 C 
ATOM      2  C   UNL     1       6.289   5.339  15.675  0.00  0.00    +0.000 C 
ATOM      3  C   UNL     1       5.676   3.946  15.749  0.00  0.00    +0.000 C 
ATOM      4  C   UNL     1       4.654   4.011  16.870  0.00  0.00    +0.000 C 
ATOM      5  C   UNL     1       5.218   5.022  17.884  0.00  0.00    +0.000 C 
ENDROOT
BRANCH   2   6
ATOM      6  O   UNL     1       7.655   5.268  15.295  0.00  0.00    +0.000 OA
ATOM      7  H   UNL     1       8.175   5.359  16.122  0.00  0.00    +0.000 HD
ENDBRANCH   2   6
BRANCH   4   8
ATOM      8  O   UNL     1       4.487   2.728  17.464  0.00  0.00    +0.000 OA
ATOM      9  H   UNL     1       3.830   2.821  18.185  0.00  0.00    +0.000 HD
ENDBRANCH   4   8
BRANCH   5  10
ATOM     10  C   UNL     1       4.114   5.725  18.641  0.00  0.00    +0.000 C 
ATOM     11  C   UNL     1       3.194   6.533  18.088  0.00  0.00    +0.000 C 
BRANCH  11  12
ATOM     12  C   UNL     1       2.103   7.248  18.851  0.00  0.00    +0.000 C 
BRANCH  12  13
ATOM     13  O   UNL     1       2.422   7.248  20.245  0.00  0.00    +0.000 OA
ATOM     14  H   UNL     1       2.527   8.179  20.512  0.00  0.00    +0.000 HD
ENDBRANCH  12  13
BRANCH  12  15
ATOM     15  C   UNL     1       1.902   8.693  18.353  0.00  0.00    +0.000 C 
BRANCH  15  16
ATOM     16  O   UNL     1       1.389   9.492  19.427  0.00  0.00    +0.000 OA
BRANCH  16  17
ATOM     17  C   UNL     1       0.615  10.559  19.060  0.00  0.00    +0.000 A 
ATOM     18  C   UNL     1      -0.621  10.233  18.497  0.00  0.00    +0.000 A 
ATOM     19  C   UNL     1      -1.492  11.239  18.073  0.00  0.00    +0.000 A 
ATOM     20  C   UNL     1      -1.138  12.577  18.229  0.00  0.00    +0.000 A 
ATOM     21  C   UNL     1       0.081  12.906  18.816  0.00  0.00    +0.000 A 
ATOM     22  C   UNL     1       0.957  11.900  19.234  0.00  0.00    +0.000 A 
ENDBRANCH  16  17
ENDBRANCH  15  16
ENDBRANCH  12  15
ENDBRANCH  11  12
ENDBRANCH   5  10
BRANCH   1  23
ATOM     23  C   UNL     1       7.297   6.551  17.776  0.00  0.00    +0.000 C 
BRANCH  23  25
ATOM     24  N   UNL     1       8.323   8.694  18.301  0.00  0.00    +0.000 NA
ATOM     25  C   UNL     1       7.734   7.957  17.420  0.00  0.00    +0.000 C 
BRANCH  24  28
ATOM     26  O   UNL     1       9.504  10.403  20.067  0.00  0.00    +0.000 OA
ATOM     27  C   UNL     1       9.295  10.742  18.906  0.00  0.00    +0.000 C 
ATOM     28  N   UNL     1       8.705   9.940  17.939  0.00  0.00    +0.000 N 
ATOM     29  H   UNL     1       8.632  10.229  16.970  0.00  0.00    +0.000 HD
BRANCH  27  30
ATOM     30  C   UNL     1       9.706  12.093  18.459  0.00  0.00    +0.000 A 
ATOM     31  C   UNL     1       8.987  13.194  18.927  0.00  0.00    +0.000 A 
ATOM     32  C   UNL     1       9.372  14.446  18.489  0.00  0.00    +0.000 A 
ATOM     33  N   UNL     1      10.393  14.658  17.632  0.00  0.00    +0.000 NA
ATOM     34  C   UNL     1      11.055  13.570  17.180  0.00  0.00    +0.000 A 
ATOM     35  C   UNL     1      10.755  12.277  17.559  0.00  0.00    +0.000 A 
ENDBRANCH  27  30
ENDBRANCH  24  28
ENDBRANCH  23  25
ENDBRANCH   1  23
TORSDOF 12
ENDMDL
MODEL 3
REMARK VINA RESULT:      -7.7      1.187      1.230
REMARK  Name = 
REMARK  12 active torsions:
REMARK  status: ('A' for Active; 'I' for Inactive)
REMARK    1  A    between atoms: C_2  and  C_26
REMARK    2  A    between atoms: N_3  and  N_4
REMARK    3  A    between atoms: C_5  and  C_6
REMARK    4  A    between atoms: C_6  and  C_7
REMARK    5  A    between atoms: C_8  and  O_9
REMARK    6  A    between atoms: C_11  and  O_12
REMARK    7  A    between atoms: C_13  and  C_14
REMARK    8  A    between atoms: C_15  and  C_16
REMARK    9  A    between atoms: C_16  and  O_17
REMARK   10  A    between atoms: C_16  and  C_18
REMARK   11  A    between atoms: C_18  and  O_19
REMARK   12  A    between atoms: O_19  and  C_20
REMARK                            x       y       z     vdW  Elec       q    Type
REMARK                         _______ _______ _______ _____ _____    ______ ____
ROOT
ATOM      1  C   UNL     1       3.224   4.080  19.980  0.00  0.00    +0.000 C 
ATOM      2  C   UNL     1       2.623   2.676  20.213  0.00  0.00    +0.000 C 
ATOM      3  C   UNL     1       2.148   2.157  18.861  0.00  0.00    +0.000 C 
ATOM      4  C   UNL     1       2.930   2.946  17.826  0.00  0.00    +0.000 C 
ATOM      5  C   UNL     1       3.165   4.331  18.453  0.00  0.00    +0.000 C 
ENDROOT
BRANCH   2   6
ATOM      6  O   UNL     1       1.566   2.652  21.161  0.00  0.00    +0.000 OA
ATOM      7  H   UNL     1       0.737   2.777  20.651  0.00  0.00    +0.000 HD
ENDBRANCH   2   6
BRANCH   4   8
ATOM      8  O   UNL     1       2.187   3.051  16.616  0.00  0.00    +0.000 OA
ATOM      9  H   UNL     1       1.678   3.887  16.655  0.00  0.00    +0.000 HD
ENDBRANCH   4   8
BRANCH   5  10
ATOM     10  C   UNL     1       4.441   4.964  17.945  0.00  0.00    +0.000 C 
ATOM     11  C   UNL     1       5.676   4.468  18.136  0.00  0.00    +0.000 C 
BRANCH  11  12
ATOM     12  C   UNL     1       6.949   5.112  17.641  0.00  0.00    +0.000 C 
BRANCH  12  13
ATOM     13  O   UNL     1       7.925   4.098  17.386  0.00  0.00    +0.000 OA
ATOM     14  H   UNL     1       7.449   3.249  17.346  0.00  0.00    +0.000 HD
ENDBRANCH  12  13
BRANCH  12  15
ATOM     15  C   UNL     1       6.716   5.953  16.371  0.00  0.00    +0.000 C 
BRANCH  15  16
ATOM     16  O   UNL     1       7.690   5.592  15.383  0.00  0.00    +0.000 OA
BRANCH  16  17
ATOM     17  C   UNL     1       7.205   4.964  14.268  0.00  0.00    +0.000 A 
ATOM     18  C   UNL     1       6.011   4.263  14.452  0.00  0.00    +0.000 A 
ATOM     19  C   UNL     1       5.426   3.571  13.388  0.00  0.00    +0.000 A 
ATOM     20  C   UNL     1       6.025   3.595  12.131  0.00  0.00    +0.000 A 
ATOM     21  C   UNL     1       7.201   4.317  11.937  0.00  0.00    +0.000 A 
ATOM     22  C   UNL     1       7.790   5.003  13.002  0.00  0.00    +0.000 A 
ENDBRANCH  16  17
ENDBRANCH  15  16
ENDBRANCH  12  15
ENDBRANCH  11  12
ENDBRANCH   5  10
BRANCH   1  23
ATOM     23  C   UNL     1       2.640   5.232  20.817  0.00  0.00    +0.000 C 
BRANCH  23  25
ATOM     24  N   UNL     1       1.524   7.385  20.614  0.00  0.00    +0.000 NA
ATOM     25  C   UNL     1       2.274   6.492  20.060  0.00  0.00    +0.000 C 
BRANCH  24  28
ATOM     26  O   UNL     1      -0.030   9.372  21.649  0.00  0.00    +0.000 OA
ATOM     27  C   UNL     1       0.427   9.457  20.512  0.00  0.00    +0.000 C 
ATOM     28  N   UNL     1       1.229   8.500  19.907  0.00  0.00    +0.000 N 
ATOM     29  H   UNL     1       1.658   8.650  19.000  0.00  0.00    +0.000 HD
BRANCH  27  30
ATOM     30  C   UNL     1       0.141  10.663  19.703  0.00  0.00    +0.000 A 
ATOM     31  C   UNL     1       1.098  11.679  19.666  0.00  0.00    +0.000 A 
ATOM     32  C   UNL     1       0.811  12.806  18.921  0.00  0.00    +0.000 A 
ATOM     33  N   UNL     1      -0.342  12.978  18.239  0.00  0.00    +0.000 NA
ATOM     34  C   UNL     1      -1.256  11.987  18.314  0.00  0.00    +0.000 A 
ATOM     35  C   UNL     1      -1.067  10.820  19.025  0.00  0.00    +0.000 A 
ENDBRANCH  27  30
ENDBRANCH  24  28
ENDBRANCH  23  25
ENDBRANCH   1  23
TORSDOF 12
ENDMDL
MODEL 4
REMARK VINA RESULT:      -7.6      4.998      8.725
REMARK  Name = 
REMARK  12 active torsions:
REMARK  status: ('A' for Active; 'I' for Inactive)
REMARK    1  A    between atoms: C_2  and  C_26
REMARK    2  A    between atoms: N_3  and  N_4
REMARK    3  A    between atoms: C_5  and  C_6
REMARK    4  A    between atoms: C_6  and  C_7
REMARK    5  A    between atoms: C_8  and  O_9
REMARK    6  A    between atoms: C_11  and  O_12
REMARK    7  A    between atoms: C_13  and  C_14
REMARK    8  A    between atoms: C_15  and  C_16
REMARK    9  A    between atoms: C_16  and  O_17
REMARK   10  A    between atoms: C_16  and  C_18
REMARK   11  A    between atoms: C_18  and  O_19
REMARK   12  A    between atoms: O_19  and  C_20
REMARK                            x       y       z     vdW  Elec       q    Type
REMARK                         _______ _______ _______ _____ _____    ______ ____
ROOT
ATOM      1  C   UNL     1       6.119   6.161  17.021  0.00  0.00    +0.000 C 
ATOM      2  C   UNL     1       6.310   5.457  15.659  0.00  0.00    +0.000 C 
ATOM      3  C   UNL     1       5.656   4.085  15.762  0.00  0.00    +0.000 C 
ATOM      4  C   UNL     1       4.657   4.196  16.900  0.00  0.00    +0.000 C 
ATOM      5  C   UNL     1       5.269   5.202  17.890  0.00  0.00    +0.000 C 
ENDROOT
BRANCH   2   6
ATOM      6  O   UNL     1       7.666   5.340  15.256  0.00  0.00    +0.000 OA
ATOM      7  H   UNL     1       8.008   6.255  15.174  0.00  0.00    +0.000 HD
ENDBRANCH   2   6
BRANCH   4   8
ATOM      8  O   UNL     1       4.461   2.926  17.514  0.00  0.00    +0.000 OA
ATOM      9  H   UNL     1       5.028   2.281  17.044  0.00  0.00    +0.000 HD
ENDBRANCH   4   8
BRANCH   5  10
ATOM     10  C   UNL     1       4.201   5.948  18.657  0.00  0.00    +0.000 C 
ATOM     11  C   UNL     1       3.104   6.500  18.111  0.00  0.00    +0.000 C 
BRANCH  11  12
ATOM     12  C   UNL     1       2.048   7.260  18.878  0.00  0.00    +0.000 C 
BRANCH  12  13
ATOM     13  O   UNL     1       2.405   7.301  20.262  0.00  0.00    +0.000 OA
ATOM     14  H   UNL     1       3.374   7.215  20.308  0.00  0.00    +0.000 HD
ENDBRANCH  12  13
BRANCH  12  15
ATOM     15  C   UNL     1       1.859   8.692  18.338  0.00  0.00    +0.000 C 
BRANCH  15  16
ATOM     16  O   UNL     1       1.353   9.527  19.387  0.00  0.00    +0.000 OA
BRANCH  16  17
ATOM     17  C   UNL     1       0.166  10.157  19.129  0.00  0.00    +0.000 A 
ATOM     18  C   UNL     1      -0.303  10.985  20.152  0.00  0.00    +0.000 A 
ATOM     19  C   UNL     1      -1.510  11.672  20.008  0.00  0.00    +0.000 A 
ATOM     20  C   UNL     1      -2.245  11.548  18.831  0.00  0.00    +0.000 A 
ATOM     21  C   UNL     1      -1.767  10.745  17.798  0.00  0.00    +0.000 A 
ATOM     22  C   UNL     1      -0.562  10.052  17.944  0.00  0.00    +0.000 A 
ENDBRANCH  16  17
ENDBRANCH  15  16
ENDBRANCH  12  15
ENDBRANCH  11  12
ENDBRANCH   5  10
BRANCH   1  23
ATOM     23  C   UNL     1       7.391   6.666  17.725  0.00  0.00    +0.000 C 
BRANCH  23  25
ATOM     24  N   UNL     1       8.463   8.753  18.367  0.00  0.00    +0.000 NA
ATOM     25  C   UNL     1       7.753   8.119  17.496  0.00  0.00    +0.000 C 
BRANCH  24  28
ATOM     26  O   UNL     1       9.514  10.372  20.293  0.00  0.00    +0.000 OA
ATOM     27  C   UNL     1       9.298  10.797  19.162  0.00  0.00    +0.000 C 
ATOM     28  N   UNL     1       8.771  10.047  18.120  0.00  0.00    +0.000 N 
ATOM     29  H   UNL     1       8.692  10.413  17.178  0.00  0.00    +0.000 HD
BRANCH  27  30
ATOM     30  C   UNL     1       9.630  12.204  18.839  0.00  0.00    +0.000 A 
ATOM     31  C   UNL     1       8.649  12.997  18.244  0.00  0.00    +0.000 A 
ATOM     32  C   UNL     1       8.977  14.302  17.933  0.00  0.00    +0.000 A 
ATOM     33  N   UNL     1      10.192  14.843  18.167  0.00  0.00    +0.000 NA
ATOM     34  C   UNL     1      11.127  14.043  18.724  0.00  0.00    +0.000 A 
ATOM     35  C   UNL     1      10.900  12.728  19.076  0.00  0.00    +0.000 A 
ENDBRANCH  27  30
ENDBRANCH  24  28
ENDBRANCH  23  25
ENDBRANCH   1  23
TORSDOF 12
ENDMDL
MODEL 5
REMARK VINA RESULT:      -7.6      4.308      8.588
REMARK  Name = 
REMARK  12 active torsions:
REMARK  status: ('A' for Active; 'I' for Inactive)
REMARK    1  A    between atoms: C_2  and  C_26
REMARK    2  A    between atoms: N_3  and  N_4
REMARK    3  A    between atoms: C_5  and  C_6
REMARK    4  A    between atoms: C_6  and  C_7
REMARK    5  A    between atoms: C_8  and  O_9
REMARK    6  A    between atoms: C_11  and  O_12
REMARK    7  A    between atoms: C_13  and  C_14
REMARK    8  A    between atoms: C_15  and  C_16
REMARK    9  A    between atoms: C_16  and  O_17
REMARK   10  A    between atoms: C_16  and  C_18
REMARK   11  A    between atoms: C_18  and  O_19
REMARK   12  A    between atoms: O_19  and  C_20
REMARK                            x       y       z     vdW  Elec       q    Type
REMARK                         _______ _______ _______ _____ _____    ______ ____
ROOT
ATOM      1  C   UNL     1       3.693   5.347  17.397  0.00  0.00    +0.000 C 
ATOM      2  C   UNL     1       3.371   3.907  17.854  0.00  0.00    +0.000 C 
ATOM      3  C   UNL     1       2.874   3.988  19.292  0.00  0.00    +0.000 C 
ATOM      4  C   UNL     1       2.393   5.416  19.475  0.00  0.00    +0.000 C 
ATOM      5  C   UNL     1       3.294   6.274  18.572  0.00  0.00    +0.000 C 
ENDROOT
BRANCH   2   6
ATOM      6  O   UNL     1       4.466   3.010  17.750  0.00  0.00    +0.000 OA
ATOM      7  H   UNL     1       4.089   2.146  17.481  0.00  0.00    +0.000 HD
ENDBRANCH   2   6
BRANCH   4   8
ATOM      8  O   UNL     1       2.512   5.809  20.839  0.00  0.00    +0.000 OA
ATOM      9  H   UNL     1       2.225   6.743  20.902  0.00  0.00    +0.000 HD
ENDBRANCH   4   8
BRANCH   5  10
ATOM     10  C   UNL     1       2.576   7.511  18.082  0.00  0.00    +0.000 C 
ATOM     11  C   UNL     1       2.136   8.509  18.869  0.00  0.00    +0.000 C 
BRANCH  11  12
ATOM     12  C   UNL     1       1.403   9.735  18.377  0.00  0.00    +0.000 C 
BRANCH  12  13
ATOM     13  O   UNL     1       2.211  10.415  17.413  0.00  0.00    +0.000 OA
ATOM     14  H   UNL     1       2.882   9.781  17.107  0.00  0.00    +0.000 HD
ENDBRANCH  12  13
BRANCH  12  15
ATOM     15  C   UNL     1       0.032   9.383  17.766  0.00  0.00    +0.000 C 
BRANCH  15  16
ATOM     16  O   UNL     1      -1.004   9.919  18.597  0.00  0.00    +0.000 OA
BRANCH  16  17
ATOM     17  C   UNL     1      -2.110  10.391  17.943  0.00  0.00    +0.000 A 
ATOM     18  C   UNL     1      -2.288   9.904  16.646  0.00  0.00    +0.000 A 
ATOM     19  C   UNL     1      -3.375  10.324  15.876  0.00  0.00    +0.000 A 
ATOM     20  C   UNL     1      -4.300  11.219  16.408  0.00  0.00    +0.000 A 
ATOM     21  C   UNL     1      -4.141  11.686  17.711  0.00  0.00    +0.000 A 
ATOM     22  C   UNL     1      -3.050  11.271  18.480  0.00  0.00    +0.000 A 
ENDBRANCH  16  17
ENDBRANCH  15  16
ENDBRANCH  12  15
ENDBRANCH  11  12
ENDBRANCH   5  10
BRANCH   1  23
ATOM     23  C   UNL     1       5.114   5.604  16.864  0.00  0.00    +0.000 C 
BRANCH  23  25
ATOM     24  N   UNL     1       6.960   7.186  16.948  0.00  0.00    +0.000 NA
ATOM     25  C   UNL     1       5.707   6.965  17.165  0.00  0.00    +0.000 C 
BRANCH  24  28
ATOM     26  O   UNL     1       8.642   7.630  19.048  0.00  0.00    +0.000 OA
ATOM     27  C   UNL     1       8.294   8.551  18.314  0.00  0.00    +0.000 C 
ATOM     28  N   UNL     1       7.447   8.418  17.222  0.00  0.00    +0.000 N 
ATOM     29  H   UNL     1       7.257   9.188  16.591  0.00  0.00    +0.000 HD
BRANCH  27  30
ATOM     30  C   UNL     1       8.811   9.915  18.567  0.00  0.00    +0.000 A 
ATOM     31  C   UNL     1       8.585  10.899  17.603  0.00  0.00    +0.000 A 
ATOM     32  C   UNL     1       9.088  12.163  17.844  0.00  0.00    +0.000 A 
ATOM     33  N   UNL     1       9.787  12.491  18.951  0.00  0.00    +0.000 NA
ATOM     34  C   UNL     1      10.007  11.511  19.854  0.00  0.00    +0.000 A 
ATOM     35  C   UNL     1       9.546  10.218  19.712  0.00  0.00    +0.000 A 
ENDBRANCH  27  30
ENDBRANCH  24  28
ENDBRANCH  23  25
ENDBRANCH   1  23
TORSDOF 12
ENDMDL
MODEL 6
REMARK VINA RESULT:      -7.6      2.499      2.973
REMARK  Name = 
REMARK  12 active torsions:
REMARK  status: ('A' for Active; 'I' for Inactive)
REMARK    1  A    between atoms: C_2  and  C_26
REMARK    2  A    between atoms: N_3  and  N_4
REMARK    3  A    between atoms: C_5  and  C_6
REMARK    4  A    between atoms: C_6  and  C_7
REMARK    5  A    between atoms: C_8  and  O_9
REMARK    6  A    between atoms: C_11  and  O_12
REMARK    7  A    between atoms: C_13  and  C_14
REMARK    8  A    between atoms: C_15  and  C_16
REMARK    9  A    between atoms: C_16  and  O_17
REMARK   10  A    between atoms: C_16  and  C_18
REMARK   11  A    between atoms: C_18  and  O_19
REMARK   12  A    between atoms: O_19  and  C_20
REMARK                            x       y       z     vdW  Elec       q    Type
REMARK                         _______ _______ _______ _____ _____    ______ ____
ROOT
ATOM      1  C   UNL     1       2.993   5.967  19.143  0.00  0.00    +0.000 C 
ATOM      2  C   UNL     1       2.253   5.744  20.481  0.00  0.00    +0.000 C 
ATOM      3  C   UNL     1       2.257   4.245  20.757  0.00  0.00    +0.000 C 
ATOM      4  C   UNL     1       3.410   3.686  19.942  0.00  0.00    +0.000 C 
ATOM      5  C   UNL     1       3.500   4.576  18.690  0.00  0.00    +0.000 C 
ENDROOT
BRANCH   2   6
ATOM      6  O   UNL     1       0.928   6.255  20.499  0.00  0.00    +0.000 OA
ATOM      7  H   UNL     1       0.599   6.195  19.577  0.00  0.00    +0.000 HD
ENDBRANCH   2   6
BRANCH   4   8
ATOM      8  O   UNL     1       3.156   2.330  19.590  0.00  0.00    +0.000 OA
ATOM      9  H   UNL     1       2.192   2.179  19.676  0.00  0.00    +0.000 HD
ENDBRANCH   4   8
BRANCH   5  10
ATOM     10  C   UNL     1       4.913   4.647  18.158  0.00  0.00    +0.000 C 
ATOM     11  C   UNL     1       5.887   5.426  18.660  0.00  0.00    +0.000 C 
BRANCH  11  12
ATOM     12  C   UNL     1       7.294   5.507  18.115  0.00  0.00    +0.000 C 
BRANCH  12  13
ATOM     13  O   UNL     1       8.218   5.098  19.127  0.00  0.00    +0.000 OA
ATOM     14  H   UNL     1       8.617   5.908  19.491  0.00  0.00    +0.000 HD
ENDBRANCH  12  13
BRANCH  12  15
ATOM     15  C   UNL     1       7.475   4.642  16.852  0.00  0.00    +0.000 C 
BRANCH  15  16
ATOM     16  O   UNL     1       7.436   5.487  15.695  0.00  0.00    +0.000 OA
BRANCH  16  17
ATOM     17  C   UNL     1       7.011   4.895  14.537  0.00  0.00    +0.000 A 
ATOM     18  C   UNL     1       7.783   5.176  13.407  0.00  0.00    +0.000 A 
ATOM     19  C   UNL     1       7.440   4.638  12.165  0.00  0.00    +0.000 A 
ATOM     20  C   UNL     1       6.333   3.800  12.052  0.00  0.00    +0.000 A 
ATOM     21  C   UNL     1       5.577   3.495  13.182  0.00  0.00    +0.000 A 
ATOM     22  C   UNL     1       5.916   4.039  14.423  0.00  0.00    +0.000 A 
ENDBRANCH  16  17
ENDBRANCH  15  16
ENDBRANCH  12  15
ENDBRANCH  11  12
ENDBRANCH   5  10
BRANCH   1  23
ATOM     23  C   UNL     1       2.229   6.731  18.047  0.00  0.00    +0.000 C 
BRANCH  23  25
ATOM     24  N   UNL     1       1.569   9.071  18.151  0.00  0.00    +0.000 NA
ATOM     25  C   UNL     1       2.513   8.216  17.943  0.00  0.00    +0.000 C 
BRANCH  24  28
ATOM     26  O   UNL     1       0.275  10.947  19.648  0.00  0.00    +0.000 OA
ATOM     27  C   UNL     1       1.154  11.271  18.854  0.00  0.00    +0.000 C 
ATOM     28  N   UNL     1       1.867  10.387  18.057  0.00  0.00    +0.000 N 
ATOM     29  H   UNL     1       2.646  10.688  17.481  0.00  0.00    +0.000 HD
BRANCH  27  30
ATOM     30  C   UNL     1       1.524  12.699  18.725  0.00  0.00    +0.000 A 
ATOM     31  C   UNL     1       0.562  13.663  19.025  0.00  0.00    +0.000 A 
ATOM     32  C   UNL     1       0.916  14.991  18.884  0.00  0.00    +0.000 A 
ATOM     33  N   UNL     1       2.132  15.400  18.464  0.00  0.00    +0.000 NA
ATOM     34  C   UNL     1       3.034  14.442  18.160  0.00  0.00    +0.000 A 
ATOM     35  C   UNL     1       2.784  13.089  18.271  0.00  0.00    +0.000 A 
ENDBRANCH  27  30
ENDBRANCH  24  28
ENDBRANCH  23  25
ENDBRANCH   1  23
TORSDOF 12
ENDMDL
MODEL 7
REMARK VINA RESULT:      -7.6      5.057      8.736
REMARK  Name = 
REMARK  12 active torsions:
REMARK  status: ('A' for Active; 'I' for Inactive)
REMARK    1  A    between atoms: C_2  and  C_26
REMARK    2  A    between atoms: N_3  and  N_4
REMARK    3  A    between atoms: C_5  and  C_6
REMARK    4  A    between atoms: C_6  and  C_7
REMARK    5  A    between atoms: C_8  and  O_9
REMARK    6  A    between atoms: C_11  and  O_12
REMARK    7  A    between atoms: C_13  and  C_14
REMARK    8  A    between atoms: C_15  and  C_16
REMARK    9  A    between atoms: C_16  and  O_17
REMARK   10  A    between atoms: C_16  and  C_18
REMARK   11  A    between atoms: C_18  and  O_19
REMARK   12  A    between atoms: O_19  and  C_20
REMARK                            x       y       z     vdW  Elec       q    Type
REMARK                         _______ _______ _______ _____ _____    ______ ____
ROOT
ATOM      1  C   UNL     1       5.997   6.020  17.003  0.00  0.00    +0.000 C 
ATOM      2  C   UNL     1       6.321   5.335  15.656  0.00  0.00    +0.000 C 
ATOM      3  C   UNL     1       5.726   3.933  15.706  0.00  0.00    +0.000 C 
ATOM      4  C   UNL     1       4.641   3.990  16.767  0.00  0.00    +0.000 C 
ATOM      5  C   UNL     1       5.130   5.016  17.803  0.00  0.00    +0.000 C 
ENDROOT
BRANCH   2   6
ATOM      6  O   UNL     1       7.707   5.284  15.355  0.00  0.00    +0.000 OA
ATOM      7  H   UNL     1       7.927   4.336  15.236  0.00  0.00    +0.000 HD
ENDBRANCH   2   6
BRANCH   4   8
ATOM      8  O   UNL     1       4.461   2.708  17.360  0.00  0.00    +0.000 OA
ATOM      9  H   UNL     1       4.950   2.059  16.813  0.00  0.00    +0.000 HD
ENDBRANCH   4   8
BRANCH   5  10
ATOM     10  C   UNL     1       3.975   5.706  18.492  0.00  0.00    +0.000 C 
ATOM     11  C   UNL     1       3.301   6.759  17.997  0.00  0.00    +0.000 C 
BRANCH  11  12
ATOM     12  C   UNL     1       2.158   7.457  18.696  0.00  0.00    +0.000 C 
BRANCH  12  13
ATOM     13  O   UNL     1       2.411   7.488  20.103  0.00  0.00    +0.000 OA
ATOM     14  H   UNL     1       3.288   7.894  20.225  0.00  0.00    +0.000 HD
ENDBRANCH  12  13
BRANCH  12  15
ATOM     15  C   UNL     1       1.944   8.888  18.165  0.00  0.00    +0.000 C 
BRANCH  15  16
ATOM     16  O   UNL     1       0.850   9.491  18.868  0.00  0.00    +0.000 OA
BRANCH  16  17
ATOM     17  C   UNL     1       1.045  10.780  19.282  0.00  0.00    +0.000 A 
ATOM     18  C   UNL     1       0.443  11.112  20.499  0.00  0.00    +0.000 A 
ATOM     19  C   UNL     1       0.563  12.403  21.018  0.00  0.00    +0.000 A 
ATOM     20  C   UNL     1       1.301  13.363  20.331  0.00  0.00    +0.000 A 
ATOM     21  C   UNL     1       1.926  13.029  19.131  0.00  0.00    +0.000 A 
ATOM     22  C   UNL     1       1.801  11.739  18.608  0.00  0.00    +0.000 A 
ENDBRANCH  16  17
ENDBRANCH  15  16
ENDBRANCH  12  15
ENDBRANCH  11  12
ENDBRANCH   5  10
BRANCH   1  23
ATOM     23  C   UNL     1       7.188   6.578  17.802  0.00  0.00    +0.000 C 
BRANCH  23  25
ATOM     24  N   UNL     1       8.400   8.634  18.273  0.00  0.00    +0.000 NA
ATOM     25  C   UNL     1       7.604   7.998  17.479  0.00  0.00    +0.000 C 
BRANCH  24  28
ATOM     26  O   UNL     1       9.366  10.384  20.127  0.00  0.00    +0.000 OA
ATOM     27  C   UNL     1       9.232  10.720  18.954  0.00  0.00    +0.000 C 
ATOM     28  N   UNL     1       8.754   9.898  17.943  0.00  0.00    +0.000 N 
ATOM     29  H   UNL     1       8.743  10.188  16.972  0.00  0.00    +0.000 HD
BRANCH  27  30
ATOM     30  C   UNL     1       9.617  12.089  18.542  0.00  0.00    +0.000 A 
ATOM     31  C   UNL     1      10.604  12.236  17.567  0.00  0.00    +0.000 A 
ATOM     32  C   UNL     1      10.966  13.519  17.205  0.00  0.00    +0.000 A 
ATOM     33  N   UNL     1      10.424  14.630  17.748  0.00  0.00    +0.000 NA
ATOM     34  C   UNL     1       9.488  14.454  18.706  0.00  0.00    +0.000 A 
ATOM     35  C   UNL     1       9.052  13.217  19.136  0.00  0.00    +0.000 A 
ENDBRANCH  27  30
ENDBRANCH  24  28
ENDBRANCH  23  25
ENDBRANCH   1  23
TORSDOF 12
ENDMDL
MODEL 8
REMARK VINA RESULT:      -7.6      5.004      8.952
REMARK  Name = 
REMARK  12 active torsions:
REMARK  status: ('A' for Active; 'I' for Inactive)
REMARK    1  A    between atoms: C_2  and  C_26
REMARK    2  A    between atoms: N_3  and  N_4
REMARK    3  A    between atoms: C_5  and  C_6
REMARK    4  A    between atoms: C_6  and  C_7
REMARK    5  A    between atoms: C_8  and  O_9
REMARK    6  A    between atoms: C_11  and  O_12
REMARK    7  A    between atoms: C_13  and  C_14
REMARK    8  A    between atoms: C_15  and  C_16
REMARK    9  A    between atoms: C_16  and  O_17
REMARK   10  A    between atoms: C_16  and  C_18
REMARK   11  A    between atoms: C_18  and  O_19
REMARK   12  A    between atoms: O_19  and  C_20
REMARK                            x       y       z     vdW  Elec       q    Type
REMARK                         _______ _______ _______ _____ _____    ______ ____
ROOT
ATOM      1  C   UNL     1       5.083   6.069  17.147  0.00  0.00    +0.000 C 
ATOM      2  C   UNL     1       4.986   4.627  16.601  0.00  0.00    +0.000 C 
ATOM      3  C   UNL     1       3.759   3.983  17.234  0.00  0.00    +0.000 C 
ATOM      4  C   UNL     1       2.875   5.138  17.671  0.00  0.00    +0.000 C 
ATOM      5  C   UNL     1       3.839   6.277  18.046  0.00  0.00    +0.000 C 
ENDROOT
BRANCH   2   6
ATOM      6  O   UNL     1       6.145   3.842  16.838  0.00  0.00    +0.000 OA
ATOM      7  H   UNL     1       5.843   3.046  17.325  0.00  0.00    +0.000 HD
ENDBRANCH   2   6
BRANCH   4   8
ATOM      8  O   UNL     1       2.075   4.757  18.786  0.00  0.00    +0.000 OA
ATOM      9  H   UNL     1       2.682   4.517  19.516  0.00  0.00    +0.000 HD
ENDBRANCH   4   8
BRANCH   5  10
ATOM     10  C   UNL     1       3.213   7.634  17.821  0.00  0.00    +0.000 C 
ATOM     11  C   UNL     1       2.220   8.157  18.561  0.00  0.00    +0.000 C 
BRANCH  11  12
ATOM     12  C   UNL     1       1.584   9.506  18.322  0.00  0.00    +0.000 C 
BRANCH  12  13
ATOM     13  O   UNL     1       2.256  10.162  17.244  0.00  0.00    +0.000 OA
ATOM     14  H   UNL     1       1.765  10.983  17.061  0.00  0.00    +0.000 HD
ENDBRANCH  12  13
BRANCH  12  15
ATOM     15  C   UNL     1       0.078   9.389  18.014  0.00  0.00    +0.000 C 
BRANCH  15  16
ATOM     16  O   UNL     1      -0.543  10.664  18.221  0.00  0.00    +0.000 OA
BRANCH  16  17
ATOM     17  C   UNL     1      -1.817  10.792  17.739  0.00  0.00    +0.000 A 
ATOM     18  C   UNL     1      -2.704  11.476  18.574  0.00  0.00    +0.000 A 
ATOM     19  C   UNL     1      -4.036  11.659  18.194  0.00  0.00    +0.000 A 
ATOM     20  C   UNL     1      -4.481  11.175  16.966  0.00  0.00    +0.000 A 
ATOM     21  C   UNL     1      -3.592  10.517  16.118  0.00  0.00    +0.000 A 
ATOM     22  C   UNL     1      -2.262  10.327  16.501  0.00  0.00    +0.000 A 
ENDBRANCH  16  17
ENDBRANCH  15  16
ENDBRANCH  12  15
ENDBRANCH  11  12
ENDBRANCH   5  10
BRANCH   1  23
ATOM     23  C   UNL     1       6.406   6.467  17.824  0.00  0.00    +0.000 C 
BRANCH  23  25
ATOM     24  N   UNL     1       8.020   8.273  18.052  0.00  0.00    +0.000 NA
ATOM     25  C   UNL     1       6.962   7.829  17.461  0.00  0.00    +0.000 C 
BRANCH  24  28
ATOM     26  O   UNL     1       9.298   9.903  19.826  0.00  0.00    +0.000 OA
ATOM     27  C   UNL     1       9.122  10.253  18.663  0.00  0.00    +0.000 C 
ATOM     28  N   UNL     1       8.488   9.491  17.692  0.00  0.00    +0.000 N 
ATOM     29  H   UNL     1       8.443   9.782  16.722  0.00  0.00    +0.000 HD
BRANCH  27  30
ATOM     30  C   UNL     1       9.628  11.572  18.218  0.00  0.00    +0.000 A 
ATOM     31  C   UNL     1       8.757  12.661  18.250  0.00  0.00    +0.000 A 
ATOM     32  C   UNL     1       9.237  13.882  17.817  0.00  0.00    +0.000 A 
ATOM     33  N   UNL     1      10.493  14.072  17.359  0.00  0.00    +0.000 NA
ATOM     34  C   UNL     1      11.304  12.993  17.320  0.00  0.00    +0.000 A 
ATOM     35  C   UNL     1      10.926  11.732  17.733  0.00  0.00    +0.000 A 
ENDBRANCH  27  30
ENDBRANCH  24  28
ENDBRANCH  23  25
ENDBRANCH   1  23
TORSDOF 12
ENDMDL
MODEL 9
REMARK VINA RESULT:      -7.5      4.991      8.121
REMARK  Name = 
REMARK  12 active torsions:
REMARK  status: ('A' for Active; 'I' for Inactive)
REMARK    1  A    between atoms: C_2  and  C_26
REMARK    2  A    between atoms: N_3  and  N_4
REMARK    3  A    between atoms: C_5  and  C_6
REMARK    4  A    between atoms: C_6  and  C_7
REMARK    5  A    between atoms: C_8  and  O_9
REMARK    6  A    between atoms: C_11  and  O_12
REMARK    7  A    between atoms: C_13  and  C_14
REMARK    8  A    between atoms: C_15  and  C_16
REMARK    9  A    between atoms: C_16  and  O_17
REMARK   10  A    between atoms: C_16  and  C_18
REMARK   11  A    between atoms: C_18  and  O_19
REMARK   12  A    between atoms: O_19  and  C_20
REMARK                            x       y       z     vdW  Elec       q    Type
REMARK                         _______ _______ _______ _____ _____    ______ ____
ROOT
ATOM      1  C   UNL     1       6.173   6.094  16.854  0.00  0.00    +0.000 C 
ATOM      2  C   UNL     1       6.378   5.381  15.499  0.00  0.00    +0.000 C 
ATOM      3  C   UNL     1       5.742   4.001  15.611  0.00  0.00    +0.000 C 
ATOM      4  C   UNL     1       4.738   4.109  16.744  0.00  0.00    +0.000 C 
ATOM      5  C   UNL     1       5.333   5.130  17.728  0.00  0.00    +0.000 C 
ENDROOT
BRANCH   2   6
ATOM      6  O   UNL     1       7.737   5.279  15.101  0.00  0.00    +0.000 OA
ATOM      7  H   UNL     1       7.758   5.477  14.141  0.00  0.00    +0.000 HD
ENDBRANCH   2   6
BRANCH   4   8
ATOM      8  O   UNL     1       4.557   2.842  17.369  0.00  0.00    +0.000 OA
ATOM      9  H   UNL     1       4.736   2.154  16.695  0.00  0.00    +0.000 HD
ENDBRANCH   4   8
BRANCH   5  10
ATOM     10  C   UNL     1       4.253   5.869  18.486  0.00  0.00    +0.000 C 
ATOM     11  C   UNL     1       3.623   6.973  18.049  0.00  0.00    +0.000 C 
BRANCH  11  12
ATOM     12  C   UNL     1       2.556   7.718  18.816  0.00  0.00    +0.000 C 
BRANCH  12  13
ATOM     13  O   UNL     1       2.128   8.851  18.055  0.00  0.00    +0.000 OA
ATOM     14  H   UNL     1       2.051   8.558  17.129  0.00  0.00    +0.000 HD
ENDBRANCH  12  13
BRANCH  12  15
ATOM     15  C   UNL     1       1.350   6.818  19.150  0.00  0.00    +0.000 C 
BRANCH  15  16
ATOM     16  O   UNL     1       1.581   6.172  20.408  0.00  0.00    +0.000 OA
BRANCH  16  17
ATOM     17  C   UNL     1       1.660   4.806  20.372  0.00  0.00    +0.000 A 
ATOM     18  C   UNL     1       2.266   4.215  21.483  0.00  0.00    +0.000 A 
ATOM     19  C   UNL     1       2.414   2.828  21.554  0.00  0.00    +0.000 A 
ATOM     20  C   UNL     1       1.939   2.025  20.519  0.00  0.00    +0.000 A 
ATOM     21  C   UNL     1       1.309   2.609  19.422  0.00  0.00    +0.000 A 
ATOM     22  C   UNL     1       1.167   3.997  19.348  0.00  0.00    +0.000 A 
ENDBRANCH  16  17
ENDBRANCH  15  16
ENDBRANCH  12  15
ENDBRANCH  11  12
ENDBRANCH   5  10
BRANCH   1  23
ATOM     23  C   UNL     1       7.436   6.621  17.558  0.00  0.00    +0.000 C 
BRANCH  23  25
ATOM     24  N   UNL     1       8.230   8.836  18.177  0.00  0.00    +0.000 NA
ATOM     25  C   UNL     1       7.839   8.045  17.235  0.00  0.00    +0.000 C 
BRANCH  24  28
ATOM     26  O   UNL     1       9.710  10.397  19.853  0.00  0.00    +0.000 OA
ATOM     27  C   UNL     1       9.340  10.819  18.761  0.00  0.00    +0.000 C 
ATOM     28  N   UNL     1       8.589  10.097  17.844  0.00  0.00    +0.000 N 
ATOM     29  H   UNL     1       8.381  10.453  16.918  0.00  0.00    +0.000 HD
BRANCH  27  30
ATOM     30  C   UNL     1       9.719  12.189  18.347  0.00  0.00    +0.000 A 
ATOM     31  C   UNL     1       8.828  13.232  18.609  0.00  0.00    +0.000 A 
ATOM     32  C   UNL     1       9.187  14.502  18.202  0.00  0.00    +0.000 A 
ATOM     33  N   UNL     1      10.342  14.784  17.562  0.00  0.00    +0.000 NA
ATOM     34  C   UNL     1      11.172  13.750  17.303  0.00  0.00    +0.000 A 
ATOM     35  C   UNL     1      10.911  12.445  17.671  0.00  0.00    +0.000 A 
ENDBRANCH  27  30
ENDBRANCH  24  28
ENDBRANCH  23  25
ENDBRANCH   1  23
TORSDOF 12
ENDMDL
