MODEL 1
REMARK VINA RESULT:      -7.9      0.000      0.000
REMARK  Name = 
REMARK  7 active torsions:
REMARK  status: ('A' for Active; 'I' for Inactive)
REMARK    1  A    between atoms: C_1  and  C_2
REMARK    2  A    between atoms: C_6  and  C_7
REMARK    3  A    between atoms: N_10  and  C_11
REMARK    4  A    between atoms: C_15  and  C_16
REMARK    5  A    between atoms: N_23  and  C_24
REMARK    6  A    between atoms: C_24  and  C_25
REMARK    7  A    between atoms: C_30  and  C_31
REMARK                            x       y       z     vdW  Elec       q    Type
REMARK                         _______ _______ _______ _____ _____    ______ ____
ROOT
ATOM      1  C   UNL     1       2.995   1.600  19.076  0.00  0.00    +0.000 C 
ATOM      2  C   UNL     1       2.851   3.089  19.062  0.00  0.00    +0.000 A 
ATOM      3  S   UNL     1       3.785   3.977  17.951  0.00  0.00    +0.000 S 
ATOM      4  C   UNL     1       3.093   5.434  18.437  0.00  0.00    +0.000 A 
ATOM      5  C   UNL     1       2.203   5.309  19.468  0.00  0.00    +0.000 A 
ATOM      6  C   UNL     1       2.038   3.912  19.838  0.00  0.00    +0.000 A 
ATOM      7  C   UNL     1       1.117   3.377  20.895  0.00  0.00    +0.000 C 
ATOM      8  C   UNL     1       1.589   6.519  20.000  0.00  0.00    +0.000 A 
ATOM      9  O   UNL     1       0.858   6.479  20.987  0.00  0.00    +0.000 OA
ATOM     10  N   UNL     1       1.872   7.696  19.274  0.00  0.00    +0.000 N 
ATOM     11  C   UNL     1       2.707   7.767  18.138  0.00  0.00    +0.000 A 
ATOM     12  O   UNL     1       2.845   8.799  17.473  0.00  0.00    +0.000 OA
ATOM     13  N   UNL     1       3.425   6.612  17.792  0.00  0.00    +0.000 N 
ENDROOT
BRANCH  10  14
ATOM     14  C   UNL     1       1.254   8.918  19.725  0.00  0.00    +0.000 A 
ATOM     15  C   UNL     1       1.521   9.433  21.001  0.00  0.00    +0.000 A 
ATOM     16  C   UNL     1       0.946  10.637  21.418  0.00  0.00    +0.000 A 
ATOM     17  C   UNL     1       0.069  11.326  20.580  0.00  0.00    +0.000 A 
ATOM     18  C   UNL     1      -0.241  10.818  19.311  0.00  0.00    +0.000 A 
ATOM     19  C   UNL     1       0.367   9.619  18.888  0.00  0.00    +0.000 A 
BRANCH  18  20
ATOM     20  C   UNL     1      -1.212  11.539  18.407  0.00  0.00    +0.000 C 
ATOM     21  F   UNL     1      -0.717  12.702  17.894  0.00  0.00    +0.000 F 
ATOM     22  F   UNL     1      -1.585  10.789  17.334  0.00  0.00    +0.000 F 
ATOM     23  F   UNL     1      -2.365  11.879  19.047  0.00  0.00    +0.000 F 
ENDBRANCH  18  20
ENDBRANCH  10  14
BRANCH  13  24
ATOM     24  C   UNL     1       4.464   6.712  16.757  0.00  0.00    +0.000 C 
BRANCH  24  25
ATOM     25  C   UNL     1       5.812   6.114  17.125  0.00  0.00    +0.000 A 
ATOM     26  C   UNL     1       6.437   6.469  18.334  0.00  0.00    +0.000 A 
ATOM     27  C   UNL     1       7.592   5.822  18.769  0.00  0.00    +0.000 A 
ATOM     28  C   UNL     1       8.148   4.803  18.006  0.00  0.00    +0.000 A 
ATOM     29  C   UNL     1       7.567   4.455  16.785  0.00  0.00    +0.000 A 
ATOM     30  C   UNL     1       6.406   5.104  16.338  0.00  0.00    +0.000 A 
BRANCH  30  31
ATOM     31  C   UNL     1       5.852   4.700  15.076  0.00  0.00    +0.000 C 
ATOM     32  N   UNL     1       5.395   4.365  14.057  0.00  0.00    +0.000 NA
ENDBRANCH  30  31
ENDBRANCH  24  25
ENDBRANCH  13  24
TORSDOF 5
ENDMDL
MODEL 2
REMARK VINA RESULT:      -7.9      5.146      8.174
REMARK  Name = 
REMARK  7 active torsions:
REMARK  status: ('A' for Active; 'I' for Inactive)
REMARK    1  A    between atoms: C_1  and  C_2
REMARK    2  A    between atoms: C_6  and  C_7
REMARK    3  A    between atoms: N_10  and  C_11
REMARK    4  A    between atoms: C_15  and  C_16
REMARK    5  A    between atoms: N_23  and  C_24
REMARK    6  A    between atoms: C_24  and  C_25
REMARK    7  A    between atoms: C_30  and  C_31
REMARK                            x       y       z     vdW  Elec       q    Type
REMARK                         _______ _______ _______ _____ _____    ______ ____
ROOT
ATOM      1  C   UNL     1       2.162   8.014  18.839  0.00  0.00    +0.000 C 
ATOM      2  C   UNL     1       1.474   9.197  19.443  0.00  0.00    +0.000 A 
ATOM      3  S   UNL     1       1.468  10.657  18.569  0.00  0.00    +0.000 S 
ATOM      4  C   UNL     1       0.538  11.430  19.742  0.00  0.00    +0.000 A 
ATOM      5  C   UNL     1       0.261  10.651  20.831  0.00  0.00    +0.000 A 
ATOM      6  C   UNL     1       0.800   9.312  20.657  0.00  0.00    +0.000 A 
ATOM      7  C   UNL     1       0.662   8.167  21.617  0.00  0.00    +0.000 C 
ATOM      8  C   UNL     1      -0.493  11.244  21.930  0.00  0.00    +0.000 A 
ATOM      9  O   UNL     1      -0.686  10.624  22.974  0.00  0.00    +0.000 OA
ATOM     10  N   UNL     1      -0.994  12.538  21.674  0.00  0.00    +0.000 N 
ATOM     11  C   UNL     1      -0.785  13.268  20.485  0.00  0.00    +0.000 A 
ATOM     12  O   UNL     1      -1.329  14.356  20.263  0.00  0.00    +0.000 OA
ATOM     13  N   UNL     1       0.110  12.730  19.546  0.00  0.00    +0.000 N 
ENDROOT
BRANCH  10  14
ATOM     14  C   UNL     1      -1.787  13.157  22.706  0.00  0.00    +0.000 A 
ATOM     15  C   UNL     1      -1.212  14.054  23.618  0.00  0.00    +0.000 A 
ATOM     16  C   UNL     1      -1.995  14.678  24.593  0.00  0.00    +0.000 A 
ATOM     17  C   UNL     1      -3.356  14.389  24.695  0.00  0.00    +0.000 A 
ATOM     18  C   UNL     1      -3.951  13.474  23.817  0.00  0.00    +0.000 A 
ATOM     19  C   UNL     1      -3.160  12.872  22.817  0.00  0.00    +0.000 A 
BRANCH  18  20
ATOM     20  C   UNL     1      -5.417  13.131  23.936  0.00  0.00    +0.000 C 
ATOM     21  F   UNL     1      -6.202  14.200  24.255  0.00  0.00    +0.000 F 
ATOM     22  F   UNL     1      -5.932  12.623  22.783  0.00  0.00    +0.000 F 
ATOM     23  F   UNL     1      -5.657  12.197  24.898  0.00  0.00    +0.000 F 
ENDBRANCH  18  20
ENDBRANCH  10  14
BRANCH  13  24
ATOM     24  C   UNL     1       0.518  13.562  18.405  0.00  0.00    +0.000 C 
BRANCH  24  25
ATOM     25  C   UNL     1       1.694  14.490  18.663  0.00  0.00    +0.000 A 
ATOM     26  C   UNL     1       2.976  13.959  18.899  0.00  0.00    +0.000 A 
ATOM     27  C   UNL     1       4.096  14.784  18.981  0.00  0.00    +0.000 A 
ATOM     28  C   UNL     1       3.962  16.158  18.830  0.00  0.00    +0.000 A 
ATOM     29  C   UNL     1       2.697  16.713  18.631  0.00  0.00    +0.000 A 
ATOM     30  C   UNL     1       1.562  15.891  18.548  0.00  0.00    +0.000 A 
BRANCH  30  31
ATOM     31  C   UNL     1       0.289  16.519  18.339  0.00  0.00    +0.000 C 
ATOM     32  N   UNL     1      -0.744  17.030  18.156  0.00  0.00    +0.000 NA
ENDBRANCH  30  31
ENDBRANCH  24  25
ENDBRANCH  13  24
TORSDOF 5
ENDMDL
MODEL 3
REMARK VINA RESULT:      -7.9      5.674      8.736
REMARK  Name = 
REMARK  7 active torsions:
REMARK  status: ('A' for Active; 'I' for Inactive)
REMARK    1  A    between atoms: C_1  and  C_2
REMARK    2  A    between atoms: C_6  and  C_7
REMARK    3  A    between atoms: N_10  and  C_11
REMARK    4  A    between atoms: C_15  and  C_16
REMARK    5  A    between atoms: N_23  and  C_24
REMARK    6  A    between atoms: C_24  and  C_25
REMARK    7  A    between atoms: C_30  and  C_31
REMARK                            x       y       z     vdW  Elec       q    Type
REMARK                         _______ _______ _______ _____ _____    ______ ____
ROOT
ATOM      1  C   UNL     1       1.919   8.334  18.843  0.00  0.00    +0.000 C 
ATOM      2  C   UNL     1       1.272   9.512  19.501  0.00  0.00    +0.000 A 
ATOM      3  S   UNL     1       1.174  10.968  18.627  0.00  0.00    +0.000 S 
ATOM      4  C   UNL     1       0.340  11.735  19.874  0.00  0.00    +0.000 A 
ATOM      5  C   UNL     1       0.168  10.956  20.985  0.00  0.00    +0.000 A 
ATOM      6  C   UNL     1       0.705   9.623  20.769  0.00  0.00    +0.000 A 
ATOM      7  C   UNL     1       0.663   8.480  21.740  0.00  0.00    +0.000 C 
ATOM      8  C   UNL     1      -0.495  11.545  22.144  0.00  0.00    +0.000 A 
ATOM      9  O   UNL     1      -0.590  10.927  23.202  0.00  0.00    +0.000 OA
ATOM     10  N   UNL     1      -1.031  12.833  21.929  0.00  0.00    +0.000 N 
ATOM     11  C   UNL     1      -0.934  13.561  20.724  0.00  0.00    +0.000 A 
ATOM     12  O   UNL     1      -1.506  14.642  20.547  0.00  0.00    +0.000 OA
ATOM     13  N   UNL     1      -0.117  13.030  19.713  0.00  0.00    +0.000 N 
ENDROOT
BRANCH  10  14
ATOM     14  C   UNL     1      -1.739  13.447  23.024  0.00  0.00    +0.000 A 
ATOM     15  C   UNL     1      -3.076  13.120  23.291  0.00  0.00    +0.000 A 
ATOM     16  C   UNL     1      -3.746  13.693  24.377  0.00  0.00    +0.000 A 
ATOM     17  C   UNL     1      -3.101  14.626  25.189  0.00  0.00    +0.000 A 
ATOM     18  C   UNL     1      -1.775  14.994  24.926  0.00  0.00    +0.000 A 
ATOM     19  C   UNL     1      -1.099  14.389  23.847  0.00  0.00    +0.000 A 
BRANCH  18  20
ATOM     20  C   UNL     1      -1.076  16.026  25.780  0.00  0.00    +0.000 C 
ATOM     21  F   UNL     1      -0.660  15.542  26.986  0.00  0.00    +0.000 F 
ATOM     22  F   UNL     1       0.035  16.536  25.182  0.00  0.00    +0.000 F 
ATOM     23  F   UNL     1      -1.873  17.093  26.065  0.00  0.00    +0.000 F 
ENDBRANCH  18  20
ENDBRANCH  10  14
BRANCH  13  24
ATOM     24  C   UNL     1       0.181  13.862  18.539  0.00  0.00    +0.000 C 
BRANCH  24  25
ATOM     25  C   UNL     1       1.371  14.796  18.688  0.00  0.00    +0.000 A 
ATOM     26  C   UNL     1       2.668  14.271  18.840  0.00  0.00    +0.000 A 
ATOM     27  C   UNL     1       3.790  15.098  18.821  0.00  0.00    +0.000 A 
ATOM     28  C   UNL     1       3.641  16.468  18.649  0.00  0.00    +0.000 A 
ATOM     29  C   UNL     1       2.364  17.019  18.532  0.00  0.00    +0.000 A 
ATOM     30  C   UNL     1       1.228  16.194  18.552  0.00  0.00    +0.000 A 
BRANCH  30  31
ATOM     31  C   UNL     1      -0.058  16.817  18.424  0.00  0.00    +0.000 C 
ATOM     32  N   UNL     1      -1.102  17.330  18.329  0.00  0.00    +0.000 NA
ENDBRANCH  30  31
ENDBRANCH  24  25
ENDBRANCH  13  24
TORSDOF 5
ENDMDL
MODEL 4
REMARK VINA RESULT:      -7.5      5.786      8.622
REMARK  Name = 
REMARK  7 active torsions:
REMARK  status: ('A' for Active; 'I' for Inactive)
REMARK    1  A    between atoms: C_1  and  C_2
REMARK    2  A    between atoms: C_6  and  C_7
REMARK    3  A    between atoms: N_10  and  C_11
REMARK    4  A    between atoms: C_15  and  C_16
REMARK    5  A    between atoms: N_23  and  C_24
REMARK    6  A    between atoms: C_24  and  C_25
REMARK    7  A    between atoms: C_30  and  C_31
REMARK                            x       y       z     vdW  Elec       q    Type
REMARK                         _______ _______ _______ _____ _____    ______ ____
ROOT
ATOM      1  C   UNL     1      -2.934  10.199  15.115  0.00  0.00    +0.000 C 
ATOM      2  C   UNL     1      -3.000  10.834  16.468  0.00  0.00    +0.000 A 
ATOM      3  S   UNL     1      -1.561  10.965  17.365  0.00  0.00    +0.000 S 
ATOM      4  C   UNL     1      -2.343  11.770  18.623  0.00  0.00    +0.000 A 
ATOM      5  C   UNL     1      -3.691  11.907  18.438  0.00  0.00    +0.000 A 
ATOM      6  C   UNL     1      -4.093  11.368  17.149  0.00  0.00    +0.000 A 
ATOM      7  C   UNL     1      -5.479  11.375  16.576  0.00  0.00    +0.000 C 
ATOM      8  C   UNL     1      -4.471  12.541  19.495  0.00  0.00    +0.000 A 
ATOM      9  O   UNL     1      -5.697  12.604  19.428  0.00  0.00    +0.000 OA
ATOM     10  N   UNL     1      -3.707  13.091  20.547  0.00  0.00    +0.000 N 
ATOM     11  C   UNL     1      -2.300  13.032  20.644  0.00  0.00    +0.000 A 
ATOM     12  O   UNL     1      -1.666  13.616  21.529  0.00  0.00    +0.000 OA
ATOM     13  N   UNL     1      -1.621  12.240  19.705  0.00  0.00    +0.000 N 
ENDROOT
BRANCH  10  14
ATOM     14  C   UNL     1      -4.420  13.773  21.597  0.00  0.00    +0.000 A 
ATOM     15  C   UNL     1      -4.197  15.133  21.855  0.00  0.00    +0.000 A 
ATOM     16  C   UNL     1      -4.919  15.797  22.852  0.00  0.00    +0.000 A 
ATOM     17  C   UNL     1      -5.846  15.103  23.630  0.00  0.00    +0.000 A 
ATOM     18  C   UNL     1      -6.066  13.736  23.415  0.00  0.00    +0.000 A 
ATOM     19  C   UNL     1      -5.356  13.083  22.387  0.00  0.00    +0.000 A 
BRANCH  18  20
ATOM     20  C   UNL     1      -7.046  12.968  24.270  0.00  0.00    +0.000 C 
ATOM     21  F   UNL     1      -7.827  13.767  25.054  0.00  0.00    +0.000 F 
ATOM     22  F   UNL     1      -7.908  12.216  23.533  0.00  0.00    +0.000 F 
ATOM     23  F   UNL     1      -6.428  12.105  25.123  0.00  0.00    +0.000 F 
ENDBRANCH  18  20
ENDBRANCH  10  14
BRANCH  13  24
ATOM     24  C   UNL     1      -0.189  11.979  19.908  0.00  0.00    +0.000 C 
BRANCH  24  25
ATOM     25  C   UNL     1       0.139  10.709  20.676  0.00  0.00    +0.000 A 
ATOM     26  C   UNL     1      -0.379  10.511  21.970  0.00  0.00    +0.000 A 
ATOM     27  C   UNL     1      -0.224   9.295  22.632  0.00  0.00    +0.000 A 
ATOM     28  C   UNL     1       0.452   8.249  22.018  0.00  0.00    +0.000 A 
ATOM     29  C   UNL     1       1.007   8.431  20.750  0.00  0.00    +0.000 A 
ATOM     30  C   UNL     1       0.858   9.653  20.076  0.00  0.00    +0.000 A 
BRANCH  30  31
ATOM     31  C   UNL     1       1.447   9.780  18.773  0.00  0.00    +0.000 C 
ATOM     32  N   UNL     1       1.928   9.895  17.717  0.00  0.00    +0.000 NA
ENDBRANCH  30  31
ENDBRANCH  24  25
ENDBRANCH  13  24
TORSDOF 5
ENDMDL
MODEL 5
REMARK VINA RESULT:      -7.4      5.907      9.300
REMARK  Name = 
REMARK  7 active torsions:
REMARK  status: ('A' for Active; 'I' for Inactive)
REMARK    1  A    between atoms: C_1  and  C_2
REMARK    2  A    between atoms: C_6  and  C_7
REMARK    3  A    between atoms: N_10  and  C_11
REMARK    4  A    between atoms: C_15  and  C_16
REMARK    5  A    between atoms: N_23  and  C_24
REMARK    6  A    between atoms: C_24  and  C_25
REMARK    7  A    between atoms: C_30  and  C_31
REMARK                            x       y       z     vdW  Elec       q    Type
REMARK                         _______ _______ _______ _____ _____    ______ ____
ROOT
ATOM      1  C   UNL     1       3.554  15.306  17.600  0.00  0.00    +0.000 C 
ATOM      2  C   UNL     1       2.526  15.012  18.646  0.00  0.00    +0.000 A 
ATOM      3  S   UNL     1       2.019  13.400  18.844  0.00  0.00    +0.000 S 
ATOM      4  C   UNL     1       1.003  13.810  20.124  0.00  0.00    +0.000 A 
ATOM      5  C   UNL     1       0.968  15.150  20.396  0.00  0.00    +0.000 A 
ATOM      6  C   UNL     1       1.884  15.875  19.532  0.00  0.00    +0.000 A 
ATOM      7  C   UNL     1       2.152  17.351  19.561  0.00  0.00    +0.000 C 
ATOM      8  C   UNL     1       0.076  15.616  21.452  0.00  0.00    +0.000 A 
ATOM      9  O   UNL     1      -0.071  16.816  21.675  0.00  0.00    +0.000 OA
ATOM     10  N   UNL     1      -0.551  14.592  22.193  0.00  0.00    +0.000 N 
ATOM     11  C   UNL     1      -0.398  13.209  21.957  0.00  0.00    +0.000 A 
ATOM     12  O   UNL     1      -0.884  12.346  22.695  0.00  0.00    +0.000 OA
ATOM     13  N   UNL     1       0.312  12.826  20.808  0.00  0.00    +0.000 N 
ENDROOT
BRANCH  10  14
ATOM     14  C   UNL     1      -1.408  14.991  23.282  0.00  0.00    +0.000 A 
ATOM     15  C   UNL     1      -0.887  15.217  24.564  0.00  0.00    +0.000 A 
ATOM     16  C   UNL     1      -1.718  15.639  25.606  0.00  0.00    +0.000 A 
ATOM     17  C   UNL     1      -3.087  15.806  25.391  0.00  0.00    +0.000 A 
ATOM     18  C   UNL     1      -3.639  15.556  24.128  0.00  0.00    +0.000 A 
ATOM     19  C   UNL     1      -2.788  15.161  23.076  0.00  0.00    +0.000 A 
BRANCH  18  20
ATOM     20  C   UNL     1      -5.123  15.705  23.892  0.00  0.00    +0.000 C 
ATOM     21  F   UNL     1      -5.432  16.198  22.657  0.00  0.00    +0.000 F 
ATOM     22  F   UNL     1      -5.792  14.524  23.996  0.00  0.00    +0.000 F 
ATOM     23  F   UNL     1      -5.711  16.549  24.784  0.00  0.00    +0.000 F 
ENDBRANCH  18  20
ENDBRANCH  10  14
BRANCH  13  24
ATOM     24  C   UNL     1       0.302  11.410  20.413  0.00  0.00    +0.000 C 
BRANCH  24  25
ATOM     25  C   UNL     1      -0.749  11.027  19.385  0.00  0.00    +0.000 A 
ATOM     26  C   UNL     1      -2.036  11.593  19.444  0.00  0.00    +0.000 A 
ATOM     27  C   UNL     1      -2.967  11.381  18.428  0.00  0.00    +0.000 A 
ATOM     28  C   UNL     1      -2.633  10.599  17.330  0.00  0.00    +0.000 A 
ATOM     29  C   UNL     1      -1.375   9.997  17.265  0.00  0.00    +0.000 A 
ATOM     30  C   UNL     1      -0.433  10.202  18.284  0.00  0.00    +0.000 A 
BRANCH  30  31
ATOM     31  C   UNL     1       0.845   9.560  18.159  0.00  0.00    +0.000 C 
ATOM     32  N   UNL     1       1.887   9.043  18.068  0.00  0.00    +0.000 NA
ENDBRANCH  30  31
ENDBRANCH  24  25
ENDBRANCH  13  24
TORSDOF 5
ENDMDL
MODEL 6
REMARK VINA RESULT:      -7.4      5.269      8.007
REMARK  Name = 
REMARK  7 active torsions:
REMARK  status: ('A' for Active; 'I' for Inactive)
REMARK    1  A    between atoms: C_1  and  C_2
REMARK    2  A    between atoms: C_6  and  C_7
REMARK    3  A    between atoms: N_10  and  C_11
REMARK    4  A    between atoms: C_15  and  C_16
REMARK    5  A    between atoms: N_23  and  C_24
REMARK    6  A    between atoms: C_24  and  C_25
REMARK    7  A    between atoms: C_30  and  C_31
REMARK                            x       y       z     vdW  Elec       q    Type
REMARK                         _______ _______ _______ _____ _____    ______ ____
ROOT
ATOM      1  C   UNL     1      -2.925  10.072  15.449  0.00  0.00    +0.000 C 
ATOM      2  C   UNL     1      -2.723  10.638  16.819  0.00  0.00    +0.000 A 
ATOM      3  S   UNL     1      -1.144  10.672  17.450  0.00  0.00    +0.000 S 
ATOM      4  C   UNL     1      -1.656  11.438  18.861  0.00  0.00    +0.000 A 
ATOM      5  C   UNL     1      -3.008  11.632  18.926  0.00  0.00    +0.000 A 
ATOM      6  C   UNL     1      -3.654  11.174  17.707  0.00  0.00    +0.000 A 
ATOM      7  C   UNL     1      -5.118  11.260  17.391  0.00  0.00    +0.000 C 
ATOM      8  C   UNL     1      -3.560  12.238  20.132  0.00  0.00    +0.000 A 
ATOM      9  O   UNL     1      -4.775  12.348  20.288  0.00  0.00    +0.000 OA
ATOM     10  N   UNL     1      -2.600  12.706  21.054  0.00  0.00    +0.000 N 
ATOM     11  C   UNL     1      -1.202  12.592  20.896  0.00  0.00    +0.000 A 
ATOM     12  O   UNL     1      -0.396  13.107  21.679  0.00  0.00    +0.000 OA
ATOM     13  N   UNL     1      -0.735  11.826  19.817  0.00  0.00    +0.000 N 
ENDROOT
BRANCH  10  14
ATOM     14  C   UNL     1      -3.085  13.358  22.244  0.00  0.00    +0.000 A 
ATOM     15  C   UNL     1      -3.355  12.625  23.409  0.00  0.00    +0.000 A 
ATOM     16  C   UNL     1      -3.792  13.268  24.571  0.00  0.00    +0.000 A 
ATOM     17  C   UNL     1      -3.999  14.648  24.576  0.00  0.00    +0.000 A 
ATOM     18  C   UNL     1      -3.768  15.401  23.417  0.00  0.00    +0.000 A 
ATOM     19  C   UNL     1      -3.299  14.747  22.259  0.00  0.00    +0.000 A 
BRANCH  18  20
ATOM     20  C   UNL     1      -4.018  16.890  23.401  0.00  0.00    +0.000 C 
ATOM     21  F   UNL     1      -3.575  17.505  22.267  0.00  0.00    +0.000 F 
ATOM     22  F   UNL     1      -5.340  17.201  23.500  0.00  0.00    +0.000 F 
ATOM     23  F   UNL     1      -3.404  17.533  24.433  0.00  0.00    +0.000 F 
ENDBRANCH  18  20
ENDBRANCH  10  14
BRANCH  13  24
ATOM     24  C   UNL     1       0.698  11.505  19.749  0.00  0.00    +0.000 C 
BRANCH  24  25
ATOM     25  C   UNL     1       1.032  10.023  19.701  0.00  0.00    +0.000 A 
ATOM     26  C   UNL     1       1.521   9.445  18.515  0.00  0.00    +0.000 A 
ATOM     27  C   UNL     1       1.982   8.131  18.486  0.00  0.00    +0.000 A 
ATOM     28  C   UNL     1       1.964   7.362  19.643  0.00  0.00    +0.000 A 
ATOM     29  C   UNL     1       1.451   7.899  20.825  0.00  0.00    +0.000 A 
ATOM     30  C   UNL     1       0.982   9.221  20.862  0.00  0.00    +0.000 A 
BRANCH  30  31
ATOM     31  C   UNL     1       0.469   9.719  22.107  0.00  0.00    +0.000 C 
ATOM     32  N   UNL     1       0.041  10.122  23.115  0.00  0.00    +0.000 NA
ENDBRANCH  30  31
ENDBRANCH  24  25
ENDBRANCH  13  24
TORSDOF 5
ENDMDL
MODEL 7
REMARK VINA RESULT:      -7.4      4.671      9.427
REMARK  Name = 
REMARK  7 active torsions:
REMARK  status: ('A' for Active; 'I' for Inactive)
REMARK    1  A    between atoms: C_1  and  C_2
REMARK    2  A    between atoms: C_6  and  C_7
REMARK    3  A    between atoms: N_10  and  C_11
REMARK    4  A    between atoms: C_15  and  C_16
REMARK    5  A    between atoms: N_23  and  C_24
REMARK    6  A    between atoms: C_24  and  C_25
REMARK    7  A    between atoms: C_30  and  C_31
REMARK                            x       y       z     vdW  Elec       q    Type
REMARK                         _______ _______ _______ _____ _____    ______ ____
ROOT
ATOM      1  C   UNL     1      -5.414  13.199  19.627  0.00  0.00    +0.000 C 
ATOM      2  C   UNL     1      -4.033  12.625  19.655  0.00  0.00    +0.000 A 
ATOM      3  S   UNL     1      -2.941  13.215  20.819  0.00  0.00    +0.000 S 
ATOM      4  C   UNL     1      -1.736  12.147  20.323  0.00  0.00    +0.000 A 
ATOM      5  C   UNL     1      -2.088  11.374  19.251  0.00  0.00    +0.000 A 
ATOM      6  C   UNL     1      -3.461  11.639  18.854  0.00  0.00    +0.000 A 
ATOM      7  C   UNL     1      -4.213  10.957  17.750  0.00  0.00    +0.000 C 
ATOM      8  C   UNL     1      -1.095  10.454  18.708  0.00  0.00    +0.000 A 
ATOM      9  O   UNL     1      -1.320   9.807  17.688  0.00  0.00    +0.000 OA
ATOM     10  N   UNL     1       0.094  10.353  19.462  0.00  0.00    +0.000 N 
ATOM     11  C   UNL     1       0.375  11.085  20.636  0.00  0.00    +0.000 A 
ATOM     12  O   UNL     1       1.385  10.889  21.321  0.00  0.00    +0.000 OA
ATOM     13  N   UNL     1      -0.530  12.095  20.998  0.00  0.00    +0.000 N 
ENDROOT
BRANCH  10  14
ATOM     14  C   UNL     1       1.094   9.423  19.001  0.00  0.00    +0.000 A 
ATOM     15  C   UNL     1       1.938   9.746  17.928  0.00  0.00    +0.000 A 
ATOM     16  C   UNL     1       2.930   8.854  17.510  0.00  0.00    +0.000 A 
ATOM     17  C   UNL     1       3.070   7.613  18.132  0.00  0.00    +0.000 A 
ATOM     18  C   UNL     1       2.219   7.252  19.185  0.00  0.00    +0.000 A 
ATOM     19  C   UNL     1       1.242   8.170  19.620  0.00  0.00    +0.000 A 
BRANCH  18  20
ATOM     20  C   UNL     1       2.341   5.900  19.847  0.00  0.00    +0.000 C 
ATOM     21  F   UNL     1       1.737   4.895  19.148  0.00  0.00    +0.000 F 
ATOM     22  F   UNL     1       3.636   5.511  20.010  0.00  0.00    +0.000 F 
ATOM     23  F   UNL     1       1.782   5.874  21.088  0.00  0.00    +0.000 F 
ENDBRANCH  18  20
ENDBRANCH  10  14
BRANCH  13  24
ATOM     24  C   UNL     1      -0.159  13.017  22.081  0.00  0.00    +0.000 C 
BRANCH  24  25
ATOM     25  C   UNL     1       0.377  14.368  21.633  0.00  0.00    +0.000 A 
ATOM     26  C   UNL     1       1.205  14.459  20.499  0.00  0.00    +0.000 A 
ATOM     27  C   UNL     1       1.582  15.694  19.975  0.00  0.00    +0.000 A 
ATOM     28  C   UNL     1       1.139  16.867  20.574  0.00  0.00    +0.000 A 
ATOM     29  C   UNL     1       0.346  16.805  21.721  0.00  0.00    +0.000 A 
ATOM     30  C   UNL     1      -0.036  15.565  22.256  0.00  0.00    +0.000 A 
BRANCH  30  31
ATOM     31  C   UNL     1      -0.855  15.564  23.435  0.00  0.00    +0.000 C 
ATOM     32  N   UNL     1      -1.529  15.555  24.387  0.00  0.00    +0.000 NA
ENDBRANCH  30  31
ENDBRANCH  24  25
ENDBRANCH  13  24
TORSDOF 5
ENDMDL
MODEL 8
REMARK VINA RESULT:      -7.3      1.419      2.054
REMARK  Name = 
REMARK  7 active torsions:
REMARK  status: ('A' for Active; 'I' for Inactive)
REMARK    1  A    between atoms: C_1  and  C_2
REMARK    2  A    between atoms: C_6  and  C_7
REMARK    3  A    between atoms: N_10  and  C_11
REMARK    4  A    between atoms: C_15  and  C_16
REMARK    5  A    between atoms: N_23  and  C_24
REMARK    6  A    between atoms: C_24  and  C_25
REMARK    7  A    between atoms: C_30  and  C_31
REMARK                            x       y       z     vdW  Elec       q    Type
REMARK                         _______ _______ _______ _____ _____    ______ ____
ROOT
ATOM      1  C   UNL     1       4.311   2.503  19.999  0.00  0.00    +0.000 C 
ATOM      2  C   UNL     1       3.842   3.898  19.734  0.00  0.00    +0.000 A 
ATOM      3  S   UNL     1       4.691   4.830  18.592  0.00  0.00    +0.000 S 
ATOM      4  C   UNL     1       3.633   6.129  18.770  0.00  0.00    +0.000 A 
ATOM      5  C   UNL     1       2.668   5.931  19.718  0.00  0.00    +0.000 A 
ATOM      6  C   UNL     1       2.771   4.598  20.288  0.00  0.00    +0.000 A 
ATOM      7  C   UNL     1       1.863   4.002  21.323  0.00  0.00    +0.000 C 
ATOM      8  C   UNL     1       1.734   7.018  19.989  0.00  0.00    +0.000 A 
ATOM      9  O   UNL     1       0.909   6.934  20.896  0.00  0.00    +0.000 OA
ATOM     10  N   UNL     1       1.840   8.122  19.116  0.00  0.00    +0.000 N 
ATOM     11  C   UNL     1       2.779   8.241  18.069  0.00  0.00    +0.000 A 
ATOM     12  O   UNL     1       2.769   9.179  17.265  0.00  0.00    +0.000 OA
ATOM     13  N   UNL     1       3.776   7.257  17.982  0.00  0.00    +0.000 N 
ENDROOT
BRANCH  10  14
ATOM     14  C   UNL     1       0.912   9.208  19.306  0.00  0.00    +0.000 A 
ATOM     15  C   UNL     1       1.113  10.162  20.314  0.00  0.00    +0.000 A 
ATOM     16  C   UNL     1       0.228  11.233  20.468  0.00  0.00    +0.000 A 
ATOM     17  C   UNL     1      -0.890  11.347  19.642  0.00  0.00    +0.000 A 
ATOM     18  C   UNL     1      -1.133  10.391  18.647  0.00  0.00    +0.000 A 
ATOM     19  C   UNL     1      -0.219   9.332  18.479  0.00  0.00    +0.000 A 
BRANCH  18  20
ATOM     20  C   UNL     1      -2.356  10.488  17.766  0.00  0.00    +0.000 C 
ATOM     21  F   UNL     1      -2.064  10.612  16.439  0.00  0.00    +0.000 F 
ATOM     22  F   UNL     1      -3.163   9.396  17.867  0.00  0.00    +0.000 F 
ATOM     23  F   UNL     1      -3.137  11.561  18.073  0.00  0.00    +0.000 F 
ENDBRANCH  18  20
ENDBRANCH  10  14
BRANCH  13  24
ATOM     24  C   UNL     1       4.892   7.466  17.049  0.00  0.00    +0.000 C 
BRANCH  24  25
ATOM     25  C   UNL     1       5.494   6.201  16.459  0.00  0.00    +0.000 A 
ATOM     26  C   UNL     1       4.793   5.473  15.480  0.00  0.00    +0.000 A 
ATOM     27  C   UNL     1       5.385   4.403  14.811  0.00  0.00    +0.000 A 
ATOM     28  C   UNL     1       6.692   4.036  15.106  0.00  0.00    +0.000 A 
ATOM     29  C   UNL     1       7.397   4.718  16.099  0.00  0.00    +0.000 A 
ATOM     30  C   UNL     1       6.808   5.795  16.778  0.00  0.00    +0.000 A 
BRANCH  30  31
ATOM     31  C   UNL     1       7.584   6.461  17.786  0.00  0.00    +0.000 C 
ATOM     32  N   UNL     1       8.205   7.000  18.614  0.00  0.00    +0.000 NA
ENDBRANCH  30  31
ENDBRANCH  24  25
ENDBRANCH  13  24
TORSDOF 5
ENDMDL
MODEL 9
REMARK VINA RESULT:      -7.3      5.526      8.348
REMARK  Name = 
REMARK  7 active torsions:
REMARK  status: ('A' for Active; 'I' for Inactive)
REMARK    1  A    between atoms: C_1  and  C_2
REMARK    2  A    between atoms: C_6  and  C_7
REMARK    3  A    between atoms: N_10  and  C_11
REMARK    4  A    between atoms: C_15  and  C_16
REMARK    5  A    between atoms: N_23  and  C_24
REMARK    6  A    between atoms: C_24  and  C_25
REMARK    7  A    between atoms: C_30  and  C_31
REMARK                            x       y       z     vdW  Elec       q    Type
REMARK                         _______ _______ _______ _____ _____    ______ ____
ROOT
ATOM      1  C   UNL     1      -3.505  10.025  15.538  0.00  0.00    +0.000 C 
ATOM      2  C   UNL     1      -3.302  10.728  16.842  0.00  0.00    +0.000 A 
ATOM      3  S   UNL     1      -1.731  10.782  17.491  0.00  0.00    +0.000 S 
ATOM      4  C   UNL     1      -2.236  11.710  18.804  0.00  0.00    +0.000 A 
ATOM      5  C   UNL     1      -3.582  11.950  18.826  0.00  0.00    +0.000 A 
ATOM      6  C   UNL     1      -4.226  11.384  17.653  0.00  0.00    +0.000 A 
ATOM      7  C   UNL     1      -5.683  11.480  17.306  0.00  0.00    +0.000 C 
ATOM      8  C   UNL     1      -4.130  12.699  19.952  0.00  0.00    +0.000 A 
ATOM      9  O   UNL     1      -5.342  12.861  20.076  0.00  0.00    +0.000 OA
ATOM     10  N   UNL     1      -3.166  13.233  20.834  0.00  0.00    +0.000 N 
ATOM     11  C   UNL     1      -1.771  13.061  20.712  0.00  0.00    +0.000 A 
ATOM     12  O   UNL     1      -0.959  13.632  21.447  0.00  0.00    +0.000 OA
ATOM     13  N   UNL     1      -1.315  12.170  19.727  0.00  0.00    +0.000 N 
ENDROOT
BRANCH  10  14
ATOM     14  C   UNL     1      -3.646  14.023  21.940  0.00  0.00    +0.000 A 
ATOM     15  C   UNL     1      -3.899  13.437  23.188  0.00  0.00    +0.000 A 
ATOM     16  C   UNL     1      -4.330  14.215  24.267  0.00  0.00    +0.000 A 
ATOM     17  C   UNL     1      -4.548  15.583  24.105  0.00  0.00    +0.000 A 
ATOM     18  C   UNL     1      -4.333  16.190  22.860  0.00  0.00    +0.000 A 
ATOM     19  C   UNL     1      -3.870  15.402  21.786  0.00  0.00    +0.000 A 
BRANCH  18  20
ATOM     20  C   UNL     1      -4.594  17.665  22.664  0.00  0.00    +0.000 C 
ATOM     21  F   UNL     1      -3.466  18.429  22.718  0.00  0.00    +0.000 F 
ATOM     22  F   UNL     1      -5.171  17.940  21.463  0.00  0.00    +0.000 F 
ATOM     23  F   UNL     1      -5.432  18.175  23.609  0.00  0.00    +0.000 F 
ENDBRANCH  18  20
ENDBRANCH  10  14
BRANCH  13  24
ATOM     24  C   UNL     1       0.108  11.799  19.717  0.00  0.00    +0.000 C 
BRANCH  24  25
ATOM     25  C   UNL     1       0.464  10.557  20.517  0.00  0.00    +0.000 A 
ATOM     26  C   UNL     1       0.067  10.443  21.862  0.00  0.00    +0.000 A 
ATOM     27  C   UNL     1       0.241   9.256  22.570  0.00  0.00    +0.000 A 
ATOM     28  C   UNL     1       0.817   8.154  21.950  0.00  0.00    +0.000 A 
ATOM     29  C   UNL     1       1.252   8.251  20.627  0.00  0.00    +0.000 A 
ATOM     30  C   UNL     1       1.082   9.444  19.907  0.00  0.00    +0.000 A 
BRANCH  30  31
ATOM     31  C   UNL     1       1.546   9.482  18.549  0.00  0.00    +0.000 C 
ATOM     32  N   UNL     1       1.935   9.516  17.450  0.00  0.00    +0.000 NA
ENDBRANCH  30  31
ENDBRANCH  24  25
ENDBRANCH  13  24
TORSDOF 5
ENDMDL
