MODEL 1
REMARK VINA RESULT:      -7.9      0.000      0.000
REMARK  Name = 
REMARK  8 active torsions:
REMARK  status: ('A' for Active; 'I' for Inactive)
REMARK    1  A    between atoms: C_1  and  O_2
REMARK    2  A    between atoms: O_2  and  C_3
REMARK    3  A    between atoms: C_6  and  C_7
REMARK    4  A    between atoms: C_7  and  C_8
REMARK    5  A    between atoms: C_8  and  N_9
REMARK    6  A    between atoms: C_12  and  C_13
REMARK    7  A    between atoms: N_15  and  C_16
REMARK    8  A    between atoms: C_29  and  C_30
REMARK                            x       y       z     vdW  Elec       q    Type
REMARK                         _______ _______ _______ _____ _____    ______ ____
ROOT
ATOM      1  N   UNL     1      -0.487  10.971  20.351  0.00  0.00    +0.000 N 
ATOM      2  C   UNL     1       0.645  10.217  19.977  0.00  0.00    +0.000 A 
ATOM      3  N   UNL     1       1.713  10.060  20.720  0.00  0.00    +0.000 NA
ATOM      4  C   UNL     1       0.695   9.525  18.651  0.00  0.00    +0.000 A 
ATOM      5  C   UNL     1      -0.375   9.716  17.848  0.00  0.00    +0.000 A 
ATOM      6  C   UNL     1      -1.515  10.521  18.228  0.00  0.00    +0.000 A 
ATOM      7  C   UNL     1      -2.649  10.660  17.270  0.00  0.00    +0.000 A 
ATOM      8  O   UNL     1      -2.598  10.104  16.164  0.00  0.00    +0.000 OA
ATOM      9  N   UNL     1      -3.715  11.426  17.697  0.00  0.00    +0.000 N 
ATOM     10  C   UNL     1      -4.808  11.600  16.854  0.00  0.00    +0.000 A 
ATOM     11  C   UNL     1      -5.865  12.333  17.217  0.00  0.00    +0.000 A 
ATOM     12  C   UNL     1      -5.886  12.967  18.507  0.00  0.00    +0.000 A 
ATOM     13  C   UNL     1      -4.868  12.836  19.362  0.00  0.00    +0.000 A 
ATOM     14  C   UNL     1      -4.849  13.485  20.712  0.00  0.00    +0.000 C 
ATOM     15  C   UNL     1      -3.679  12.007  18.948  0.00  0.00    +0.000 A 
ATOM     16  N   UNL     1      -2.677  11.877  19.764  0.00  0.00    +0.000 NA
ATOM     17  C   UNL     1      -1.576  11.131  19.430  0.00  0.00    +0.000 A 
ATOM     18  H   UNL     1       1.663  10.550  21.609  0.00  0.00    +0.000 HD
ENDROOT
BRANCH   4  19
ATOM     19  C   UNL     1       1.781   8.648  18.149  0.00  0.00    +0.000 C 
ATOM     20  O   UNL     1       2.500   9.002  17.205  0.00  0.00    +0.000 OA
ATOM     21  N   UNL     1       1.913   7.444  18.787  0.00  0.00    +0.000 N 
ATOM     22  H   UNL     1       1.297   7.297  19.582  0.00  0.00    +0.000 HD
BRANCH  21  23
ATOM     23  C   UNL     1       2.880   6.416  18.437  0.00  0.00    +0.000 C 
ATOM     24  C   UNL     1       3.652   5.843  19.625  0.00  0.00    +0.000 C 
ATOM     25  C   UNL     1       4.215   4.527  19.108  0.00  0.00    +0.000 C 
ATOM     26  C   UNL     1       3.194   4.028  18.087  0.00  0.00    +0.000 C 
ATOM     27  C   UNL     1       2.207   5.174  17.850  0.00  0.00    +0.000 C 
ENDBRANCH  21  23
ENDBRANCH   4  19
BRANCH   1  28
ATOM     28  C   UNL     1      -0.421  11.693  21.635  0.00  0.00    +0.000 C 
BRANCH  28  29
ATOM     29  C   UNL     1      -1.377  11.278  22.742  0.00  0.00    +0.000 C 
BRANCH  29  33
ATOM     30  C   UNL     1      -3.398  14.636  24.527  0.00  0.00    +0.000 A 
ATOM     31  C   UNL     1      -2.109  14.768  24.019  0.00  0.00    +0.000 A 
ATOM     32  C   UNL     1      -1.479  13.690  23.416  0.00  0.00    +0.000 A 
ATOM     33  C   UNL     1      -2.119  12.448  23.340  0.00  0.00    +0.000 A 
ATOM     34  C   UNL     1      -3.421  12.317  23.835  0.00  0.00    +0.000 A 
ATOM     35  C   UNL     1      -4.057  13.409  24.425  0.00  0.00    +0.000 A 
BRANCH  30  37
ATOM     36  C   UNL     1      -3.220  16.950  24.847  0.00  0.00    +0.000 C 
ATOM     37  O   UNL     1      -3.937  15.749  25.109  0.00  0.00    +0.000 OA
ENDBRANCH  30  37
ENDBRANCH  29  33
ENDBRANCH  28  29
ENDBRANCH   1  28
TORSDOF 6
ENDMDL
MODEL 2
REMARK VINA RESULT:      -7.6      1.422      1.927
REMARK  Name = 
REMARK  8 active torsions:
REMARK  status: ('A' for Active; 'I' for Inactive)
REMARK    1  A    between atoms: C_1  and  O_2
REMARK    2  A    between atoms: O_2  and  C_3
REMARK    3  A    between atoms: C_6  and  C_7
REMARK    4  A    between atoms: C_7  and  C_8
REMARK    5  A    between atoms: C_8  and  N_9
REMARK    6  A    between atoms: C_12  and  C_13
REMARK    7  A    between atoms: N_15  and  C_16
REMARK    8  A    between atoms: C_29  and  C_30
REMARK                            x       y       z     vdW  Elec       q    Type
REMARK                         _______ _______ _______ _____ _____    ______ ____
ROOT
ATOM      1  N   UNL     1      -1.090  12.362  20.542  0.00  0.00    +0.000 N 
ATOM      2  C   UNL     1       0.108  11.660  20.293  0.00  0.00    +0.000 A 
ATOM      3  N   UNL     1       1.240  11.873  20.919  0.00  0.00    +0.000 NA
ATOM      4  C   UNL     1       0.157  10.585  19.253  0.00  0.00    +0.000 A 
ATOM      5  C   UNL     1      -0.985  10.385  18.561  0.00  0.00    +0.000 A 
ATOM      6  C   UNL     1      -2.197  11.136  18.801  0.00  0.00    +0.000 A 
ATOM      7  C   UNL     1      -3.408  10.829  17.987  0.00  0.00    +0.000 A 
ATOM      8  O   UNL     1      -3.360   9.954  17.112  0.00  0.00    +0.000 OA
ATOM      9  N   UNL     1      -4.538  11.568  18.274  0.00  0.00    +0.000 N 
ATOM     10  C   UNL     1      -5.704  11.335  17.553  0.00  0.00    +0.000 A 
ATOM     11  C   UNL     1      -6.826  12.024  17.789  0.00  0.00    +0.000 A 
ATOM     12  C   UNL     1      -6.841  13.035  18.810  0.00  0.00    +0.000 A 
ATOM     13  C   UNL     1      -5.753  13.304  19.538  0.00  0.00    +0.000 A 
ATOM     14  C   UNL     1      -5.728  14.354  20.607  0.00  0.00    +0.000 C 
ATOM     15  C   UNL     1      -4.492  12.524  19.268  0.00  0.00    +0.000 A 
ATOM     16  N   UNL     1      -3.424  12.779  19.962  0.00  0.00    +0.000 NA
ATOM     17  C   UNL     1      -2.256  12.092  19.751  0.00  0.00    +0.000 A 
ATOM     18  H   UNL     1       1.187  12.616  21.609  0.00  0.00    +0.000 HD
ENDROOT
BRANCH   4  19
ATOM     19  C   UNL     1       1.318   9.719  18.927  0.00  0.00    +0.000 C 
ATOM     20  O   UNL     1       2.185  10.093  18.127  0.00  0.00    +0.000 OA
ATOM     21  N   UNL     1       1.344   8.504  19.555  0.00  0.00    +0.000 N 
ATOM     22  H   UNL     1       0.603   8.340  20.230  0.00  0.00    +0.000 HD
BRANCH  21  23
ATOM     23  C   UNL     1       2.362   7.484  19.355  0.00  0.00    +0.000 C 
ATOM     24  C   UNL     1       2.186   6.237  20.220  0.00  0.00    +0.000 C 
ATOM     25  C   UNL     1       3.031   5.176  19.528  0.00  0.00    +0.000 C 
ATOM     26  C   UNL     1       2.977   5.529  18.043  0.00  0.00    +0.000 C 
ATOM     27  C   UNL     1       2.327   6.911  17.938  0.00  0.00    +0.000 C 
ENDBRANCH  21  23
ENDBRANCH   4  19
BRANCH   1  28
ATOM     28  C   UNL     1      -1.031  13.466  21.521  0.00  0.00    +0.000 C 
BRANCH  28  29
ATOM     29  C   UNL     1      -1.332  13.149  22.978  0.00  0.00    +0.000 C 
BRANCH  29  33
ATOM     30  C   UNL     1      -5.391  14.138  24.018  0.00  0.00    +0.000 A 
ATOM     31  C   UNL     1      -4.994  12.812  23.881  0.00  0.00    +0.000 A 
ATOM     32  C   UNL     1      -3.677  12.501  23.578  0.00  0.00    +0.000 A 
ATOM     33  C   UNL     1      -2.738  13.519  23.376  0.00  0.00    +0.000 A 
ATOM     34  C   UNL     1      -3.131  14.853  23.531  0.00  0.00    +0.000 A 
ATOM     35  C   UNL     1      -4.453  15.160  23.852  0.00  0.00    +0.000 A 
BRANCH  30  37
ATOM     36  C   UNL     1      -7.589  13.361  23.787  0.00  0.00    +0.000 C 
ATOM     37  O   UNL     1      -6.709  14.349  24.311  0.00  0.00    +0.000 OA
ENDBRANCH  30  37
ENDBRANCH  29  33
ENDBRANCH  28  29
ENDBRANCH   1  28
TORSDOF 6
ENDMDL
MODEL 3
REMARK VINA RESULT:      -7.5      0.696      1.213
REMARK  Name = 
REMARK  8 active torsions:
REMARK  status: ('A' for Active; 'I' for Inactive)
REMARK    1  A    between atoms: C_1  and  O_2
REMARK    2  A    between atoms: O_2  and  C_3
REMARK    3  A    between atoms: C_6  and  C_7
REMARK    4  A    between atoms: C_7  and  C_8
REMARK    5  A    between atoms: C_8  and  N_9
REMARK    6  A    between atoms: C_12  and  C_13
REMARK    7  A    between atoms: N_15  and  C_16
REMARK    8  A    between atoms: C_29  and  C_30
REMARK                            x       y       z     vdW  Elec       q    Type
REMARK                         _______ _______ _______ _____ _____    ______ ____
ROOT
ATOM      1  N   UNL     1      -0.645  11.193  20.388  0.00  0.00    +0.000 N 
ATOM      2  C   UNL     1       0.500  10.450  20.029  0.00  0.00    +0.000 A 
ATOM      3  N   UNL     1       1.572  10.331  20.773  0.00  0.00    +0.000 NA
ATOM      4  C   UNL     1       0.558   9.727  18.721  0.00  0.00    +0.000 A 
ATOM      5  C   UNL     1      -0.517   9.879  17.917  0.00  0.00    +0.000 A 
ATOM      6  C   UNL     1      -1.670  10.672  18.280  0.00  0.00    +0.000 A 
ATOM      7  C   UNL     1      -2.809  10.767  17.323  0.00  0.00    +0.000 A 
ATOM      8  O   UNL     1      -2.751  10.185  16.231  0.00  0.00    +0.000 OA
ATOM      9  N   UNL     1      -3.887  11.524  17.734  0.00  0.00    +0.000 N 
ATOM     10  C   UNL     1      -4.985  11.658  16.891  0.00  0.00    +0.000 A 
ATOM     11  C   UNL     1      -6.055  12.381  17.238  0.00  0.00    +0.000 A 
ATOM     12  C   UNL     1      -6.084  13.046  18.512  0.00  0.00    +0.000 A 
ATOM     13  C   UNL     1      -5.061  12.955  19.367  0.00  0.00    +0.000 A 
ATOM     14  C   UNL     1      -5.051  13.637  20.701  0.00  0.00    +0.000 C 
ATOM     15  C   UNL     1      -3.859  12.137  18.970  0.00  0.00    +0.000 A 
ATOM     16  N   UNL     1      -2.853  12.045  19.786  0.00  0.00    +0.000 NA
ATOM     17  C   UNL     1      -1.739  11.311  19.467  0.00  0.00    +0.000 A 
ATOM     18  H   UNL     1       1.516  10.842  21.649  0.00  0.00    +0.000 HD
ENDROOT
BRANCH   4  19
ATOM     19  C   UNL     1       1.658   8.857  18.237  0.00  0.00    +0.000 C 
ATOM     20  O   UNL     1       2.255   9.112  17.183  0.00  0.00    +0.000 OA
ATOM     21  N   UNL     1       1.945   7.773  19.023  0.00  0.00    +0.000 N 
ATOM     22  H   UNL     1       1.421   7.707  19.890  0.00  0.00    +0.000 HD
BRANCH  21  23
ATOM     23  C   UNL     1       2.953   6.769  18.722  0.00  0.00    +0.000 C 
ATOM     24  C   UNL     1       2.398   5.465  18.152  0.00  0.00    +0.000 C 
ATOM     25  C   UNL     1       3.600   4.797  17.500  0.00  0.00    +0.000 C 
ATOM     26  C   UNL     1       4.484   5.945  17.019  0.00  0.00    +0.000 C 
ATOM     27  C   UNL     1       3.910   7.230  17.622  0.00  0.00    +0.000 C 
ENDBRANCH  21  23
ENDBRANCH   4  19
BRANCH   1  28
ATOM     28  C   UNL     1      -0.588  11.948  21.654  0.00  0.00    +0.000 C 
BRANCH  28  29
ATOM     29  C   UNL     1      -1.522  11.532  22.781  0.00  0.00    +0.000 C 
BRANCH  29  33
ATOM     30  C   UNL     1      -4.104  14.717  24.096  0.00  0.00    +0.000 A 
ATOM     31  C   UNL     1      -4.448  13.386  24.312  0.00  0.00    +0.000 A 
ATOM     32  C   UNL     1      -3.594  12.367  23.915  0.00  0.00    +0.000 A 
ATOM     33  C   UNL     1      -2.392  12.665  23.263  0.00  0.00    +0.000 A 
ATOM     34  C   UNL     1      -2.037  14.003  23.060  0.00  0.00    +0.000 A 
ATOM     35  C   UNL     1      -2.891  15.024  23.476  0.00  0.00    +0.000 A 
BRANCH  30  37
ATOM     36  C   UNL     1      -4.710  16.980  24.101  0.00  0.00    +0.000 C 
ATOM     37  O   UNL     1      -5.009  15.652  24.515  0.00  0.00    +0.000 OA
ENDBRANCH  30  37
ENDBRANCH  29  33
ENDBRANCH  28  29
ENDBRANCH   1  28
TORSDOF 6
ENDMDL
MODEL 4
REMARK VINA RESULT:      -7.3      2.390      3.541
REMARK  Name = 
REMARK  8 active torsions:
REMARK  status: ('A' for Active; 'I' for Inactive)
REMARK    1  A    between atoms: C_1  and  O_2
REMARK    2  A    between atoms: O_2  and  C_3
REMARK    3  A    between atoms: C_6  and  C_7
REMARK    4  A    between atoms: C_7  and  C_8
REMARK    5  A    between atoms: C_8  and  N_9
REMARK    6  A    between atoms: C_12  and  C_13
REMARK    7  A    between atoms: N_15  and  C_16
REMARK    8  A    between atoms: C_29  and  C_30
REMARK                            x       y       z     vdW  Elec       q    Type
REMARK                         _______ _______ _______ _____ _____    ______ ____
ROOT
ATOM      1  N   UNL     1      -0.520  10.771  20.417  0.00  0.00    +0.000 N 
ATOM      2  C   UNL     1       0.622  10.041  20.024  0.00  0.00    +0.000 A 
ATOM      3  N   UNL     1       1.663   9.819  20.789  0.00  0.00    +0.000 NA
ATOM      4  C   UNL     1       0.715   9.457  18.650  0.00  0.00    +0.000 A 
ATOM      5  C   UNL     1      -0.325   9.718  17.829  0.00  0.00    +0.000 A 
ATOM      6  C   UNL     1      -1.474  10.497  18.231  0.00  0.00    +0.000 A 
ATOM      7  C   UNL     1      -2.573  10.720  17.249  0.00  0.00    +0.000 A 
ATOM      8  O   UNL     1      -2.485  10.253  16.105  0.00  0.00    +0.000 OA
ATOM      9  N   UNL     1      -3.650  11.457  17.698  0.00  0.00    +0.000 N 
ATOM     10  C   UNL     1      -4.712  11.704  16.835  0.00  0.00    +0.000 A 
ATOM     11  C   UNL     1      -5.779  12.414  17.217  0.00  0.00    +0.000 A 
ATOM     12  C   UNL     1      -5.842  12.943  18.552  0.00  0.00    +0.000 A 
ATOM     13  C   UNL     1      -4.855  12.738  19.429  0.00  0.00    +0.000 A 
ATOM     14  C   UNL     1      -4.882  13.278  20.826  0.00  0.00    +0.000 C 
ATOM     15  C   UNL     1      -3.656  11.936  18.992  0.00  0.00    +0.000 A 
ATOM     16  N   UNL     1      -2.684  11.736  19.830  0.00  0.00    +0.000 NA
ATOM     17  C   UNL     1      -1.575  11.011  19.475  0.00  0.00    +0.000 A 
ATOM     18  H   UNL     1       1.583  10.237  21.712  0.00  0.00    +0.000 HD
ENDROOT
BRANCH   4  19
ATOM     19  C   UNL     1       1.815   8.614  18.118  0.00  0.00    +0.000 C 
ATOM     20  O   UNL     1       2.554   9.029  17.215  0.00  0.00    +0.000 OA
ATOM     21  N   UNL     1       1.936   7.373  18.681  0.00  0.00    +0.000 N 
ATOM     22  H   UNL     1       1.303   7.175  19.451  0.00  0.00    +0.000 HD
BRANCH  21  23
ATOM     23  C   UNL     1       2.914   6.370  18.288  0.00  0.00    +0.000 C 
ATOM     24  C   UNL     1       3.856   5.932  19.408  0.00  0.00    +0.000 C 
ATOM     25  C   UNL     1       4.430   4.610  18.922  0.00  0.00    +0.000 C 
ATOM     26  C   UNL     1       3.326   3.982  18.074  0.00  0.00    +0.000 C 
ATOM     27  C   UNL     1       2.251   5.054  17.880  0.00  0.00    +0.000 C 
ENDBRANCH  21  23
ENDBRANCH   4  19
BRANCH   1  28
ATOM     28  C   UNL     1      -0.495  11.388  21.757  0.00  0.00    +0.000 C 
BRANCH  28  29
ATOM     29  C   UNL     1      -0.376  12.902  21.848  0.00  0.00    +0.000 C 
BRANCH  29  33
ATOM     30  C   UNL     1       2.126  14.626  18.796  0.00  0.00    +0.000 A 
ATOM     31  C   UNL     1       2.679  13.884  19.835  0.00  0.00    +0.000 A 
ATOM     32  C   UNL     1       1.863  13.305  20.796  0.00  0.00    +0.000 A 
ATOM     33  C   UNL     1       0.476  13.485  20.748  0.00  0.00    +0.000 A 
ATOM     34  C   UNL     1      -0.083  14.216  19.695  0.00  0.00    +0.000 A 
ATOM     35  C   UNL     1       0.740  14.783  18.722  0.00  0.00    +0.000 A 
BRANCH  30  37
ATOM     36  C   UNL     1       4.371  14.868  18.174  0.00  0.00    +0.000 C 
ATOM     37  O   UNL     1       3.007  15.164  17.901  0.00  0.00    +0.000 OA
ENDBRANCH  30  37
ENDBRANCH  29  33
ENDBRANCH  28  29
ENDBRANCH   1  28
TORSDOF 6
ENDMDL
MODEL 5
REMARK VINA RESULT:      -7.3      1.031      1.082
REMARK  Name = 
REMARK  8 active torsions:
REMARK  status: ('A' for Active; 'I' for Inactive)
REMARK    1  A    between atoms: C_1  and  O_2
REMARK    2  A    between atoms: O_2  and  C_3
REMARK    3  A    between atoms: C_6  and  C_7
REMARK    4  A    between atoms: C_7  and  C_8
REMARK    5  A    between atoms: C_8  and  N_9
REMARK    6  A    between atoms: C_12  and  C_13
REMARK    7  A    between atoms: N_15  and  C_16
REMARK    8  A    between atoms: C_29  and  C_30
REMARK                            x       y       z     vdW  Elec       q    Type
REMARK                         _______ _______ _______ _____ _____    ______ ____
ROOT
ATOM      1  N   UNL     1      -0.802  11.963  20.318  0.00  0.00    +0.000 N 
ATOM      2  C   UNL     1       0.362  11.244  19.971  0.00  0.00    +0.000 A 
ATOM      3  N   UNL     1       1.526  11.385  20.557  0.00  0.00    +0.000 NA
ATOM      4  C   UNL     1       0.332  10.237  18.864  0.00  0.00    +0.000 A 
ATOM      5  C   UNL     1      -0.844  10.114  18.213  0.00  0.00    +0.000 A 
ATOM      6  C   UNL     1      -2.021  10.882  18.554  0.00  0.00    +0.000 A 
ATOM      7  C   UNL     1      -3.274  10.663  17.777  0.00  0.00    +0.000 A 
ATOM      8  O   UNL     1      -3.292   9.844  16.848  0.00  0.00    +0.000 OA
ATOM      9  N   UNL     1      -4.367  11.413  18.161  0.00  0.00    +0.000 N 
ATOM     10  C   UNL     1      -5.570  11.260  17.480  0.00  0.00    +0.000 A 
ATOM     11  C   UNL     1      -6.659  11.963  17.809  0.00  0.00    +0.000 A 
ATOM     12  C   UNL     1      -6.599  12.907  18.891  0.00  0.00    +0.000 A 
ATOM     13  C   UNL     1      -5.473  13.098  19.586  0.00  0.00    +0.000 A 
ATOM     14  C   UNL     1      -5.369  14.076  20.716  0.00  0.00    +0.000 C 
ATOM     15  C   UNL     1      -4.250  12.301  19.211  0.00  0.00    +0.000 A 
ATOM     16  N   UNL     1      -3.145  12.481  19.870  0.00  0.00    +0.000 NA
ATOM     17  C   UNL     1      -2.009  11.777  19.564  0.00  0.00    +0.000 A 
ATOM     18  H   UNL     1       1.525  12.083  21.295  0.00  0.00    +0.000 HD
ENDROOT
BRANCH   4  19
ATOM     19  C   UNL     1       1.450   9.362  18.433  0.00  0.00    +0.000 C 
ATOM     20  O   UNL     1       2.118   9.633  17.426  0.00  0.00    +0.000 OA
ATOM     21  N   UNL     1       1.670   8.256  19.209  0.00  0.00    +0.000 N 
ATOM     22  H   UNL     1       1.090   8.178  20.039  0.00  0.00    +0.000 HD
BRANCH  21  23
ATOM     23  C   UNL     1       2.683   7.244  18.951  0.00  0.00    +0.000 C 
ATOM     24  C   UNL     1       2.866   6.231  20.079  0.00  0.00    +0.000 C 
ATOM     25  C   UNL     1       3.581   5.059  19.420  0.00  0.00    +0.000 C 
ATOM     26  C   UNL     1       3.090   5.053  17.974  0.00  0.00    +0.000 C 
ATOM     27  C   UNL     1       2.312   6.354  17.763  0.00  0.00    +0.000 C 
ENDBRANCH  21  23
ENDBRANCH   4  19
BRANCH   1  28
ATOM     28  C   UNL     1      -0.667  12.998  21.360  0.00  0.00    +0.000 C 
BRANCH  28  29
ATOM     29  C   UNL     1      -1.217  12.698  22.746  0.00  0.00    +0.000 C 
BRANCH  29  33
ATOM     30  C   UNL     1      -4.254  15.498  23.961  0.00  0.00    +0.000 A 
ATOM     31  C   UNL     1      -3.232  15.885  23.100  0.00  0.00    +0.000 A 
ATOM     32  C   UNL     1      -2.277  14.968  22.688  0.00  0.00    +0.000 A 
ATOM     33  C   UNL     1      -2.312  13.650  23.157  0.00  0.00    +0.000 A 
ATOM     34  C   UNL     1      -3.349  13.255  24.009  0.00  0.00    +0.000 A 
ATOM     35  C   UNL     1      -4.316  14.176  24.407  0.00  0.00    +0.000 A 
BRANCH  30  37
ATOM     36  C   UNL     1      -4.630  17.425  25.238  0.00  0.00    +0.000 C 
ATOM     37  O   UNL     1      -5.146  16.470  24.318  0.00  0.00    +0.000 OA
ENDBRANCH  30  37
ENDBRANCH  29  33
ENDBRANCH  28  29
ENDBRANCH   1  28
TORSDOF 6
ENDMDL
MODEL 6
REMARK VINA RESULT:      -7.3      2.476      2.845
REMARK  Name = 
REMARK  8 active torsions:
REMARK  status: ('A' for Active; 'I' for Inactive)
REMARK    1  A    between atoms: C_1  and  O_2
REMARK    2  A    between atoms: O_2  and  C_3
REMARK    3  A    between atoms: C_6  and  C_7
REMARK    4  A    between atoms: C_7  and  C_8
REMARK    5  A    between atoms: C_8  and  N_9
REMARK    6  A    between atoms: C_12  and  C_13
REMARK    7  A    between atoms: N_15  and  C_16
REMARK    8  A    between atoms: C_29  and  C_30
REMARK                            x       y       z     vdW  Elec       q    Type
REMARK                         _______ _______ _______ _____ _____    ______ ____
ROOT
ATOM      1  N   UNL     1      -1.024  11.571  20.699  0.00  0.00    +0.000 N 
ATOM      2  C   UNL     1       0.155  10.867  20.373  0.00  0.00    +0.000 A 
ATOM      3  N   UNL     1       1.206  10.776  21.150  0.00  0.00    +0.000 NA
ATOM      4  C   UNL     1       0.278  10.156  19.062  0.00  0.00    +0.000 A 
ATOM      5  C   UNL     1      -0.775  10.280  18.225  0.00  0.00    +0.000 A 
ATOM      6  C   UNL     1      -1.964  11.034  18.556  0.00  0.00    +0.000 A 
ATOM      7  C   UNL     1      -3.074  11.101  17.563  0.00  0.00    +0.000 A 
ATOM      8  O   UNL     1      -2.962  10.529  16.470  0.00  0.00    +0.000 OA
ATOM      9  N   UNL     1      -4.188  11.820  17.944  0.00  0.00    +0.000 N 
ATOM     10  C   UNL     1      -5.262  11.925  17.066  0.00  0.00    +0.000 A 
ATOM     11  C   UNL     1      -6.365  12.612  17.384  0.00  0.00    +0.000 A 
ATOM     12  C   UNL     1      -6.455  13.266  18.660  0.00  0.00    +0.000 A 
ATOM     13  C   UNL     1      -5.458  13.201  19.547  0.00  0.00    +0.000 A 
ATOM     14  C   UNL     1      -5.512  13.873  20.885  0.00  0.00    +0.000 C 
ATOM     15  C   UNL     1      -4.218  12.424  19.184  0.00  0.00    +0.000 A 
ATOM     16  N   UNL     1      -3.237  12.358  20.032  0.00  0.00    +0.000 NA
ATOM     17  C   UNL     1      -2.091  11.661  19.744  0.00  0.00    +0.000 A 
ATOM     18  H   UNL     1       1.105  11.278  22.027  0.00  0.00    +0.000 HD
ENDROOT
BRANCH   4  19
ATOM     19  C   UNL     1       1.420   9.324  18.609  0.00  0.00    +0.000 C 
ATOM     20  O   UNL     1       2.089   9.648  17.618  0.00  0.00    +0.000 OA
ATOM     21  N   UNL     1       1.661   8.197  19.346  0.00  0.00    +0.000 N 
ATOM     22  H   UNL     1       1.076   8.074  20.167  0.00  0.00    +0.000 HD
BRANCH  21  23
ATOM     23  C   UNL     1       2.700   7.219  19.060  0.00  0.00    +0.000 C 
ATOM     24  C   UNL     1       2.828   6.110  20.102  0.00  0.00    +0.000 C 
ATOM     25  C   UNL     1       3.597   5.008  19.386  0.00  0.00    +0.000 C 
ATOM     26  C   UNL     1       3.193   5.128  17.918  0.00  0.00    +0.000 C 
ATOM     27  C   UNL     1       2.412   6.437  17.778  0.00  0.00    +0.000 C 
ENDBRANCH  21  23
ENDBRANCH   4  19
BRANCH   1  28
ATOM     28  C   UNL     1      -1.031  12.317  21.971  0.00  0.00    +0.000 C 
BRANCH  28  29
ATOM     29  C   UNL     1      -0.170  13.566  22.075  0.00  0.00    +0.000 C 
BRANCH  29  33
ATOM     30  C   UNL     1      -1.270  16.711  19.348  0.00  0.00    +0.000 A 
ATOM     31  C   UNL     1      -0.108  15.971  19.150  0.00  0.00    +0.000 A 
ATOM     32  C   UNL     1       0.221  14.938  20.015  0.00  0.00    +0.000 A 
ATOM     33  C   UNL     1      -0.595  14.649  21.114  0.00  0.00    +0.000 A 
ATOM     34  C   UNL     1      -1.772  15.380  21.305  0.00  0.00    +0.000 A 
ATOM     35  C   UNL     1      -2.107  16.407  20.423  0.00  0.00    +0.000 A 
BRANCH  30  37
ATOM     36  C   UNL     1      -0.513  17.845  17.442  0.00  0.00    +0.000 C 
ATOM     37  O   UNL     1      -1.510  17.713  18.449  0.00  0.00    +0.000 OA
ENDBRANCH  30  37
ENDBRANCH  29  33
ENDBRANCH  28  29
ENDBRANCH   1  28
TORSDOF 6
ENDMDL
MODEL 7
REMARK VINA RESULT:      -7.2      1.001      1.382
REMARK  Name = 
REMARK  8 active torsions:
REMARK  status: ('A' for Active; 'I' for Inactive)
REMARK    1  A    between atoms: C_1  and  O_2
REMARK    2  A    between atoms: O_2  and  C_3
REMARK    3  A    between atoms: C_6  and  C_7
REMARK    4  A    between atoms: C_7  and  C_8
REMARK    5  A    between atoms: C_8  and  N_9
REMARK    6  A    between atoms: C_12  and  C_13
REMARK    7  A    between atoms: N_15  and  C_16
REMARK    8  A    between atoms: C_29  and  C_30
REMARK                            x       y       z     vdW  Elec       q    Type
REMARK                         _______ _______ _______ _____ _____    ______ ____
ROOT
ATOM      1  N   UNL     1      -1.009  11.357  20.925  0.00  0.00    +0.000 N 
ATOM      2  C   UNL     1       0.178  10.641  20.659  0.00  0.00    +0.000 A 
ATOM      3  N   UNL     1       1.175  10.515  21.500  0.00  0.00    +0.000 NA
ATOM      4  C   UNL     1       0.374   9.956  19.343  0.00  0.00    +0.000 A 
ATOM      5  C   UNL     1      -0.620  10.116  18.443  0.00  0.00    +0.000 A 
ATOM      6  C   UNL     1      -1.816  10.883  18.714  0.00  0.00    +0.000 A 
ATOM      7  C   UNL     1      -2.859  10.990  17.654  0.00  0.00    +0.000 A 
ATOM      8  O   UNL     1      -2.686  10.440  16.558  0.00  0.00    +0.000 OA
ATOM      9  N   UNL     1      -3.984  11.719  17.979  0.00  0.00    +0.000 N 
ATOM     10  C   UNL     1      -4.998  11.862  17.037  0.00  0.00    +0.000 A 
ATOM     11  C   UNL     1      -6.108  12.560  17.299  0.00  0.00    +0.000 A 
ATOM     12  C   UNL     1      -6.270  13.187  18.582  0.00  0.00    +0.000 A 
ATOM     13  C   UNL     1      -5.333  13.086  19.529  0.00  0.00    +0.000 A 
ATOM     14  C   UNL     1      -5.463  13.730  20.876  0.00  0.00    +0.000 C 
ATOM     15  C   UNL     1      -4.085  12.296  19.229  0.00  0.00    +0.000 A 
ATOM     16  N   UNL     1      -3.161  12.196  20.136  0.00  0.00    +0.000 NA
ATOM     17  C   UNL     1      -2.010  11.486  19.906  0.00  0.00    +0.000 A 
ATOM     18  H   UNL     1       1.026  10.999  22.380  0.00  0.00    +0.000 HD
ENDROOT
BRANCH   4  19
ATOM     19  C   UNL     1       1.530   9.115  18.945  0.00  0.00    +0.000 C 
ATOM     20  O   UNL     1       2.318   9.491  18.067  0.00  0.00    +0.000 OA
ATOM     21  N   UNL     1       1.646   7.919  19.600  0.00  0.00    +0.000 N 
ATOM     22  H   UNL     1       0.968   7.753  20.338  0.00  0.00    +0.000 HD
BRANCH  21  23
ATOM     23  C   UNL     1       2.676   6.924  19.344  0.00  0.00    +0.000 C 
ATOM     24  C   UNL     1       2.550   5.653  20.183  0.00  0.00    +0.000 C 
ATOM     25  C   UNL     1       3.392   4.626  19.439  0.00  0.00    +0.000 C 
ATOM     26  C   UNL     1       3.285   5.014  17.965  0.00  0.00    +0.000 C 
ATOM     27  C   UNL     1       2.606   6.385  17.914  0.00  0.00    +0.000 C 
ENDBRANCH  21  23
ENDBRANCH   4  19
BRANCH   1  28
ATOM     28  C   UNL     1      -1.086  12.076  22.211  0.00  0.00    +0.000 C 
BRANCH  28  29
ATOM     29  C   UNL     1      -0.849  13.578  22.209  0.00  0.00    +0.000 C 
BRANCH  29  33
ATOM     30  C   UNL     1      -4.118  15.687  24.054  0.00  0.00    +0.000 A 
ATOM     31  C   UNL     1      -3.964  14.316  24.234  0.00  0.00    +0.000 A 
ATOM     32  C   UNL     1      -2.889  13.650  23.663  0.00  0.00    +0.000 A 
ATOM     33  C   UNL     1      -1.965  14.344  22.874  0.00  0.00    +0.000 A 
ATOM     34  C   UNL     1      -2.109  15.726  22.707  0.00  0.00    +0.000 A 
ATOM     35  C   UNL     1      -3.182  16.393  23.296  0.00  0.00    +0.000 A 
BRANCH  30  37
ATOM     36  C   UNL     1      -5.122  17.668  24.799  0.00  0.00    +0.000 C 
ATOM     37  O   UNL     1      -5.210  16.256  24.649  0.00  0.00    +0.000 OA
ENDBRANCH  30  37
ENDBRANCH  29  33
ENDBRANCH  28  29
ENDBRANCH   1  28
TORSDOF 6
ENDMDL
MODEL 8
REMARK VINA RESULT:      -7.2      4.637      8.698
REMARK  Name = 
REMARK  8 active torsions:
REMARK  status: ('A' for Active; 'I' for Inactive)
REMARK    1  A    between atoms: C_1  and  O_2
REMARK    2  A    between atoms: O_2  and  C_3
REMARK    3  A    between atoms: C_6  and  C_7
REMARK    4  A    between atoms: C_7  and  C_8
REMARK    5  A    between atoms: C_8  and  N_9
REMARK    6  A    between atoms: C_12  and  C_13
REMARK    7  A    between atoms: N_15  and  C_16
REMARK    8  A    between atoms: C_29  and  C_30
REMARK                            x       y       z     vdW  Elec       q    Type
REMARK                         _______ _______ _______ _____ _____    ______ ____
ROOT
ATOM      1  N   UNL     1       4.113   6.441  17.078  0.00  0.00    +0.000 N 
ATOM      2  C   UNL     1       4.834   6.274  15.877  0.00  0.00    +0.000 A 
ATOM      3  N   UNL     1       5.209   7.254  15.092  0.00  0.00    +0.000 NA
ATOM      4  C   UNL     1       5.226   4.907  15.409  0.00  0.00    +0.000 A 
ATOM      5  C   UNL     1       4.805   3.880  16.177  0.00  0.00    +0.000 A 
ATOM      6  C   UNL     1       4.035   4.061  17.388  0.00  0.00    +0.000 A 
ATOM      7  C   UNL     1       3.627   2.859  18.169  0.00  0.00    +0.000 A 
ATOM      8  O   UNL     1       3.934   1.727  17.770  0.00  0.00    +0.000 OA
ATOM      9  N   UNL     1       2.910   3.098  19.324  0.00  0.00    +0.000 N 
ATOM     10  C   UNL     1       2.495   2.023  20.102  0.00  0.00    +0.000 A 
ATOM     11  C   UNL     1       1.796   2.197  21.228  0.00  0.00    +0.000 A 
ATOM     12  C   UNL     1       1.454   3.526  21.656  0.00  0.00    +0.000 A 
ATOM     13  C   UNL     1       1.825   4.600  20.954  0.00  0.00    +0.000 A 
ATOM     14  C   UNL     1       1.483   6.000  21.364  0.00  0.00    +0.000 C 
ATOM     15  C   UNL     1       2.614   4.396  19.686  0.00  0.00    +0.000 A 
ATOM     16  N   UNL     1       2.975   5.430  18.987  0.00  0.00    +0.000 NA
ATOM     17  C   UNL     1       3.695   5.291  17.828  0.00  0.00    +0.000 A 
ATOM     18  H   UNL     1       4.920   8.170  15.421  0.00  0.00    +0.000 HD
ENDROOT
BRANCH   4  19
ATOM     19  C   UNL     1       6.038   4.580  14.210  0.00  0.00    +0.000 C 
ATOM     20  O   UNL     1       7.166   5.065  14.055  0.00  0.00    +0.000 OA
ATOM     21  N   UNL     1       5.450   3.732  13.311  0.00  0.00    +0.000 N 
ATOM     22  H   UNL     1       4.545   3.359  13.583  0.00  0.00    +0.000 HD
BRANCH  21  23
ATOM     23  C   UNL     1       6.045   3.309  12.052  0.00  0.00    +0.000 C 
ATOM     24  C   UNL     1       7.553   3.075  12.113  0.00  0.00    +0.000 C 
ATOM     25  C   UNL     1       7.851   2.223  10.888  0.00  0.00    +0.000 C 
ATOM     26  C   UNL     1       6.594   1.385  10.668  0.00  0.00    +0.000 C 
ATOM     27  C   UNL     1       5.517   1.947  11.600  0.00  0.00    +0.000 C 
ENDBRANCH  21  23
ENDBRANCH   4  19
BRANCH   1  28
ATOM     28  C   UNL     1       3.689   7.811  17.423  0.00  0.00    +0.000 C 
BRANCH  28  29
ATOM     29  C   UNL     1       2.200   8.119  17.437  0.00  0.00    +0.000 C 
BRANCH  29  33
ATOM     30  C   UNL     1       1.116  11.516  19.851  0.00  0.00    +0.000 A 
ATOM     31  C   UNL     1       0.821  10.222  20.270  0.00  0.00    +0.000 A 
ATOM     32  C   UNL     1       1.203   9.132  19.501  0.00  0.00    +0.000 A 
ATOM     33  C   UNL     1       1.862   9.323  18.282  0.00  0.00    +0.000 A 
ATOM     34  C   UNL     1       2.175  10.622  17.868  0.00  0.00    +0.000 A 
ATOM     35  C   UNL     1       1.803  11.713  18.652  0.00  0.00    +0.000 A 
BRANCH  30  37
ATOM     36  C   UNL     1      -0.235  12.122  21.667  0.00  0.00    +0.000 C 
ATOM     37  O   UNL     1       0.695  12.527  20.669  0.00  0.00    +0.000 OA
ENDBRANCH  30  37
ENDBRANCH  29  33
ENDBRANCH  28  29
ENDBRANCH   1  28
TORSDOF 6
ENDMDL
MODEL 9
REMARK VINA RESULT:      -7.1      4.559      8.224
REMARK  Name = 
REMARK  8 active torsions:
REMARK  status: ('A' for Active; 'I' for Inactive)
REMARK    1  A    between atoms: C_1  and  O_2
REMARK    2  A    between atoms: O_2  and  C_3
REMARK    3  A    between atoms: C_6  and  C_7
REMARK    4  A    between atoms: C_7  and  C_8
REMARK    5  A    between atoms: C_8  and  N_9
REMARK    6  A    between atoms: C_12  and  C_13
REMARK    7  A    between atoms: N_15  and  C_16
REMARK    8  A    between atoms: C_29  and  C_30
REMARK                            x       y       z     vdW  Elec       q    Type
REMARK                         _______ _______ _______ _____ _____    ______ ____
ROOT
ATOM      1  N   UNL     1       1.085  12.670  19.454  0.00  0.00    +0.000 N 
ATOM      2  C   UNL     1       2.178  13.058  18.650  0.00  0.00    +0.000 A 
ATOM      3  N   UNL     1       2.642  12.362  17.640  0.00  0.00    +0.000 NA
ATOM      4  C   UNL     1       2.902  14.340  18.917  0.00  0.00    +0.000 A 
ATOM      5  C   UNL     1       2.472  15.046  19.985  0.00  0.00    +0.000 A 
ATOM      6  C   UNL     1       1.374  14.621  20.824  0.00  0.00    +0.000 A 
ATOM      7  C   UNL     1       0.972  15.480  21.974  0.00  0.00    +0.000 A 
ATOM      8  O   UNL     1       1.585  16.530  22.207  0.00  0.00    +0.000 OA
ATOM      9  N   UNL     1      -0.094  15.030  22.727  0.00  0.00    +0.000 N 
ATOM     10  C   UNL     1      -0.523  15.780  23.816  0.00  0.00    +0.000 A 
ATOM     11  C   UNL     1      -1.548  15.389  24.580  0.00  0.00    +0.000 A 
ATOM     12  C   UNL     1      -2.233  14.161  24.281  0.00  0.00    +0.000 A 
ATOM     13  C   UNL     1      -1.870  13.397  23.247  0.00  0.00    +0.000 A 
ATOM     14  C   UNL     1      -2.554  12.108  22.907  0.00  0.00    +0.000 C 
ATOM     15  C   UNL     1      -0.714  13.844  22.389  0.00  0.00    +0.000 A 
ATOM     16  N   UNL     1      -0.343  13.108  21.386  0.00  0.00    +0.000 NA
ATOM     17  C   UNL     1       0.702  13.477  20.578  0.00  0.00    +0.000 A 
ATOM     18  H   UNL     1       2.144  11.490  17.487  0.00  0.00    +0.000 HD
ENDROOT
BRANCH   4  19
ATOM     19  C   UNL     1       4.018  14.909  18.122  0.00  0.00    +0.000 C 
ATOM     20  O   UNL     1       3.796  15.601  17.119  0.00  0.00    +0.000 OA
ATOM     21  N   UNL     1       5.276  14.607  18.566  0.00  0.00    +0.000 N 
ATOM     22  H   UNL     1       5.323  14.077  19.431  0.00  0.00    +0.000 HD
BRANCH  21  23
ATOM     23  C   UNL     1       6.511  15.023  17.920  0.00  0.00    +0.000 C 
ATOM     24  C   UNL     1       7.117  16.308  18.483  0.00  0.00    +0.000 C 
ATOM     25  C   UNL     1       8.565  16.279  18.012  0.00  0.00    +0.000 C 
ATOM     26  C   UNL     1       8.934  14.799  17.946  0.00  0.00    +0.000 C 
ATOM     27  C   UNL     1       7.636  14.008  18.128  0.00  0.00    +0.000 C 
ENDBRANCH  21  23
ENDBRANCH   4  19
BRANCH   1  28
ATOM     28  C   UNL     1       0.482  11.352  19.180  0.00  0.00    +0.000 C 
BRANCH  28  29
ATOM     29  C   UNL     1       0.672  10.248  20.210  0.00  0.00    +0.000 C 
BRANCH  29  33
ATOM     30  C   UNL     1       2.591   6.790  18.508  0.00  0.00    +0.000 A 
ATOM     31  C   UNL     1       2.307   7.904  17.725  0.00  0.00    +0.000 A 
ATOM     32  C   UNL     1       1.719   9.027  18.288  0.00  0.00    +0.000 A 
ATOM     33  C   UNL     1       1.375   9.039  19.645  0.00  0.00    +0.000 A 
ATOM     34  C   UNL     1       1.676   7.927  20.438  0.00  0.00    +0.000 A 
ATOM     35  C   UNL     1       2.282   6.807  19.870  0.00  0.00    +0.000 A 
BRANCH  30  37
ATOM     36  C   UNL     1       3.907   4.863  18.717  0.00  0.00    +0.000 C 
ATOM     37  O   UNL     1       3.165   5.728  17.865  0.00  0.00    +0.000 OA
ENDBRANCH  30  37
ENDBRANCH  29  33
ENDBRANCH  28  29
ENDBRANCH   1  28
TORSDOF 6
ENDMDL
