MODEL 1
REMARK VINA RESULT:      -7.2      0.000      0.000
REMARK  Name = 
REMARK  4 active torsions:
REMARK  status: ('A' for Active; 'I' for Inactive)
REMARK    1  A    between atoms: C_1  and  N_2
REMARK    2  A    between atoms: N_2  and  S_3
REMARK    3  A    between atoms: S_3  and  C_6
REMARK    4  A    between atoms: N_15  and  C_16
REMARK                            x       y       z     vdW  Elec       q    Type
REMARK                         _______ _______ _______ _____ _____    ______ ____
ROOT
ATOM      1  C   UNL     1       5.320   4.240  17.135  0.00  0.00    +0.000 A 
ATOM      2  C   UNL     1       5.572   4.456  18.507  0.00  0.00    +0.000 A 
ATOM      3  C   UNL     1       4.597   4.145  19.460  0.00  0.00    +0.000 A 
ATOM      4  C   UNL     1       3.407   3.626  18.994  0.00  0.00    +0.000 A 
ATOM      5  C   UNL     1       3.163   3.415  17.651  0.00  0.00    +0.000 A 
ATOM      6  C   UNL     1       4.098   3.719  16.687  0.00  0.00    +0.000 A 
ATOM      7  O   UNL     1       1.903   2.892  17.413  0.00  0.00    +0.000 OA
ATOM      8  C   UNL     1       1.360   2.798  18.702  0.00  0.00    +0.000 A 
ATOM      9  O   UNL     1       0.231   2.377  18.919  0.00  0.00    +0.000 OA
ATOM     10  N   UNL     1       2.265   3.236  19.649  0.00  0.00    +0.000 N 
ATOM     11  C   UNL     1       2.048   3.313  21.064  0.00  0.00    +0.000 C 
ENDROOT
BRANCH   1  12
ATOM     12  S   UNL     1       6.547   4.682  15.926  0.00  0.00    +0.000 S 
ATOM     13  O   UNL     1       7.852   4.467  16.506  0.00  0.00    +0.000 OA
ATOM     14  O   UNL     1       6.146   5.957  15.373  0.00  0.00    +0.000 OA
BRANCH  12  16
ATOM     15  C   UNL     1       6.361   3.936  13.333  0.00  0.00    +0.000 C 
ATOM     16  N   UNL     1       6.304   3.528  14.730  0.00  0.00    +0.000 NA
ATOM     17  H   UNL     1       6.659   2.605  14.976  0.00  0.00    +0.000 HD
ENDBRANCH  12  16
ENDBRANCH   1  12
TORSDOF 2
ENDMDL
MODEL 2
REMARK VINA RESULT:      -7.2      1.003      1.003
REMARK  Name = 
REMARK  4 active torsions:
REMARK  status: ('A' for Active; 'I' for Inactive)
REMARK    1  A    between atoms: C_1  and  N_2
REMARK    2  A    between atoms: N_2  and  S_3
REMARK    3  A    between atoms: S_3  and  C_6
REMARK    4  A    between atoms: N_15  and  C_16
REMARK                            x       y       z     vdW  Elec       q    Type
REMARK                         _______ _______ _______ _____ _____    ______ ____
ROOT
ATOM      1  C   UNL     1       5.344   5.009  17.437  0.00  0.00    +0.000 A 
ATOM      2  C   UNL     1       5.168   5.529  18.738  0.00  0.00    +0.000 A 
ATOM      3  C   UNL     1       4.039   5.183  19.488  0.00  0.00    +0.000 A 
ATOM      4  C   UNL     1       3.132   4.327  18.898  0.00  0.00    +0.000 A 
ATOM      5  C   UNL     1       3.307   3.819  17.625  0.00  0.00    +0.000 A 
ATOM      6  C   UNL     1       4.403   4.146  16.859  0.00  0.00    +0.000 A 
ATOM      7  O   UNL     1       2.272   2.985  17.236  0.00  0.00    +0.000 OA
ATOM      8  C   UNL     1       1.422   3.009  18.351  0.00  0.00    +0.000 A 
ATOM      9  O   UNL     1       0.369   2.387  18.397  0.00  0.00    +0.000 OA
ATOM     10  N   UNL     1       1.941   3.812  19.347  0.00  0.00    +0.000 N 
ATOM     11  C   UNL     1       1.334   4.099  20.614  0.00  0.00    +0.000 C 
ENDROOT
BRANCH   1  12
ATOM     12  S   UNL     1       6.758   5.490  16.472  0.00  0.00    +0.000 S 
ATOM     13  O   UNL     1       7.764   4.462  16.600  0.00  0.00    +0.000 OA
ATOM     14  O   UNL     1       7.024   6.876  16.786  0.00  0.00    +0.000 OA
BRANCH  12  16
ATOM     15  C   UNL     1       6.628   4.411  13.995  0.00  0.00    +0.000 C 
ATOM     16  N   UNL     1       6.155   5.446  14.905  0.00  0.00    +0.000 NA
ATOM     17  H   UNL     1       5.182   5.741  14.834  0.00  0.00    +0.000 HD
ENDBRANCH  12  16
ENDBRANCH   1  12
TORSDOF 2
ENDMDL
MODEL 3
REMARK VINA RESULT:      -7.1      1.596      2.024
REMARK  Name = 
REMARK  4 active torsions:
REMARK  status: ('A' for Active; 'I' for Inactive)
REMARK    1  A    between atoms: C_1  and  N_2
REMARK    2  A    between atoms: N_2  and  S_3
REMARK    3  A    between atoms: S_3  and  C_6
REMARK    4  A    between atoms: N_15  and  C_16
REMARK                            x       y       z     vdW  Elec       q    Type
REMARK                         _______ _______ _______ _____ _____    ______ ____
ROOT
ATOM      1  C   UNL     1       5.283   4.739  17.511  0.00  0.00    +0.000 A 
ATOM      2  C   UNL     1       5.067   5.338  18.771  0.00  0.00    +0.000 A 
ATOM      3  C   UNL     1       3.911   5.044  19.502  0.00  0.00    +0.000 A 
ATOM      4  C   UNL     1       3.019   4.157  18.935  0.00  0.00    +0.000 A 
ATOM      5  C   UNL     1       3.233   3.571  17.703  0.00  0.00    +0.000 A 
ATOM      6  C   UNL     1       4.356   3.846  16.955  0.00  0.00    +0.000 A 
ATOM      7  O   UNL     1       2.206   2.720  17.331  0.00  0.00    +0.000 OA
ATOM      8  C   UNL     1       1.319   2.816  18.412  0.00  0.00    +0.000 A 
ATOM      9  O   UNL     1       0.261   2.202  18.461  0.00  0.00    +0.000 OA
ATOM     10  N   UNL     1       1.810   3.676  19.375  0.00  0.00    +0.000 N 
ATOM     11  C   UNL     1       1.163   4.042  20.601  0.00  0.00    +0.000 C 
ENDROOT
BRANCH   1  12
ATOM     12  S   UNL     1       6.731   5.153  16.567  0.00  0.00    +0.000 S 
ATOM     13  O   UNL     1       6.504   4.766  15.195  0.00  0.00    +0.000 OA
ATOM     14  O   UNL     1       7.870   4.685  17.325  0.00  0.00    +0.000 OA
BRANCH  12  16
ATOM     15  C   UNL     1       7.666   7.489  17.561  0.00  0.00    +0.000 C 
ATOM     16  N   UNL     1       6.743   6.832  16.646  0.00  0.00    +0.000 NA
ATOM     17  H   UNL     1       6.547   7.284  15.754  0.00  0.00    +0.000 HD
ENDBRANCH  12  16
ENDBRANCH   1  12
TORSDOF 2
ENDMDL
MODEL 4
REMARK VINA RESULT:      -6.9      1.706      1.823
REMARK  Name = 
REMARK  4 active torsions:
REMARK  status: ('A' for Active; 'I' for Inactive)
REMARK    1  A    between atoms: C_1  and  N_2
REMARK    2  A    between atoms: N_2  and  S_3
REMARK    3  A    between atoms: S_3  and  C_6
REMARK    4  A    between atoms: N_15  and  C_16
REMARK                            x       y       z     vdW  Elec       q    Type
REMARK                         _______ _______ _______ _____ _____    ______ ____
ROOT
ATOM      1  C   UNL     1       4.852   5.326  17.242  0.00  0.00    +0.000 A 
ATOM      2  C   UNL     1       4.588   5.944  18.483  0.00  0.00    +0.000 A 
ATOM      3  C   UNL     1       3.515   5.514  19.271  0.00  0.00    +0.000 A 
ATOM      4  C   UNL     1       2.750   4.477  18.777  0.00  0.00    +0.000 A 
ATOM      5  C   UNL     1       3.012   3.873  17.562  0.00  0.00    +0.000 A 
ATOM      6  C   UNL     1       4.054   4.278  16.761  0.00  0.00    +0.000 A 
ATOM      7  O   UNL     1       2.115   2.860  17.266  0.00  0.00    +0.000 OA
ATOM      8  C   UNL     1       1.259   2.873  18.377  0.00  0.00    +0.000 A 
ATOM      9  O   UNL     1       0.309   2.109  18.492  0.00  0.00    +0.000 OA
ATOM     10  N   UNL     1       1.644   3.841  19.283  0.00  0.00    +0.000 N 
ATOM     11  C   UNL     1       0.988   4.163  20.516  0.00  0.00    +0.000 C 
ENDROOT
BRANCH   1  12
ATOM     12  S   UNL     1       6.190   5.909  16.226  0.00  0.00    +0.000 S 
ATOM     13  O   UNL     1       6.636   7.178  16.750  0.00  0.00    +0.000 OA
ATOM     14  O   UNL     1       5.772   5.743  14.852  0.00  0.00    +0.000 OA
BRANCH  12  16
ATOM     15  C   UNL     1       7.826   4.540  17.890  0.00  0.00    +0.000 C 
ATOM     16  N   UNL     1       7.387   4.767  16.519  0.00  0.00    +0.000 NA
ATOM     17  H   UNL     1       7.352   3.968  15.887  0.00  0.00    +0.000 HD
ENDBRANCH  12  16
ENDBRANCH   1  12
TORSDOF 2
ENDMDL
MODEL 5
REMARK VINA RESULT:      -6.8      2.286      2.800
REMARK  Name = 
REMARK  4 active torsions:
REMARK  status: ('A' for Active; 'I' for Inactive)
REMARK    1  A    between atoms: C_1  and  N_2
REMARK    2  A    between atoms: N_2  and  S_3
REMARK    3  A    between atoms: S_3  and  C_6
REMARK    4  A    between atoms: N_15  and  C_16
REMARK                            x       y       z     vdW  Elec       q    Type
REMARK                         _______ _______ _______ _____ _____    ______ ____
ROOT
ATOM      1  C   UNL     1       5.532   5.226  17.472  0.00  0.00    +0.000 A 
ATOM      2  C   UNL     1       4.485   6.169  17.549  0.00  0.00    +0.000 A 
ATOM      3  C   UNL     1       3.420   5.970  18.434  0.00  0.00    +0.000 A 
ATOM      4  C   UNL     1       3.454   4.828  19.209  0.00  0.00    +0.000 A 
ATOM      5  C   UNL     1       4.481   3.908  19.132  0.00  0.00    +0.000 A 
ATOM      6  C   UNL     1       5.538   4.070  18.266  0.00  0.00    +0.000 A 
ATOM      7  O   UNL     1       4.305   2.839  19.996  0.00  0.00    +0.000 OA
ATOM      8  C   UNL     1       3.086   3.144  20.618  0.00  0.00    +0.000 A 
ATOM      9  O   UNL     1       2.572   2.423  21.464  0.00  0.00    +0.000 OA
ATOM     10  N   UNL     1       2.579   4.339  20.147  0.00  0.00    +0.000 N 
ATOM     11  C   UNL     1       1.340   4.950  20.530  0.00  0.00    +0.000 C 
ENDROOT
BRANCH   1  12
ATOM     12  S   UNL     1       6.858   5.463  16.311  0.00  0.00    +0.000 S 
ATOM     13  O   UNL     1       6.284   5.638  14.998  0.00  0.00    +0.000 OA
ATOM     14  O   UNL     1       7.847   4.447  16.594  0.00  0.00    +0.000 OA
BRANCH  12  16
ATOM     15  C   UNL     1       7.928   7.090  18.188  0.00  0.00    +0.000 C 
ATOM     16  N   UNL     1       7.507   6.933  16.803  0.00  0.00    +0.000 NA
ATOM     17  H   UNL     1       8.050   7.402  16.079  0.00  0.00    +0.000 HD
ENDBRANCH  12  16
ENDBRANCH   1  12
TORSDOF 2
ENDMDL
MODEL 6
REMARK VINA RESULT:      -6.8      1.897      2.098
REMARK  Name = 
REMARK  4 active torsions:
REMARK  status: ('A' for Active; 'I' for Inactive)
REMARK    1  A    between atoms: C_1  and  N_2
REMARK    2  A    between atoms: N_2  and  S_3
REMARK    3  A    between atoms: S_3  and  C_6
REMARK    4  A    between atoms: N_15  and  C_16
REMARK                            x       y       z     vdW  Elec       q    Type
REMARK                         _______ _______ _______ _____ _____    ______ ____
ROOT
ATOM      1  C   UNL     1       5.582   5.313  17.616  0.00  0.00    +0.000 A 
ATOM      2  C   UNL     1       4.515   6.235  17.670  0.00  0.00    +0.000 A 
ATOM      3  C   UNL     1       3.423   6.001  18.512  0.00  0.00    +0.000 A 
ATOM      4  C   UNL     1       3.450   4.848  19.269  0.00  0.00    +0.000 A 
ATOM      5  C   UNL     1       4.497   3.948  19.215  0.00  0.00    +0.000 A 
ATOM      6  C   UNL     1       5.581   4.144  18.391  0.00  0.00    +0.000 A 
ATOM      7  O   UNL     1       4.310   2.862  20.055  0.00  0.00    +0.000 OA
ATOM      8  C   UNL     1       3.064   3.134  20.637  0.00  0.00    +0.000 A 
ATOM      9  O   UNL     1       2.534   2.389  21.451  0.00  0.00    +0.000 OA
ATOM     10  N   UNL     1       2.551   4.327  20.166  0.00  0.00    +0.000 N 
ATOM     11  C   UNL     1       1.288   4.908  20.514  0.00  0.00    +0.000 C 
ENDROOT
BRANCH   1  12
ATOM     12  S   UNL     1       6.944   5.594  16.508  0.00  0.00    +0.000 S 
ATOM     13  O   UNL     1       7.861   4.485  16.626  0.00  0.00    +0.000 OA
ATOM     14  O   UNL     1       7.361   6.965  16.700  0.00  0.00    +0.000 OA
BRANCH  12  16
ATOM     15  C   UNL     1       6.133   4.223  14.322  0.00  0.00    +0.000 C 
ATOM     16  N   UNL     1       6.204   5.510  15.002  0.00  0.00    +0.000 NA
ATOM     17  H   UNL     1       5.422   6.154  14.895  0.00  0.00    +0.000 HD
ENDBRANCH  12  16
ENDBRANCH   1  12
TORSDOF 2
ENDMDL
MODEL 7
REMARK VINA RESULT:      -6.8      2.419      5.928
REMARK  Name = 
REMARK  4 active torsions:
REMARK  status: ('A' for Active; 'I' for Inactive)
REMARK    1  A    between atoms: C_1  and  N_2
REMARK    2  A    between atoms: N_2  and  S_3
REMARK    3  A    between atoms: S_3  and  C_6
REMARK    4  A    between atoms: N_15  and  C_16
REMARK                            x       y       z     vdW  Elec       q    Type
REMARK                         _______ _______ _______ _____ _____    ______ ____
ROOT
ATOM      1  C   UNL     1       3.180   3.566  19.413  0.00  0.00    +0.000 A 
ATOM      2  C   UNL     1       2.580   3.417  18.145  0.00  0.00    +0.000 A 
ATOM      3  C   UNL     1       3.342   3.574  16.982  0.00  0.00    +0.000 A 
ATOM      4  C   UNL     1       4.679   3.871  17.144  0.00  0.00    +0.000 A 
ATOM      5  C   UNL     1       5.264   4.014  18.387  0.00  0.00    +0.000 A 
ATOM      6  C   UNL     1       4.541   3.876  19.549  0.00  0.00    +0.000 A 
ATOM      7  O   UNL     1       6.614   4.316  18.310  0.00  0.00    +0.000 OA
ATOM      8  C   UNL     1       6.840   4.365  16.927  0.00  0.00    +0.000 A 
ATOM      9  O   UNL     1       7.935   4.616  16.441  0.00  0.00    +0.000 OA
ATOM     10  N   UNL     1       5.679   4.095  16.230  0.00  0.00    +0.000 N 
ATOM     11  C   UNL     1       5.523   4.087  14.804  0.00  0.00    +0.000 C 
ENDROOT
BRANCH   1  12
ATOM     12  S   UNL     1       2.194   3.412  20.885  0.00  0.00    +0.000 S 
ATOM     13  O   UNL     1       2.901   2.567  21.818  0.00  0.00    +0.000 OA
ATOM     14  O   UNL     1       0.844   3.129  20.455  0.00  0.00    +0.000 OA
BRANCH  12  16
ATOM     15  C   UNL     1       1.687   6.059  20.653  0.00  0.00    +0.000 C 
ATOM     16  N   UNL     1       2.201   4.981  21.487  0.00  0.00    +0.000 NA
ATOM     17  H   UNL     1       2.042   5.034  22.492  0.00  0.00    +0.000 HD
ENDBRANCH  12  16
ENDBRANCH   1  12
TORSDOF 2
ENDMDL
MODEL 8
REMARK VINA RESULT:      -6.8      2.067      2.873
REMARK  Name = 
REMARK  4 active torsions:
REMARK  status: ('A' for Active; 'I' for Inactive)
REMARK    1  A    between atoms: C_1  and  N_2
REMARK    2  A    between atoms: N_2  and  S_3
REMARK    3  A    between atoms: S_3  and  C_6
REMARK    4  A    between atoms: N_15  and  C_16
REMARK                            x       y       z     vdW  Elec       q    Type
REMARK                         _______ _______ _______ _____ _____    ______ ____
ROOT
ATOM      1  C   UNL     1       5.513   4.666  17.529  0.00  0.00    +0.000 A 
ATOM      2  C   UNL     1       4.685   3.944  16.642  0.00  0.00    +0.000 A 
ATOM      3  C   UNL     1       3.468   3.417  17.086  0.00  0.00    +0.000 A 
ATOM      4  C   UNL     1       3.132   3.639  18.405  0.00  0.00    +0.000 A 
ATOM      5  C   UNL     1       3.943   4.347  19.271  0.00  0.00    +0.000 A 
ATOM      6  C   UNL     1       5.150   4.871  18.868  0.00  0.00    +0.000 A 
ATOM      7  O   UNL     1       3.409   4.442  20.545  0.00  0.00    +0.000 OA
ATOM      8  C   UNL     1       2.205   3.734  20.428  0.00  0.00    +0.000 A 
ATOM      9  O   UNL     1       1.429   3.583  21.363  0.00  0.00    +0.000 OA
ATOM     10  N   UNL     1       2.039   3.256  19.143  0.00  0.00    +0.000 N 
ATOM     11  C   UNL     1       0.945   2.463  18.663  0.00  0.00    +0.000 C 
ENDROOT
BRANCH   1  12
ATOM     12  S   UNL     1       7.080   5.292  16.970  0.00  0.00    +0.000 S 
ATOM     13  O   UNL     1       6.887   5.910  15.679  0.00  0.00    +0.000 OA
ATOM     14  O   UNL     1       8.050   4.242  17.188  0.00  0.00    +0.000 OA
BRANCH  12  16
ATOM     15  C   UNL     1       7.750   7.833  17.611  0.00  0.00    +0.000 C 
ATOM     16  N   UNL     1       7.403   6.502  18.090  0.00  0.00    +0.000 NA
ATOM     17  H   UNL     1       6.850   6.427  18.943  0.00  0.00    +0.000 HD
ENDBRANCH  12  16
ENDBRANCH   1  12
TORSDOF 2
ENDMDL
MODEL 9
REMARK VINA RESULT:      -6.7      2.220      5.720
REMARK  Name = 
REMARK  4 active torsions:
REMARK  status: ('A' for Active; 'I' for Inactive)
REMARK    1  A    between atoms: C_1  and  N_2
REMARK    2  A    between atoms: N_2  and  S_3
REMARK    3  A    between atoms: S_3  and  C_6
REMARK    4  A    between atoms: N_15  and  C_16
REMARK                            x       y       z     vdW  Elec       q    Type
REMARK                         _______ _______ _______ _____ _____    ______ ____
ROOT
ATOM      1  C   UNL     1       3.278   3.957  18.413  0.00  0.00    +0.000 A 
ATOM      2  C   UNL     1       3.818   4.886  19.329  0.00  0.00    +0.000 A 
ATOM      3  C   UNL     1       4.975   5.602  19.006  0.00  0.00    +0.000 A 
ATOM      4  C   UNL     1       5.542   5.356  17.772  0.00  0.00    +0.000 A 
ATOM      5  C   UNL     1       5.010   4.447  16.878  0.00  0.00    +0.000 A 
ATOM      6  C   UNL     1       3.878   3.720  17.169  0.00  0.00    +0.000 A 
ATOM      7  O   UNL     1       5.744   4.359  15.707  0.00  0.00    +0.000 OA
ATOM      8  C   UNL     1       6.787   5.270  15.928  0.00  0.00    +0.000 A 
ATOM      9  O   UNL     1       7.671   5.481  15.108  0.00  0.00    +0.000 OA
ATOM     10  N   UNL     1       6.661   5.869  17.166  0.00  0.00    +0.000 N 
ATOM     11  C   UNL     1       7.558   6.827  17.744  0.00  0.00    +0.000 C 
ENDROOT
BRANCH   1  12
ATOM     12  S   UNL     1       1.833   3.016  18.851  0.00  0.00    +0.000 S 
ATOM     13  O   UNL     1       2.231   1.643  19.050  0.00  0.00    +0.000 OA
ATOM     14  O   UNL     1       0.793   3.393  17.920  0.00  0.00    +0.000 OA
BRANCH  12  16
ATOM     15  C   UNL     1       1.570   2.848  21.538  0.00  0.00    +0.000 C 
ATOM     16  N   UNL     1       1.420   3.668  20.343  0.00  0.00    +0.000 NA
ATOM     17  H   UNL     1       1.609   4.666  20.419  0.00  0.00    +0.000 HD
ENDBRANCH  12  16
ENDBRANCH   1  12
TORSDOF 2
ENDMDL
