MODEL 1
REMARK VINA RESULT:      -8.2      0.000      0.000
REMARK  Name = 
REMARK  3 active torsions:
REMARK  status: ('A' for Active; 'I' for Inactive)
REMARK    1  A    between atoms: C_1  and  C_2
REMARK    2  A    between atoms: C_2  and  C_3
REMARK    3  A    between atoms: C_11  and  N_12
REMARK                            x       y       z     vdW  Elec       q    Type
REMARK                         _______ _______ _______ _____ _____    ______ ____
ROOT
ATOM      1  C   UNL     1       2.427   5.608  19.600  0.00  0.00    +0.000 A 
ATOM      2  C   UNL     1       1.695   4.961  20.623  0.00  0.00    +0.000 A 
ATOM      3  C   UNL     1       1.753   3.584  20.811  0.00  0.00    +0.000 A 
ATOM      4  C   UNL     1       2.532   2.784  19.981  0.00  0.00    +0.000 A 
ATOM      5  C   UNL     1       3.245   3.416  18.956  0.00  0.00    +0.000 A 
ATOM      6  N   UNL     1       4.073   2.865  18.010  0.00  0.00    +0.000 N 
ATOM      7  C   UNL     1       4.598   3.831  17.186  0.00  0.00    +0.000 A 
ATOM      8  C   UNL     1       5.482   3.703  16.104  0.00  0.00    +0.000 A 
ATOM      9  C   UNL     1       5.858   4.884  15.443  0.00  0.00    +0.000 A 
ATOM     10  C   UNL     1       5.372   6.129  15.843  0.00  0.00    +0.000 A 
ATOM     11  C   UNL     1       4.485   6.219  16.922  0.00  0.00    +0.000 A 
ATOM     12  C   UNL     1       4.085   5.055  17.616  0.00  0.00    +0.000 A 
ATOM     13  C   UNL     1       3.220   4.796  18.741  0.00  0.00    +0.000 A 
ATOM     14  H   UNL     1       4.272   1.878  17.937  0.00  0.00    +0.000 HD
ENDROOT
BRANCH   9  15
ATOM     15  N   UNL     1       6.783   4.804  14.304  0.00  0.00    +0.000 N 
ATOM     16  O   UNL     1       7.789   5.528  14.324  0.00  0.00    +0.000 OA
ATOM     17  O   UNL     1       6.505   4.017  13.387  0.00  0.00    +0.000 OA
ENDBRANCH   9  15
BRANCH   1  19
ATOM     18  C   UNL     1       1.602   7.736  20.683  0.00  0.00    +0.000 C 
ATOM     19  C   UNL     1       2.319   7.113  19.495  0.00  0.00    +0.000 C 
ENDBRANCH   1  19
TORSDOF 2
ENDMDL
MODEL 2
REMARK VINA RESULT:      -7.8      1.210      2.711
REMARK  Name = 
REMARK  3 active torsions:
REMARK  status: ('A' for Active; 'I' for Inactive)
REMARK    1  A    between atoms: C_1  and  C_2
REMARK    2  A    between atoms: C_2  and  C_3
REMARK    3  A    between atoms: C_11  and  N_12
REMARK                            x       y       z     vdW  Elec       q    Type
REMARK                         _______ _______ _______ _____ _____    ______ ____
ROOT
ATOM      1  C   UNL     1       2.325   4.410  19.575  0.00  0.00    +0.000 A 
ATOM      2  C   UNL     1       1.551   5.132  20.514  0.00  0.00    +0.000 A 
ATOM      3  C   UNL     1       1.534   6.523  20.539  0.00  0.00    +0.000 A 
ATOM      4  C   UNL     1       2.297   7.261  19.639  0.00  0.00    +0.000 A 
ATOM      5  C   UNL     1       3.077   6.552  18.719  0.00  0.00    +0.000 A 
ATOM      6  N   UNL     1       3.912   7.033  17.740  0.00  0.00    +0.000 N 
ATOM      7  C   UNL     1       4.491   6.007  17.033  0.00  0.00    +0.000 A 
ATOM      8  C   UNL     1       5.392   6.054  15.960  0.00  0.00    +0.000 A 
ATOM      9  C   UNL     1       5.813   4.826  15.422  0.00  0.00    +0.000 A 
ATOM     10  C   UNL     1       5.355   3.613  15.937  0.00  0.00    +0.000 A 
ATOM     11  C   UNL     1       4.462   3.602  17.014  0.00  0.00    +0.000 A 
ATOM     12  C   UNL     1       4.012   4.815  17.580  0.00  0.00    +0.000 A 
ATOM     13  C   UNL     1       3.115   5.157  18.656  0.00  0.00    +0.000 A 
ATOM     14  H   UNL     1       4.073   8.014  17.564  0.00  0.00    +0.000 HD
ENDROOT
BRANCH   9  15
ATOM     15  N   UNL     1       6.756   4.822  14.296  0.00  0.00    +0.000 N 
ATOM     16  O   UNL     1       7.761   5.542  14.380  0.00  0.00    +0.000 OA
ATOM     17  O   UNL     1       6.492   4.097  13.324  0.00  0.00    +0.000 OA
ENDBRANCH   9  15
BRANCH   1  19
ATOM     18  C   UNL     1       1.105   2.345  18.783  0.00  0.00    +0.000 C 
ATOM     19  C   UNL     1       2.254   2.899  19.611  0.00  0.00    +0.000 C 
ENDBRANCH   1  19
TORSDOF 2
ENDMDL
MODEL 3
REMARK VINA RESULT:      -7.5      1.196      2.824
REMARK  Name = 
REMARK  3 active torsions:
REMARK  status: ('A' for Active; 'I' for Inactive)
REMARK    1  A    between atoms: C_1  and  C_2
REMARK    2  A    between atoms: C_2  and  C_3
REMARK    3  A    between atoms: C_11  and  N_12
REMARK                            x       y       z     vdW  Elec       q    Type
REMARK                         _______ _______ _______ _____ _____    ______ ____
ROOT
ATOM      1  C   UNL     1       2.689   4.300  19.602  0.00  0.00    +0.000 A 
ATOM      2  C   UNL     1       1.889   4.994  20.540  0.00  0.00    +0.000 A 
ATOM      3  C   UNL     1       1.737   6.376  20.496  0.00  0.00    +0.000 A 
ATOM      4  C   UNL     1       2.384   7.133  19.525  0.00  0.00    +0.000 A 
ATOM      5  C   UNL     1       3.190   6.454  18.605  0.00  0.00    +0.000 A 
ATOM      6  N   UNL     1       3.931   6.959  17.564  0.00  0.00    +0.000 N 
ATOM      7  C   UNL     1       4.576   5.956  16.882  0.00  0.00    +0.000 A 
ATOM      8  C   UNL     1       5.421   6.031  15.765  0.00  0.00    +0.000 A 
ATOM      9  C   UNL     1       5.937   4.821  15.270  0.00  0.00    +0.000 A 
ATOM     10  C   UNL     1       5.623   3.599  15.866  0.00  0.00    +0.000 A 
ATOM     11  C   UNL     1       4.782   3.561  16.984  0.00  0.00    +0.000 A 
ATOM     12  C   UNL     1       4.240   4.755  17.510  0.00  0.00    +0.000 A 
ATOM     13  C   UNL     1       3.361   5.067  18.610  0.00  0.00    +0.000 A 
ATOM     14  H   UNL     1       3.987   7.939  17.331  0.00  0.00    +0.000 HD
ENDROOT
BRANCH   9  15
ATOM     15  N   UNL     1       6.826   4.846  14.101  0.00  0.00    +0.000 N 
ATOM     16  O   UNL     1       6.542   4.111  13.144  0.00  0.00    +0.000 OA
ATOM     17  O   UNL     1       7.810   5.600  14.138  0.00  0.00    +0.000 OA
ENDBRANCH   9  15
BRANCH   1  19
ATOM     18  C   UNL     1       4.074   2.318  20.336  0.00  0.00    +0.000 C 
ATOM     19  C   UNL     1       2.768   2.793  19.716  0.00  0.00    +0.000 C 
ENDBRANCH   1  19
TORSDOF 2
ENDMDL
MODEL 4
REMARK VINA RESULT:      -7.4      0.902      1.171
REMARK  Name = 
REMARK  3 active torsions:
REMARK  status: ('A' for Active; 'I' for Inactive)
REMARK    1  A    between atoms: C_1  and  C_2
REMARK    2  A    between atoms: C_2  and  C_3
REMARK    3  A    between atoms: C_11  and  N_12
REMARK                            x       y       z     vdW  Elec       q    Type
REMARK                         _______ _______ _______ _____ _____    ______ ____
ROOT
ATOM      1  C   UNL     1       2.150   5.040  19.783  0.00  0.00    +0.000 A 
ATOM      2  C   UNL     1       1.100   4.336  20.416  0.00  0.00    +0.000 A 
ATOM      3  C   UNL     1       0.686   3.082  19.977  0.00  0.00    +0.000 A 
ATOM      4  C   UNL     1       1.291   2.476  18.880  0.00  0.00    +0.000 A 
ATOM      5  C   UNL     1       2.320   3.175  18.240  0.00  0.00    +0.000 A 
ATOM      6  N   UNL     1       3.067   2.807  17.148  0.00  0.00    +0.000 N 
ATOM      7  C   UNL     1       3.995   3.771  16.834  0.00  0.00    +0.000 A 
ATOM      8  C   UNL     1       4.950   3.795  15.808  0.00  0.00    +0.000 A 
ATOM      9  C   UNL     1       5.782   4.925  15.735  0.00  0.00    +0.000 A 
ATOM     10  C   UNL     1       5.661   5.978  16.643  0.00  0.00    +0.000 A 
ATOM     11  C   UNL     1       4.690   5.925  17.650  0.00  0.00    +0.000 A 
ATOM     12  C   UNL     1       3.837   4.804  17.760  0.00  0.00    +0.000 A 
ATOM     13  C   UNL     1       2.769   4.431  18.654  0.00  0.00    +0.000 A 
ATOM     14  H   UNL     1       2.950   1.939  16.648  0.00  0.00    +0.000 HD
ENDROOT
BRANCH   9  15
ATOM     15  N   UNL     1       6.801   4.999  14.679  0.00  0.00    +0.000 N 
ATOM     16  O   UNL     1       6.612   4.340  13.646  0.00  0.00    +0.000 OA
ATOM     17  O   UNL     1       7.792   5.716  14.881  0.00  0.00    +0.000 OA
ENDBRANCH   9  15
BRANCH   1  19
ATOM     18  C   UNL     1       1.758   7.535  19.743  0.00  0.00    +0.000 C 
ATOM     19  C   UNL     1       2.546   6.385  20.351  0.00  0.00    +0.000 C 
ENDBRANCH   1  19
TORSDOF 2
ENDMDL
MODEL 5
REMARK VINA RESULT:      -7.3      0.850      1.262
REMARK  Name = 
REMARK  3 active torsions:
REMARK  status: ('A' for Active; 'I' for Inactive)
REMARK    1  A    between atoms: C_1  and  C_2
REMARK    2  A    between atoms: C_2  and  C_3
REMARK    3  A    between atoms: C_11  and  N_12
REMARK                            x       y       z     vdW  Elec       q    Type
REMARK                         _______ _______ _______ _____ _____    ______ ____
ROOT
ATOM      1  C   UNL     1       2.488   6.789  19.131  0.00  0.00    +0.000 A 
ATOM      2  C   UNL     1       1.779   6.416  20.296  0.00  0.00    +0.000 A 
ATOM      3  C   UNL     1       1.877   5.139  20.840  0.00  0.00    +0.000 A 
ATOM      4  C   UNL     1       2.675   4.169  20.241  0.00  0.00    +0.000 A 
ATOM      5  C   UNL     1       3.367   4.528  19.078  0.00  0.00    +0.000 A 
ATOM      6  N   UNL     1       4.206   3.768  18.302  0.00  0.00    +0.000 N 
ATOM      7  C   UNL     1       4.701   4.496  17.247  0.00  0.00    +0.000 A 
ATOM      8  C   UNL     1       5.584   4.111  16.227  0.00  0.00    +0.000 A 
ATOM      9  C   UNL     1       5.924   5.084  15.274  0.00  0.00    +0.000 A 
ATOM     10  C   UNL     1       5.404   6.378  15.338  0.00  0.00    +0.000 A 
ATOM     11  C   UNL     1       4.518   6.726  16.364  0.00  0.00    +0.000 A 
ATOM     12  C   UNL     1       4.155   5.777  17.344  0.00  0.00    +0.000 A 
ATOM     13  C   UNL     1       3.301   5.801  18.507  0.00  0.00    +0.000 A 
ATOM     14  H   UNL     1       4.433   2.802  18.489  0.00  0.00    +0.000 HD
ENDROOT
BRANCH   9  15
ATOM     15  N   UNL     1       6.847   4.732  14.186  0.00  0.00    +0.000 N 
ATOM     16  O   UNL     1       6.531   3.792  13.442  0.00  0.00    +0.000 OA
ATOM     17  O   UNL     1       7.889   5.395  14.075  0.00  0.00    +0.000 OA
ENDBRANCH   9  15
BRANCH   1  19
ATOM     18  C   UNL     1       1.297   8.999  19.413  0.00  0.00    +0.000 C 
ATOM     19  C   UNL     1       2.338   8.210  18.634  0.00  0.00    +0.000 C 
ENDBRANCH   1  19
TORSDOF 2
ENDMDL
MODEL 6
REMARK VINA RESULT:      -7.2      1.544      1.933
REMARK  Name = 
REMARK  3 active torsions:
REMARK  status: ('A' for Active; 'I' for Inactive)
REMARK    1  A    between atoms: C_1  and  C_2
REMARK    2  A    between atoms: C_2  and  C_3
REMARK    3  A    between atoms: C_11  and  N_12
REMARK                            x       y       z     vdW  Elec       q    Type
REMARK                         _______ _______ _______ _____ _____    ______ ____
ROOT
ATOM      1  C   UNL     1       1.927   4.478  20.360  0.00  0.00    +0.000 A 
ATOM      2  C   UNL     1       1.398   3.516  21.251  0.00  0.00    +0.000 A 
ATOM      3  C   UNL     1       2.099   2.364  21.591  0.00  0.00    +0.000 A 
ATOM      4  C   UNL     1       3.355   2.109  21.049  0.00  0.00    +0.000 A 
ATOM      5  C   UNL     1       3.876   3.049  20.153  0.00  0.00    +0.000 A 
ATOM      6  N   UNL     1       5.075   3.034  19.483  0.00  0.00    +0.000 N 
ATOM      7  C   UNL     1       5.222   4.155  18.704  0.00  0.00    +0.000 A 
ATOM      8  C   UNL     1       6.284   4.536  17.871  0.00  0.00    +0.000 A 
ATOM      9  C   UNL     1       6.159   5.759  17.192  0.00  0.00    +0.000 A 
ATOM     10  C   UNL     1       5.025   6.560  17.339  0.00  0.00    +0.000 A 
ATOM     11  C   UNL     1       3.979   6.145  18.172  0.00  0.00    +0.000 A 
ATOM     12  C   UNL     1       4.069   4.924  18.875  0.00  0.00    +0.000 A 
ATOM     13  C   UNL     1       3.207   4.221  19.794  0.00  0.00    +0.000 A 
ATOM     14  H   UNL     1       5.759   2.295  19.562  0.00  0.00    +0.000 HD
ENDROOT
BRANCH   9  15
ATOM     15  N   UNL     1       7.246   6.204  16.309  0.00  0.00    +0.000 N 
ATOM     16  O   UNL     1       7.492   5.520  15.305  0.00  0.00    +0.000 OA
ATOM     17  O   UNL     1       7.855   7.240  16.618  0.00  0.00    +0.000 OA
ENDBRANCH   9  15
BRANCH   1  19
ATOM     18  C   UNL     1       1.588   6.936  20.834  0.00  0.00    +0.000 C 
ATOM     19  C   UNL     1       1.099   5.712  20.075  0.00  0.00    +0.000 C 
ENDBRANCH   1  19
TORSDOF 2
ENDMDL
MODEL 7
REMARK VINA RESULT:      -7.2      1.457      3.081
REMARK  Name = 
REMARK  3 active torsions:
REMARK  status: ('A' for Active; 'I' for Inactive)
REMARK    1  A    between atoms: C_1  and  C_2
REMARK    2  A    between atoms: C_2  and  C_3
REMARK    3  A    between atoms: C_11  and  N_12
REMARK                            x       y       z     vdW  Elec       q    Type
REMARK                         _______ _______ _______ _____ _____    ______ ____
ROOT
ATOM      1  C   UNL     1       2.009   5.819  20.345  0.00  0.00    +0.000 A 
ATOM      2  C   UNL     1       1.226   6.794  21.005  0.00  0.00    +0.000 A 
ATOM      3  C   UNL     1       1.148   8.106  20.548  0.00  0.00    +0.000 A 
ATOM      4  C   UNL     1       1.855   8.511  19.420  0.00  0.00    +0.000 A 
ATOM      5  C   UNL     1       2.645   7.554  18.773  0.00  0.00    +0.000 A 
ATOM      6  N   UNL     1       3.434   7.694  17.658  0.00  0.00    +0.000 N 
ATOM      7  C   UNL     1       4.041   6.506  17.328  0.00  0.00    +0.000 A 
ATOM      8  C   UNL     1       4.913   6.209  16.271  0.00  0.00    +0.000 A 
ATOM      9  C   UNL     1       5.376   4.886  16.176  0.00  0.00    +0.000 A 
ATOM     10  C   UNL     1       4.985   3.911  17.095  0.00  0.00    +0.000 A 
ATOM     11  C   UNL     1       4.119   4.244  18.143  0.00  0.00    +0.000 A 
ATOM     12  C   UNL     1       3.629   5.563  18.271  0.00  0.00    +0.000 A 
ATOM     13  C   UNL     1       2.743   6.226  19.195  0.00  0.00    +0.000 A 
ATOM     14  H   UNL     1       3.546   8.557  17.147  0.00  0.00    +0.000 HD
ENDROOT
BRANCH   9  15
ATOM     15  N   UNL     1       6.291   4.522  15.086  0.00  0.00    +0.000 N 
ATOM     16  O   UNL     1       5.804   4.003  14.071  0.00  0.00    +0.000 OA
ATOM     17  O   UNL     1       7.499   4.755  15.243  0.00  0.00    +0.000 OA
ENDBRANCH   9  15
BRANCH   1  19
ATOM     18  C   UNL     1       1.012   3.502  20.200  0.00  0.00    +0.000 C 
ATOM     19  C   UNL     1       2.007   4.412  20.903  0.00  0.00    +0.000 C 
ENDBRANCH   1  19
TORSDOF 2
ENDMDL
MODEL 8
REMARK VINA RESULT:      -7.1      3.636      5.842
REMARK  Name = 
REMARK  3 active torsions:
REMARK  status: ('A' for Active; 'I' for Inactive)
REMARK    1  A    between atoms: C_1  and  C_2
REMARK    2  A    between atoms: C_2  and  C_3
REMARK    3  A    between atoms: C_11  and  N_12
REMARK                            x       y       z     vdW  Elec       q    Type
REMARK                         _______ _______ _______ _____ _____    ______ ____
ROOT
ATOM      1  C   UNL     1       6.176   6.036  16.634  0.00  0.00    +0.000 A 
ATOM      2  C   UNL     1       6.916   5.842  15.445  0.00  0.00    +0.000 A 
ATOM      3  C   UNL     1       6.850   4.654  14.723  0.00  0.00    +0.000 A 
ATOM      4  C   UNL     1       6.055   3.599  15.159  0.00  0.00    +0.000 A 
ATOM      5  C   UNL     1       5.333   3.779  16.344  0.00  0.00    +0.000 A 
ATOM      6  N   UNL     1       4.490   2.905  16.985  0.00  0.00    +0.000 N 
ATOM      7  C   UNL     1       3.961   3.468  18.121  0.00  0.00    +0.000 A 
ATOM      8  C   UNL     1       3.063   2.931  19.054  0.00  0.00    +0.000 A 
ATOM      9  C   UNL     1       2.687   3.754  20.128  0.00  0.00    +0.000 A 
ATOM     10  C   UNL     1       3.187   5.050  20.261  0.00  0.00    +0.000 A 
ATOM     11  C   UNL     1       4.088   5.552  19.316  0.00  0.00    +0.000 A 
ATOM     12  C   UNL     1       4.488   4.757  18.219  0.00  0.00    +0.000 A 
ATOM     13  C   UNL     1       5.366   4.958  17.092  0.00  0.00    +0.000 A 
ATOM     14  H   UNL     1       4.284   1.973  16.657  0.00  0.00    +0.000 HD
ENDROOT
BRANCH   9  15
ATOM     15  N   UNL     1       1.747   3.238  21.133  0.00  0.00    +0.000 N 
ATOM     16  O   UNL     1       2.154   3.117  22.297  0.00  0.00    +0.000 OA
ATOM     17  O   UNL     1       0.599   2.952  20.758  0.00  0.00    +0.000 OA
ENDBRANCH   9  15
BRANCH   1  19
ATOM     18  C   UNL     1       7.736   7.782  17.582  0.00  0.00    +0.000 C 
ATOM     19  C   UNL     1       6.292   7.373  17.332  0.00  0.00    +0.000 C 
ENDBRANCH   1  19
TORSDOF 2
ENDMDL
MODEL 9
REMARK VINA RESULT:      -7.0      3.182      5.062
REMARK  Name = 
REMARK  3 active torsions:
REMARK  status: ('A' for Active; 'I' for Inactive)
REMARK    1  A    between atoms: C_1  and  C_2
REMARK    2  A    between atoms: C_2  and  C_3
REMARK    3  A    between atoms: C_11  and  N_12
REMARK                            x       y       z     vdW  Elec       q    Type
REMARK                         _______ _______ _______ _____ _____    ______ ____
ROOT
ATOM      1  C   UNL     1       1.065   8.583  20.360  0.00  0.00    +0.000 A 
ATOM      2  C   UNL     1       0.873   9.874  19.818  0.00  0.00    +0.000 A 
ATOM      3  C   UNL     1       1.390  10.236  18.578  0.00  0.00    +0.000 A 
ATOM      4  C   UNL     1       2.134   9.332  17.825  0.00  0.00    +0.000 A 
ATOM      5  C   UNL     1       2.341   8.058  18.364  0.00  0.00    +0.000 A 
ATOM      6  N   UNL     1       3.034   6.996  17.835  0.00  0.00    +0.000 N 
ATOM      7  C   UNL     1       2.992   5.909  18.674  0.00  0.00    +0.000 A 
ATOM      8  C   UNL     1       3.556   4.634  18.518  0.00  0.00    +0.000 A 
ATOM      9  C   UNL     1       3.338   3.707  19.551  0.00  0.00    +0.000 A 
ATOM     10  C   UNL     1       2.594   4.042  20.683  0.00  0.00    +0.000 A 
ATOM     11  C   UNL     1       2.052   5.326  20.810  0.00  0.00    +0.000 A 
ATOM     12  C   UNL     1       2.245   6.285  19.791  0.00  0.00    +0.000 A 
ATOM     13  C   UNL     1       1.832   7.654  19.601  0.00  0.00    +0.000 A 
ATOM     14  H   UNL     1       3.505   7.015  16.943  0.00  0.00    +0.000 HD
ENDROOT
BRANCH   9  15
ATOM     15  N   UNL     1       3.907   2.357  19.436  0.00  0.00    +0.000 N 
ATOM     16  O   UNL     1       3.430   1.600  18.578  0.00  0.00    +0.000 OA
ATOM     17  O   UNL     1       4.832   2.052  20.204  0.00  0.00    +0.000 OA
ENDBRANCH   9  15
BRANCH   1  19
ATOM     18  C   UNL     1       0.183   9.528  22.530  0.00  0.00    +0.000 C 
ATOM     19  C   UNL     1       0.439   8.277  21.703  0.00  0.00    +0.000 C 
ENDBRANCH   1  19
TORSDOF 2
ENDMDL
