MODEL 1
REMARK VINA RESULT:      -8.3      0.000      0.000
REMARK  Name = 
REMARK  5 active torsions:
REMARK  status: ('A' for Active; 'I' for Inactive)
REMARK    1  A    between atoms: C_2  and  C_14
REMARK    2  A    between atoms: N_3  and  C_4
REMARK    3  A    between atoms: C_16  and  C_17
REMARK    4  A    between atoms: C_23  and  O_24
REMARK    5  A    between atoms: C_25  and  O_26
REMARK                            x       y       z     vdW  Elec       q    Type
REMARK                         _______ _______ _______ _____ _____    ______ ____
ROOT
ATOM      1  C   UNL     1       1.310   9.277  19.786  0.00  0.00    +0.000 A 
ATOM      2  N   UNL     1       1.089  10.542  19.338  0.00  0.00    +0.000 NA
ATOM      3  C   UNL     1       0.789  11.450  20.289  0.00  0.00    +0.000 A 
ATOM      4  N   UNL     1       0.667  11.201  21.606  0.00  0.00    +0.000 NA
ATOM      5  C   UNL     1       0.860   9.929  21.956  0.00  0.00    +0.000 A 
ATOM      6  C   UNL     1       1.177   8.901  21.107  0.00  0.00    +0.000 A 
ENDROOT
BRANCH   3   7
ATOM      7  C   UNL     1       0.636  12.854  19.893  0.00  0.00    +0.000 A 
ATOM      8  C   UNL     1       1.277  13.970  20.411  0.00  0.00    +0.000 A 
ATOM      9  C   UNL     1       0.900  15.182  19.765  0.00  0.00    +0.000 A 
ATOM     10  C   UNL     1      -0.023  14.962  18.770  0.00  0.00    +0.000 A 
ATOM     11  S   UNL     1      -0.431  13.310  18.624  0.00  0.00    +0.000 S 
ENDBRANCH   3   7
BRANCH   1  13
ATOM     12  O   UNL     1       1.539   8.493  17.593  0.00  0.00    +0.000 OA
ATOM     13  C   UNL     1       1.836   8.313  18.769  0.00  0.00    +0.000 C 
ATOM     14  N   UNL     1       2.559   7.235  19.266  0.00  0.00    +0.000 N 
ATOM     15  H   UNL     1       2.570   7.144  20.275  0.00  0.00    +0.000 HD
BRANCH  14  16
ATOM     16  C   UNL     1       3.123   6.185  18.477  0.00  0.00    +0.000 A 
ATOM     17  C   UNL     1       4.201   6.453  17.615  0.00  0.00    +0.000 A 
ATOM     18  C   UNL     1       4.728   5.478  16.772  0.00  0.00    +0.000 A 
ATOM     19  C   UNL     1       4.200   4.199  16.792  0.00  0.00    +0.000 A 
ATOM     20  C   UNL     1       3.158   3.872  17.663  0.00  0.00    +0.000 A 
ATOM     21  C   UNL     1       2.666   2.557  17.653  0.00  0.00    +0.000 A 
ATOM     22  C   UNL     1       1.628   2.175  18.496  0.00  0.00    +0.000 A 
ATOM     23  C   UNL     1       1.073   3.105  19.362  0.00  0.00    +0.000 A 
ATOM     24  C   UNL     1       1.547   4.423  19.383  0.00  0.00    +0.000 A 
ATOM     25  C   UNL     1       2.601   4.853  18.536  0.00  0.00    +0.000 A 
ENDBRANCH  14  16
ENDBRANCH   1  13
BRANCH   5  26
ATOM     26  O   UNL     1       0.755   9.678  23.293  0.00  0.00    +0.000 OA
ATOM     27  H   UNL     1      -0.196   9.481  23.377  0.00  0.00    +0.000 HD
ENDBRANCH   5  26
BRANCH   6  28
ATOM     28  O   UNL     1       1.335   7.638  21.586  0.00  0.00    +0.000 OA
ATOM     29  H   UNL     1       0.444   7.248  21.676  0.00  0.00    +0.000 HD
ENDBRANCH   6  28
TORSDOF 5
ENDMDL
MODEL 2
REMARK VINA RESULT:      -7.9      3.212      7.745
REMARK  Name = 
REMARK  5 active torsions:
REMARK  status: ('A' for Active; 'I' for Inactive)
REMARK    1  A    between atoms: C_2  and  C_14
REMARK    2  A    between atoms: N_3  and  C_4
REMARK    3  A    between atoms: C_16  and  C_17
REMARK    4  A    between atoms: C_23  and  O_24
REMARK    5  A    between atoms: C_25  and  O_26
REMARK                            x       y       z     vdW  Elec       q    Type
REMARK                         _______ _______ _______ _____ _____    ______ ____
ROOT
ATOM      1  C   UNL     1       2.438   7.767  18.782  0.00  0.00    +0.000 A 
ATOM      2  N   UNL     1       3.244   7.330  17.777  0.00  0.00    +0.000 NA
ATOM      3  C   UNL     1       3.769   6.101  17.948  0.00  0.00    +0.000 A 
ATOM      4  N   UNL     1       3.584   5.306  19.019  0.00  0.00    +0.000 NA
ATOM      5  C   UNL     1       2.814   5.825  19.975  0.00  0.00    +0.000 A 
ATOM      6  C   UNL     1       2.207   7.054  19.941  0.00  0.00    +0.000 A 
ENDROOT
BRANCH   3   7
ATOM      7  C   UNL     1       4.568   5.523  16.862  0.00  0.00    +0.000 A 
ATOM      8  C   UNL     1       5.212   6.179  15.822  0.00  0.00    +0.000 A 
ATOM      9  C   UNL     1       5.920   5.296  14.958  0.00  0.00    +0.000 A 
ATOM     10  C   UNL     1       5.798   3.986  15.357  0.00  0.00    +0.000 A 
ATOM     11  S   UNL     1       4.834   3.827  16.757  0.00  0.00    +0.000 S 
ENDBRANCH   3   7
BRANCH   1  13
ATOM     12  O   UNL     1       1.967   9.660  17.488  0.00  0.00    +0.000 OA
ATOM     13  C   UNL     1       1.696   9.039  18.510  0.00  0.00    +0.000 C 
ATOM     14  N   UNL     1       0.809   9.451  19.497  0.00  0.00    +0.000 N 
ATOM     15  H   UNL     1       0.828   8.912  20.355  0.00  0.00    +0.000 HD
BRANCH  14  16
ATOM     16  C   UNL     1       0.024  10.646  19.456  0.00  0.00    +0.000 A 
ATOM     17  C   UNL     1       0.479  11.808  20.102  0.00  0.00    +0.000 A 
ATOM     18  C   UNL     1      -0.290  12.968  20.155  0.00  0.00    +0.000 A 
ATOM     19  C   UNL     1      -1.528  12.996  19.536  0.00  0.00    +0.000 A 
ATOM     20  C   UNL     1      -2.003  11.881  18.843  0.00  0.00    +0.000 A 
ATOM     21  C   UNL     1      -3.259  11.965  18.222  0.00  0.00    +0.000 A 
ATOM     22  C   UNL     1      -3.785  10.885  17.521  0.00  0.00    +0.000 A 
ATOM     23  C   UNL     1      -3.057   9.708  17.431  0.00  0.00    +0.000 A 
ATOM     24  C   UNL     1      -1.803   9.604  18.048  0.00  0.00    +0.000 A 
ATOM     25  C   UNL     1      -1.235  10.681  18.776  0.00  0.00    +0.000 A 
ENDBRANCH  14  16
ENDBRANCH   1  13
BRANCH   5  26
ATOM     26  O   UNL     1       2.610   5.014  21.054  0.00  0.00    +0.000 OA
ATOM     27  H   UNL     1       1.861   5.461  21.489  0.00  0.00    +0.000 HD
ENDBRANCH   5  26
BRANCH   6  28
ATOM     28  O   UNL     1       1.453   7.477  20.990  0.00  0.00    +0.000 OA
ATOM     29  H   UNL     1       0.518   7.318  20.757  0.00  0.00    +0.000 HD
ENDBRANCH   6  28
TORSDOF 5
ENDMDL
MODEL 3
REMARK VINA RESULT:      -7.8      2.924      7.901
REMARK  Name = 
REMARK  5 active torsions:
REMARK  status: ('A' for Active; 'I' for Inactive)
REMARK    1  A    between atoms: C_2  and  C_14
REMARK    2  A    between atoms: N_3  and  C_4
REMARK    3  A    between atoms: C_16  and  C_17
REMARK    4  A    between atoms: C_23  and  O_24
REMARK    5  A    between atoms: C_25  and  O_26
REMARK                            x       y       z     vdW  Elec       q    Type
REMARK                         _______ _______ _______ _____ _____    ______ ____
ROOT
ATOM      1  C   UNL     1       2.810   6.846  18.769  0.00  0.00    +0.000 A 
ATOM      2  N   UNL     1       3.717   6.592  17.788  0.00  0.00    +0.000 NA
ATOM      3  C   UNL     1       4.310   5.383  17.846  0.00  0.00    +0.000 A 
ATOM      4  N   UNL     1       4.100   4.445  18.789  0.00  0.00    +0.000 NA
ATOM      5  C   UNL     1       3.226   4.789  19.736  0.00  0.00    +0.000 A 
ATOM      6  C   UNL     1       2.542   5.975  19.806  0.00  0.00    +0.000 A 
ENDROOT
BRANCH   3   7
ATOM      7  C   UNL     1       5.226   4.999  16.766  0.00  0.00    +0.000 A 
ATOM      8  C   UNL     1       5.000   4.121  15.716  0.00  0.00    +0.000 A 
ATOM      9  C   UNL     1       6.112   4.006  14.834  0.00  0.00    +0.000 A 
ATOM     10  C   UNL     1       7.162   4.798  15.234  0.00  0.00    +0.000 A 
ATOM     11  S   UNL     1       6.807   5.665  16.661  0.00  0.00    +0.000 S 
ENDBRANCH   3   7
BRANCH   1  13
ATOM     12  O   UNL     1       1.719   8.450  17.461  0.00  0.00    +0.000 OA
ATOM     13  C   UNL     1       2.006   8.098  18.600  0.00  0.00    +0.000 C 
ATOM     14  N   UNL     1       1.721   8.804  19.762  0.00  0.00    +0.000 N 
ATOM     15  H   UNL     1       2.176   8.464  20.602  0.00  0.00    +0.000 HD
BRANCH  14  16
ATOM     16  C   UNL     1       0.997  10.034  19.825  0.00  0.00    +0.000 A 
ATOM     17  C   UNL     1       1.078  10.953  18.765  0.00  0.00    +0.000 A 
ATOM     18  C   UNL     1       0.453  12.196  18.820  0.00  0.00    +0.000 A 
ATOM     19  C   UNL     1      -0.292  12.538  19.936  0.00  0.00    +0.000 A 
ATOM     20  C   UNL     1      -0.440  11.640  20.996  0.00  0.00    +0.000 A 
ATOM     21  C   UNL     1      -1.216  12.030  22.098  0.00  0.00    +0.000 A 
ATOM     22  C   UNL     1      -1.395  11.180  23.184  0.00  0.00    +0.000 A 
ATOM     23  C   UNL     1      -0.801   9.926  23.176  0.00  0.00    +0.000 A 
ATOM     24  C   UNL     1      -0.019   9.522  22.086  0.00  0.00    +0.000 A 
ATOM     25  C   UNL     1       0.192  10.361  20.963  0.00  0.00    +0.000 A 
ENDBRANCH  14  16
ENDBRANCH   1  13
BRANCH   5  26
ATOM     26  O   UNL     1       2.997   3.834  20.683  0.00  0.00    +0.000 OA
ATOM     27  H   UNL     1       2.544   3.149  20.158  0.00  0.00    +0.000 HD
ENDBRANCH   5  26
BRANCH   6  28
ATOM     28  O   UNL     1       1.685   6.213  20.834  0.00  0.00    +0.000 OA
ATOM     29  H   UNL     1       2.100   5.863  21.645  0.00  0.00    +0.000 HD
ENDBRANCH   6  28
TORSDOF 5
ENDMDL
MODEL 4
REMARK VINA RESULT:      -7.7      0.999      2.544
REMARK  Name = 
REMARK  5 active torsions:
REMARK  status: ('A' for Active; 'I' for Inactive)
REMARK    1  A    between atoms: C_2  and  C_14
REMARK    2  A    between atoms: N_3  and  C_4
REMARK    3  A    between atoms: C_16  and  C_17
REMARK    4  A    between atoms: C_23  and  O_24
REMARK    5  A    between atoms: C_25  and  O_26
REMARK                            x       y       z     vdW  Elec       q    Type
REMARK                         _______ _______ _______ _____ _____    ______ ____
ROOT
ATOM      1  C   UNL     1       1.377   9.170  19.637  0.00  0.00    +0.000 A 
ATOM      2  N   UNL     1       1.157  10.428  19.168  0.00  0.00    +0.000 NA
ATOM      3  C   UNL     1       0.920  11.364  20.109  0.00  0.00    +0.000 A 
ATOM      4  N   UNL     1       0.859  11.150  21.437  0.00  0.00    +0.000 NA
ATOM      5  C   UNL     1       1.047   9.883  21.809  0.00  0.00    +0.000 A 
ATOM      6  C   UNL     1       1.303   8.828  20.972  0.00  0.00    +0.000 A 
ENDROOT
BRANCH   3   7
ATOM      7  C   UNL     1       0.772  12.761  19.686  0.00  0.00    +0.000 A 
ATOM      8  C   UNL     1      -0.305  13.358  19.047  0.00  0.00    +0.000 A 
ATOM      9  C   UNL     1      -0.112  14.748  18.809  0.00  0.00    +0.000 A 
ATOM     10  C   UNL     1       1.109  15.180  19.269  0.00  0.00    +0.000 A 
ATOM     11  S   UNL     1       2.013  13.915  19.977  0.00  0.00    +0.000 S 
ENDBRANCH   3   7
BRANCH   1  13
ATOM     12  O   UNL     1       1.679   8.440  17.434  0.00  0.00    +0.000 OA
ATOM     13  C   UNL     1       1.835   8.171  18.620  0.00  0.00    +0.000 C 
ATOM     14  N   UNL     1       2.332   6.974  19.120  0.00  0.00    +0.000 N 
ATOM     15  H   UNL     1       2.236   6.845  20.120  0.00  0.00    +0.000 HD
BRANCH  14  16
ATOM     16  C   UNL     1       2.793   5.876  18.329  0.00  0.00    +0.000 A 
ATOM     17  C   UNL     1       1.984   4.739  18.164  0.00  0.00    +0.000 A 
ATOM     18  C   UNL     1       2.426   3.617  17.470  0.00  0.00    +0.000 A 
ATOM     19  C   UNL     1       3.688   3.618  16.899  0.00  0.00    +0.000 A 
ATOM     20  C   UNL     1       4.512   4.742  16.997  0.00  0.00    +0.000 A 
ATOM     21  C   UNL     1       5.777   4.698  16.391  0.00  0.00    +0.000 A 
ATOM     22  C   UNL     1       6.642   5.785  16.459  0.00  0.00    +0.000 A 
ATOM     23  C   UNL     1       6.247   6.931  17.132  0.00  0.00    +0.000 A 
ATOM     24  C   UNL     1       4.989   6.992  17.748  0.00  0.00    +0.000 A 
ATOM     25  C   UNL     1       4.081   5.903  17.705  0.00  0.00    +0.000 A 
ENDBRANCH  14  16
ENDBRANCH   1  13
BRANCH   5  26
ATOM     26  O   UNL     1       1.004   9.666  23.156  0.00  0.00    +0.000 OA
ATOM     27  H   UNL     1       1.590  10.374  23.482  0.00  0.00    +0.000 HD
ENDBRANCH   5  26
BRANCH   6  28
ATOM     28  O   UNL     1       1.463   7.576  21.475  0.00  0.00    +0.000 OA
ATOM     29  H   UNL     1       2.310   7.565  21.962  0.00  0.00    +0.000 HD
ENDBRANCH   6  28
TORSDOF 5
ENDMDL
MODEL 5
REMARK VINA RESULT:      -7.6      2.416      2.819
REMARK  Name = 
REMARK  5 active torsions:
REMARK  status: ('A' for Active; 'I' for Inactive)
REMARK    1  A    between atoms: C_2  and  C_14
REMARK    2  A    between atoms: N_3  and  C_4
REMARK    3  A    between atoms: C_16  and  C_17
REMARK    4  A    between atoms: C_23  and  O_24
REMARK    5  A    between atoms: C_25  and  O_26
REMARK                            x       y       z     vdW  Elec       q    Type
REMARK                         _______ _______ _______ _____ _____    ______ ____
ROOT
ATOM      1  C   UNL     1       0.693   9.191  20.009  0.00  0.00    +0.000 A 
ATOM      2  N   UNL     1      -0.251   9.327  19.039  0.00  0.00    +0.000 NA
ATOM      3  C   UNL     1      -1.067  10.392  19.169  0.00  0.00    +0.000 A 
ATOM      4  N   UNL     1      -1.037  11.291  20.171  0.00  0.00    +0.000 NA
ATOM      5  C   UNL     1      -0.108  11.063  21.100  0.00  0.00    +0.000 A 
ATOM      6  C   UNL     1       0.793  10.030  21.100  0.00  0.00    +0.000 A 
ENDROOT
BRANCH   3   7
ATOM      7  C   UNL     1      -2.045  10.660  18.109  0.00  0.00    +0.000 A 
ATOM      8  C   UNL     1      -2.031  10.220  16.793  0.00  0.00    +0.000 A 
ATOM      9  C   UNL     1      -3.163  10.655  16.046  0.00  0.00    +0.000 A 
ATOM     10  C   UNL     1      -4.013  11.420  16.810  0.00  0.00    +0.000 A 
ATOM     11  S   UNL     1      -3.445  11.612  18.409  0.00  0.00    +0.000 S 
ENDBRANCH   3   7
BRANCH   1  13
ATOM     12  O   UNL     1       2.230   7.585  20.739  0.00  0.00    +0.000 OA
ATOM     13  C   UNL     1       1.723   8.132  19.766  0.00  0.00    +0.000 C 
ATOM     14  N   UNL     1       2.077   7.917  18.440  0.00  0.00    +0.000 N 
ATOM     15  H   UNL     1       1.686   8.570  17.771  0.00  0.00    +0.000 HD
BRANCH  14  16
ATOM     16  C   UNL     1       3.057   6.980  17.988  0.00  0.00    +0.000 A 
ATOM     17  C   UNL     1       4.317   7.431  17.557  0.00  0.00    +0.000 A 
ATOM     18  C   UNL     1       5.270   6.561  17.036  0.00  0.00    +0.000 A 
ATOM     19  C   UNL     1       4.991   5.208  16.957  0.00  0.00    +0.000 A 
ATOM     20  C   UNL     1       3.771   4.705  17.415  0.00  0.00    +0.000 A 
ATOM     21  C   UNL     1       3.542   3.323  17.324  0.00  0.00    +0.000 A 
ATOM     22  C   UNL     1       2.345   2.766  17.760  0.00  0.00    +0.000 A 
ATOM     23  C   UNL     1       1.364   3.587  18.296  0.00  0.00    +0.000 A 
ATOM     24  C   UNL     1       1.572   4.969  18.390  0.00  0.00    +0.000 A 
ATOM     25  C   UNL     1       2.777   5.576  17.952  0.00  0.00    +0.000 A 
ENDBRANCH  14  16
ENDBRANCH   1  13
BRANCH   5  26
ATOM     26  O   UNL     1      -0.064  11.983  22.108  0.00  0.00    +0.000 OA
ATOM     27  H   UNL     1      -0.925  11.834  22.540  0.00  0.00    +0.000 HD
ENDBRANCH   5  26
BRANCH   6  28
ATOM     28  O   UNL     1       1.685   9.897  22.117  0.00  0.00    +0.000 OA
ATOM     29  H   UNL     1       1.222  10.137  22.943  0.00  0.00    +0.000 HD
ENDBRANCH   6  28
TORSDOF 5
ENDMDL
MODEL 6
REMARK VINA RESULT:      -7.6      2.655      2.943
REMARK  Name = 
REMARK  5 active torsions:
REMARK  status: ('A' for Active; 'I' for Inactive)
REMARK    1  A    between atoms: C_2  and  C_14
REMARK    2  A    between atoms: N_3  and  C_4
REMARK    3  A    between atoms: C_16  and  C_17
REMARK    4  A    between atoms: C_23  and  O_24
REMARK    5  A    between atoms: C_25  and  O_26
REMARK                            x       y       z     vdW  Elec       q    Type
REMARK                         _______ _______ _______ _____ _____    ______ ____
ROOT
ATOM      1  C   UNL     1       0.633   9.432  18.723  0.00  0.00    +0.000 A 
ATOM      2  N   UNL     1      -0.430   9.680  17.913  0.00  0.00    +0.000 NA
ATOM      3  C   UNL     1      -1.390  10.467  18.440  0.00  0.00    +0.000 A 
ATOM      4  N   UNL     1      -1.389  10.988  19.682  0.00  0.00    +0.000 NA
ATOM      5  C   UNL     1      -0.329  10.664  20.424  0.00  0.00    +0.000 A 
ATOM      6  C   UNL     1       0.724   9.883  20.024  0.00  0.00    +0.000 A 
ENDROOT
BRANCH   3   7
ATOM      7  C   UNL     1      -2.520  10.859  17.591  0.00  0.00    +0.000 A 
ATOM      8  C   UNL     1      -2.655  10.717  16.217  0.00  0.00    +0.000 A 
ATOM      9  C   UNL     1      -3.906  11.190  15.728  0.00  0.00    +0.000 A 
ATOM     10  C   UNL     1      -4.695  11.684  16.739  0.00  0.00    +0.000 A 
ATOM     11  S   UNL     1      -3.929  11.581  18.262  0.00  0.00    +0.000 S 
ENDBRANCH   3   7
BRANCH   1  13
ATOM     12  O   UNL     1       2.359   9.289  17.149  0.00  0.00    +0.000 OA
ATOM     13  C   UNL     1       1.788   8.730  18.079  0.00  0.00    +0.000 C 
ATOM     14  N   UNL     1       2.063   7.450  18.545  0.00  0.00    +0.000 N 
ATOM     15  H   UNL     1       1.390   7.071  19.201  0.00  0.00    +0.000 HD
BRANCH  14  16
ATOM     16  C   UNL     1       3.097   6.595  18.052  0.00  0.00    +0.000 A 
ATOM     17  C   UNL     1       4.316   7.143  17.618  0.00  0.00    +0.000 A 
ATOM     18  C   UNL     1       5.317   6.355  17.057  0.00  0.00    +0.000 A 
ATOM     19  C   UNL     1       5.128   4.988  16.941  0.00  0.00    +0.000 A 
ATOM     20  C   UNL     1       3.952   4.391  17.399  0.00  0.00    +0.000 A 
ATOM     21  C   UNL     1       3.814   3.000  17.270  0.00  0.00    +0.000 A 
ATOM     22  C   UNL     1       2.664   2.351  17.705  0.00  0.00    +0.000 A 
ATOM     23  C   UNL     1       1.639   3.088  18.279  0.00  0.00    +0.000 A 
ATOM     24  C   UNL     1       1.756   4.478  18.412  0.00  0.00    +0.000 A 
ATOM     25  C   UNL     1       2.911   5.177  17.977  0.00  0.00    +0.000 A 
ENDBRANCH  14  16
ENDBRANCH   1  13
BRANCH   5  26
ATOM     26  O   UNL     1      -0.316  11.205  21.676  0.00  0.00    +0.000 OA
ATOM     27  H   UNL     1      -0.898  10.589  22.157  0.00  0.00    +0.000 HD
ENDBRANCH   5  26
BRANCH   6  28
ATOM     28  O   UNL     1       1.743   9.613  20.883  0.00  0.00    +0.000 OA
ATOM     29  H   UNL     1       1.614   8.700  21.207  0.00  0.00    +0.000 HD
ENDBRANCH   6  28
TORSDOF 5
ENDMDL
MODEL 7
REMARK VINA RESULT:      -7.6      3.450      7.736
REMARK  Name = 
REMARK  5 active torsions:
REMARK  status: ('A' for Active; 'I' for Inactive)
REMARK    1  A    between atoms: C_2  and  C_14
REMARK    2  A    between atoms: N_3  and  C_4
REMARK    3  A    between atoms: C_16  and  C_17
REMARK    4  A    between atoms: C_23  and  O_24
REMARK    5  A    between atoms: C_25  and  O_26
REMARK                            x       y       z     vdW  Elec       q    Type
REMARK                         _______ _______ _______ _____ _____    ______ ____
ROOT
ATOM      1  C   UNL     1       2.857   5.220  19.954  0.00  0.00    +0.000 A 
ATOM      2  N   UNL     1       3.469   5.640  18.814  0.00  0.00    +0.000 NA
ATOM      3  C   UNL     1       4.281   4.738  18.226  0.00  0.00    +0.000 A 
ATOM      4  N   UNL     1       4.546   3.500  18.683  0.00  0.00    +0.000 NA
ATOM      5  C   UNL     1       3.937   3.182  19.825  0.00  0.00    +0.000 A 
ATOM      6  C   UNL     1       3.082   3.987  20.532  0.00  0.00    +0.000 A 
ENDROOT
BRANCH   3   7
ATOM      7  C   UNL     1       4.898   5.084  16.941  0.00  0.00    +0.000 A 
ATOM      8  C   UNL     1       4.928   6.316  16.303  0.00  0.00    +0.000 A 
ATOM      9  C   UNL     1       5.642   6.290  15.071  0.00  0.00    +0.000 A 
ATOM     10  C   UNL     1       6.138   5.038  14.796  0.00  0.00    +0.000 A 
ATOM     11  S   UNL     1       5.739   3.907  16.013  0.00  0.00    +0.000 S 
ENDBRANCH   3   7
BRANCH   1  13
ATOM     12  O   UNL     1       0.711   5.661  20.777  0.00  0.00    +0.000 OA
ATOM     13  C   UNL     1       1.806   6.137  20.500  0.00  0.00    +0.000 C 
ATOM     14  N   UNL     1       2.146   7.482  20.570  0.00  0.00    +0.000 N 
ATOM     15  H   UNL     1       3.030   7.732  20.144  0.00  0.00    +0.000 HD
BRANCH  14  16
ATOM     16  C   UNL     1       1.286   8.528  21.029  0.00  0.00    +0.000 A 
ATOM     17  C   UNL     1       1.122   8.751  22.407  0.00  0.00    +0.000 A 
ATOM     18  C   UNL     1       0.235   9.705  22.897  0.00  0.00    +0.000 A 
ATOM     19  C   UNL     1      -0.493  10.480  22.012  0.00  0.00    +0.000 A 
ATOM     20  C   UNL     1      -0.332  10.328  20.633  0.00  0.00    +0.000 A 
ATOM     21  C   UNL     1      -1.086  11.147  19.777  0.00  0.00    +0.000 A 
ATOM     22  C   UNL     1      -0.969  11.037  18.395  0.00  0.00    +0.000 A 
ATOM     23  C   UNL     1      -0.093  10.108  17.855  0.00  0.00    +0.000 A 
ATOM     24  C   UNL     1       0.663   9.278  18.693  0.00  0.00    +0.000 A 
ATOM     25  C   UNL     1       0.570   9.356  20.106  0.00  0.00    +0.000 A 
ENDBRANCH  14  16
ENDBRANCH   1  13
BRANCH   5  26
ATOM     26  O   UNL     1       4.189   1.921  20.281  0.00  0.00    +0.000 OA
ATOM     27  H   UNL     1       3.574   1.395  19.737  0.00  0.00    +0.000 HD
ENDBRANCH   5  26
BRANCH   6  28
ATOM     28  O   UNL     1       2.533   3.551  21.697  0.00  0.00    +0.000 OA
ATOM     29  H   UNL     1       1.665   3.991  21.791  0.00  0.00    +0.000 HD
ENDBRANCH   6  28
TORSDOF 5
ENDMDL
MODEL 8
REMARK VINA RESULT:      -7.5      3.189      7.872
REMARK  Name = 
REMARK  5 active torsions:
REMARK  status: ('A' for Active; 'I' for Inactive)
REMARK    1  A    between atoms: C_2  and  C_14
REMARK    2  A    between atoms: N_3  and  C_4
REMARK    3  A    between atoms: C_16  and  C_17
REMARK    4  A    between atoms: C_23  and  O_24
REMARK    5  A    between atoms: C_25  and  O_26
REMARK                            x       y       z     vdW  Elec       q    Type
REMARK                         _______ _______ _______ _____ _____    ______ ____
ROOT
ATOM      1  C   UNL     1       2.417   7.735  18.902  0.00  0.00    +0.000 A 
ATOM      2  N   UNL     1       3.203   7.335  17.866  0.00  0.00    +0.000 NA
ATOM      3  C   UNL     1       3.750   6.110  17.993  0.00  0.00    +0.000 A 
ATOM      4  N   UNL     1       3.605   5.286  19.048  0.00  0.00    +0.000 NA
ATOM      5  C   UNL     1       2.852   5.770  20.036  0.00  0.00    +0.000 A 
ATOM      6  C   UNL     1       2.227   6.990  20.048  0.00  0.00    +0.000 A 
ENDROOT
BRANCH   3   7
ATOM      7  C   UNL     1       4.529   5.571  16.872  0.00  0.00    +0.000 A 
ATOM      8  C   UNL     1       5.159   6.264  15.849  0.00  0.00    +0.000 A 
ATOM      9  C   UNL     1       5.850   5.413  14.940  0.00  0.00    +0.000 A 
ATOM     10  C   UNL     1       5.729   4.089  15.290  0.00  0.00    +0.000 A 
ATOM     11  S   UNL     1       4.786   3.880  16.699  0.00  0.00    +0.000 S 
ENDBRANCH   3   7
BRANCH   1  13
ATOM     12  O   UNL     1       2.208   9.921  18.093  0.00  0.00    +0.000 OA
ATOM     13  C   UNL     1       1.650   9.001  18.681  0.00  0.00    +0.000 C 
ATOM     14  N   UNL     1       0.380   9.053  19.244  0.00  0.00    +0.000 N 
ATOM     15  H   UNL     1       0.135   8.272  19.841  0.00  0.00    +0.000 HD
BRANCH  14  16
ATOM     16  C   UNL     1      -0.507  10.172  19.181  0.00  0.00    +0.000 A 
ATOM     17  C   UNL     1      -1.032  10.585  17.945  0.00  0.00    +0.000 A 
ATOM     18  C   UNL     1      -1.835  11.716  17.828  0.00  0.00    +0.000 A 
ATOM     19  C   UNL     1      -2.152  12.449  18.959  0.00  0.00    +0.000 A 
ATOM     20  C   UNL     1      -1.691  12.053  20.217  0.00  0.00    +0.000 A 
ATOM     21  C   UNL     1      -2.050  12.824  21.333  0.00  0.00    +0.000 A 
ATOM     22  C   UNL     1      -1.617  12.480  22.610  0.00  0.00    +0.000 A 
ATOM     23  C   UNL     1      -0.822  11.357  22.782  0.00  0.00    +0.000 A 
ATOM     24  C   UNL     1      -0.449  10.578  21.679  0.00  0.00    +0.000 A 
ATOM     25  C   UNL     1      -0.866  10.898  20.361  0.00  0.00    +0.000 A 
ENDBRANCH  14  16
ENDBRANCH   1  13
BRANCH   5  26
ATOM     26  O   UNL     1       2.687   4.930  21.099  0.00  0.00    +0.000 OA
ATOM     27  H   UNL     1       2.125   5.469  21.684  0.00  0.00    +0.000 HD
ENDBRANCH   5  26
BRANCH   6  28
ATOM     28  O   UNL     1       1.494   7.375  21.126  0.00  0.00    +0.000 OA
ATOM     29  H   UNL     1       0.688   6.823  21.141  0.00  0.00    +0.000 HD
ENDBRANCH   6  28
TORSDOF 5
ENDMDL
MODEL 9
REMARK VINA RESULT:      -7.4      3.128      7.699
REMARK  Name = 
REMARK  5 active torsions:
REMARK  status: ('A' for Active; 'I' for Inactive)
REMARK    1  A    between atoms: C_2  and  C_14
REMARK    2  A    between atoms: N_3  and  C_4
REMARK    3  A    between atoms: C_16  and  C_17
REMARK    4  A    between atoms: C_23  and  O_24
REMARK    5  A    between atoms: C_25  and  O_26
REMARK                            x       y       z     vdW  Elec       q    Type
REMARK                         _______ _______ _______ _____ _____    ______ ____
ROOT
ATOM      1  C   UNL     1       2.329   5.377  20.221  0.00  0.00    +0.000 A 
ATOM      2  N   UNL     1       3.517   5.909  19.826  0.00  0.00    +0.000 NA
ATOM      3  C   UNL     1       4.372   5.048  19.240  0.00  0.00    +0.000 A 
ATOM      4  N   UNL     1       4.157   3.733  19.045  0.00  0.00    +0.000 NA
ATOM      5  C   UNL     1       2.985   3.284  19.497  0.00  0.00    +0.000 A 
ATOM      6  C   UNL     1       2.016   4.038  20.105  0.00  0.00    +0.000 A 
ENDROOT
BRANCH   3   7
ATOM      7  C   UNL     1       5.632   5.570  18.699  0.00  0.00    +0.000 A 
ATOM      8  C   UNL     1       6.891   5.557  19.283  0.00  0.00    +0.000 A 
ATOM      9  C   UNL     1       7.896   6.134  18.455  0.00  0.00    +0.000 A 
ATOM     10  C   UNL     1       7.380   6.575  17.259  0.00  0.00    +0.000 A 
ATOM     11  S   UNL     1       5.699   6.298  17.144  0.00  0.00    +0.000 S 
ENDBRANCH   3   7
BRANCH   1  13
ATOM     12  O   UNL     1       0.135   5.991  20.755  0.00  0.00    +0.000 OA
ATOM     13  C   UNL     1       1.302   6.361  20.688  0.00  0.00    +0.000 C 
ATOM     14  N   UNL     1       1.757   7.652  20.930  0.00  0.00    +0.000 N 
ATOM     15  H   UNL     1       2.717   7.833  20.664  0.00  0.00    +0.000 HD
BRANCH  14  16
ATOM     16  C   UNL     1       0.944   8.749  21.350  0.00  0.00    +0.000 A 
ATOM     17  C   UNL     1       0.694   8.957  22.718  0.00  0.00    +0.000 A 
ATOM     18  C   UNL     1      -0.155   9.964  23.166  0.00  0.00    +0.000 A 
ATOM     19  C   UNL     1      -0.758  10.808  22.249  0.00  0.00    +0.000 A 
ATOM     20  C   UNL     1      -0.506  10.671  20.882  0.00  0.00    +0.000 A 
ATOM     21  C   UNL     1      -1.133  11.559  19.994  0.00  0.00    +0.000 A 
ATOM     22  C   UNL     1      -0.923  11.468  18.622  0.00  0.00    +0.000 A 
ATOM     23  C   UNL     1      -0.079  10.487  18.124  0.00  0.00    +0.000 A 
ATOM     24  C   UNL     1       0.552   9.588  18.994  0.00  0.00    +0.000 A 
ATOM     25  C   UNL     1       0.359   9.645  20.398  0.00  0.00    +0.000 A 
ENDBRANCH  14  16
ENDBRANCH   1  13
BRANCH   5  26
ATOM     26  O   UNL     1       2.757   1.955  19.284  0.00  0.00    +0.000 OA
ATOM     27  H   UNL     1       2.605   1.939  18.322  0.00  0.00    +0.000 HD
ENDBRANCH   5  26
BRANCH   6  28
ATOM     28  O   UNL     1       0.864   3.458  20.535  0.00  0.00    +0.000 OA
ATOM     29  H   UNL     1       0.266   4.177  20.820  0.00  0.00    +0.000 HD
ENDBRANCH   6  28
TORSDOF 5
ENDMDL
