MODEL 1
REMARK VINA RESULT:      -8.2      0.000      0.000
REMARK  Name = 
REMARK  11 active torsions:
REMARK  status: ('A' for Active; 'I' for Inactive)
REMARK    1  A    between atoms: C_1  and  C_2
REMARK    2  A    between atoms: C_2  and  C_3
REMARK    3  A    between atoms: C_3  and  C_4
REMARK    4  A    between atoms: C_4  and  C_5
REMARK    5  A    between atoms: C_5  and  N_6
REMARK    6  A    between atoms: C_5  and  C_25
REMARK    7  A    between atoms: N_11  and  C_12
REMARK    8  A    between atoms: C_17  and  C_18
REMARK    9  A    between atoms: C_25  and  O_27
REMARK   10  A    between atoms: O_27  and  C_28
REMARK   11  A    between atoms: C_28  and  C_29
REMARK                            x       y       z     vdW  Elec       q    Type
REMARK                         _______ _______ _______ _____ _____    ______ ____
ROOT
ATOM      1  N   UNL     1       4.995   6.921  16.776  0.00  0.00    +0.000 N 
ATOM      2  C   UNL     1       4.190   6.419  17.796  0.00  0.00    +0.000 A 
ATOM      3  N   UNL     1       4.417   5.228  18.324  0.00  0.00    +0.000 NA
ATOM      4  C   UNL     1       3.563   4.821  19.369  0.00  0.00    +0.000 A 
ATOM      5  N   UNL     1       3.610   3.634  19.962  0.00  0.00    +0.000 NA
ATOM      6  N   UNL     1       2.595   3.704  20.868  0.00  0.00    +0.000 N 
ATOM      7  C   UNL     1       2.224   2.548  21.650  0.00  0.00    +0.000 C 
ATOM      8  C   UNL     1       1.948   4.911  20.892  0.00  0.00    +0.000 A 
ATOM      9  C   UNL     1       2.552   5.622  19.901  0.00  0.00    +0.000 A 
ATOM     10  C   UNL     1       2.336   6.923  19.329  0.00  0.00    +0.000 A 
ATOM     11  N   UNL     1       1.503   7.876  19.626  0.00  0.00    +0.000 NA
ATOM     12  C   UNL     1       1.796   8.821  18.661  0.00  0.00    +0.000 A 
ATOM     13  N   UNL     1       2.772   8.477  17.789  0.00  0.00    +0.000 NA
ATOM     14  N   UNL     1       3.131   7.259  18.276  0.00  0.00    +0.000 N 
ATOM     15  H   UNL     1       4.547   7.671  16.243  0.00  0.00    +0.000 HD
ENDROOT
BRANCH  12  16
ATOM     16  C   UNL     1       1.039  10.112  18.671  0.00  0.00    +0.000 A 
ATOM     17  C   UNL     1      -0.323  10.205  18.430  0.00  0.00    +0.000 A 
ATOM     18  C   UNL     1      -0.668  11.570  18.527  0.00  0.00    +0.000 A 
ATOM     19  C   UNL     1       0.505  12.236  18.793  0.00  0.00    +0.000 A 
ATOM     20  O   UNL     1       1.541  11.361  18.909  0.00  0.00    +0.000 OA
ENDBRANCH  12  16
BRANCH   1  21
ATOM     21  C   UNL     1       5.819   6.017  15.945  0.00  0.00    +0.000 C 
BRANCH  21  22
ATOM     22  C   UNL     1       7.193   5.829  16.595  0.00  0.00    +0.000 C 
ATOM     23  O   UNL     1       7.633   4.750  16.979  0.00  0.00    +0.000 OA
BRANCH  22  24
ATOM     24  O   UNL     1       7.830   7.027  16.737  0.00  0.00    +0.000 OA
BRANCH  24  25
ATOM     25  C   UNL     1       7.965   7.499  18.083  0.00  0.00    +0.000 C 
ATOM     26  C   UNL     1       8.237   8.989  18.029  0.00  0.00    +0.000 C 
ENDBRANCH  24  25
ENDBRANCH  22  24
ENDBRANCH  21  22
BRANCH  21  27
ATOM     27  C   UNL     1       5.122   4.661  15.751  0.00  0.00    +0.000 C 
BRANCH  27  28
ATOM     28  C   UNL     1       4.988   4.265  14.277  0.00  0.00    +0.000 C 
BRANCH  28  30
ATOM     29  C   UNL     1       6.186   3.368  12.248  0.00  0.00    +0.000 C 
ATOM     30  C   UNL     1       6.327   3.799  13.700  0.00  0.00    +0.000 C 
ENDBRANCH  28  30
ENDBRANCH  27  28
ENDBRANCH  21  27
ENDBRANCH   1  21
TORSDOF 8
ENDMDL
MODEL 2
REMARK VINA RESULT:      -7.9      1.022      3.223
REMARK  Name = 
REMARK  11 active torsions:
REMARK  status: ('A' for Active; 'I' for Inactive)
REMARK    1  A    between atoms: C_1  and  C_2
REMARK    2  A    between atoms: C_2  and  C_3
REMARK    3  A    between atoms: C_3  and  C_4
REMARK    4  A    between atoms: C_4  and  C_5
REMARK    5  A    between atoms: C_5  and  N_6
REMARK    6  A    between atoms: C_5  and  C_25
REMARK    7  A    between atoms: N_11  and  C_12
REMARK    8  A    between atoms: C_17  and  C_18
REMARK    9  A    between atoms: C_25  and  O_27
REMARK   10  A    between atoms: O_27  and  C_28
REMARK   11  A    between atoms: C_28  and  C_29
REMARK                            x       y       z     vdW  Elec       q    Type
REMARK                         _______ _______ _______ _____ _____    ______ ____
ROOT
ATOM      1  N   UNL     1       5.146   6.736  17.438  0.00  0.00    +0.000 N 
ATOM      2  C   UNL     1       4.184   6.253  18.322  0.00  0.00    +0.000 A 
ATOM      3  N   UNL     1       4.289   5.048  18.856  0.00  0.00    +0.000 NA
ATOM      4  C   UNL     1       3.276   4.663  19.759  0.00  0.00    +0.000 A 
ATOM      5  N   UNL     1       3.194   3.468  20.333  0.00  0.00    +0.000 NA
ATOM      6  N   UNL     1       2.061   3.566  21.083  0.00  0.00    +0.000 N 
ATOM      7  C   UNL     1       1.538   2.417  21.783  0.00  0.00    +0.000 C 
ATOM      8  C   UNL     1       1.461   4.796  21.032  0.00  0.00    +0.000 A 
ATOM      9  C   UNL     1       2.228   5.495  20.152  0.00  0.00    +0.000 A 
ATOM     10  C   UNL     1       2.145   6.810  19.576  0.00  0.00    +0.000 A 
ATOM     11  N   UNL     1       1.311   7.790  19.764  0.00  0.00    +0.000 NA
ATOM     12  C   UNL     1       1.777   8.734  18.869  0.00  0.00    +0.000 A 
ATOM     13  N   UNL     1       2.857   8.364  18.142  0.00  0.00    +0.000 NA
ATOM     14  N   UNL     1       3.096   7.127  18.656  0.00  0.00    +0.000 N 
ATOM     15  H   UNL     1       4.808   7.508  16.858  0.00  0.00    +0.000 HD
ENDROOT
BRANCH  12  16
ATOM     16  C   UNL     1       1.073  10.052  18.790  0.00  0.00    +0.000 A 
ATOM     17  C   UNL     1      -0.296  10.182  18.610  0.00  0.00    +0.000 A 
ATOM     18  C   UNL     1      -0.581  11.565  18.589  0.00  0.00    +0.000 A 
ATOM     19  C   UNL     1       0.630  12.201  18.729  0.00  0.00    +0.000 A 
ATOM     20  O   UNL     1       1.635  11.295  18.878  0.00  0.00    +0.000 OA
ENDBRANCH  12  16
BRANCH   1  21
ATOM     21  C   UNL     1       6.050   5.811  16.720  0.00  0.00    +0.000 C 
BRANCH  21  22
ATOM     22  C   UNL     1       5.605   5.687  15.259  0.00  0.00    +0.000 C 
ATOM     23  O   UNL     1       5.212   6.626  14.575  0.00  0.00    +0.000 OA
BRANCH  22  24
ATOM     24  O   UNL     1       5.655   4.387  14.847  0.00  0.00    +0.000 OA
BRANCH  24  25
ATOM     25  C   UNL     1       6.588   4.108  13.797  0.00  0.00    +0.000 C 
ATOM     26  C   UNL     1       5.821   3.490  12.644  0.00  0.00    +0.000 C 
ENDBRANCH  24  25
ENDBRANCH  22  24
ENDBRANCH  21  22
BRANCH  21  27
ATOM     27  C   UNL     1       7.507   6.294  16.803  0.00  0.00    +0.000 C 
BRANCH  27  28
ATOM     28  C   UNL     1       7.771   7.184  18.022  0.00  0.00    +0.000 C 
BRANCH  28  30
ATOM     29  C   UNL     1       8.742   9.430  18.632  0.00  0.00    +0.000 C 
ATOM     30  C   UNL     1       7.913   8.654  17.620  0.00  0.00    +0.000 C 
ENDBRANCH  28  30
ENDBRANCH  27  28
ENDBRANCH  21  27
ENDBRANCH   1  21
TORSDOF 8
ENDMDL
MODEL 3
REMARK VINA RESULT:      -7.4      0.717      1.025
REMARK  Name = 
REMARK  11 active torsions:
REMARK  status: ('A' for Active; 'I' for Inactive)
REMARK    1  A    between atoms: C_1  and  C_2
REMARK    2  A    between atoms: C_2  and  C_3
REMARK    3  A    between atoms: C_3  and  C_4
REMARK    4  A    between atoms: C_4  and  C_5
REMARK    5  A    between atoms: C_5  and  N_6
REMARK    6  A    between atoms: C_5  and  C_25
REMARK    7  A    between atoms: N_11  and  C_12
REMARK    8  A    between atoms: C_17  and  C_18
REMARK    9  A    between atoms: C_25  and  O_27
REMARK   10  A    between atoms: O_27  and  C_28
REMARK   11  A    between atoms: C_28  and  C_29
REMARK                            x       y       z     vdW  Elec       q    Type
REMARK                         _______ _______ _______ _____ _____    ______ ____
ROOT
ATOM      1  N   UNL     1       4.924   7.084  16.813  0.00  0.00    +0.000 N 
ATOM      2  C   UNL     1       4.108   6.565  17.815  0.00  0.00    +0.000 A 
ATOM      3  N   UNL     1       4.336   5.370  18.334  0.00  0.00    +0.000 NA
ATOM      4  C   UNL     1       3.467   4.946  19.361  0.00  0.00    +0.000 A 
ATOM      5  N   UNL     1       3.514   3.753  19.942  0.00  0.00    +0.000 NA
ATOM      6  N   UNL     1       2.485   3.806  20.832  0.00  0.00    +0.000 N 
ATOM      7  C   UNL     1       2.109   2.640  21.596  0.00  0.00    +0.000 C 
ATOM      8  C   UNL     1       1.828   5.008  20.859  0.00  0.00    +0.000 A 
ATOM      9  C   UNL     1       2.442   5.734  19.885  0.00  0.00    +0.000 A 
ATOM     10  C   UNL     1       2.226   7.039  19.323  0.00  0.00    +0.000 A 
ATOM     11  N   UNL     1       1.380   7.983  19.616  0.00  0.00    +0.000 NA
ATOM     12  C   UNL     1       1.682   8.940  18.666  0.00  0.00    +0.000 A 
ATOM     13  N   UNL     1       2.674   8.613  17.806  0.00  0.00    +0.000 NA
ATOM     14  N   UNL     1       3.034   7.392  18.286  0.00  0.00    +0.000 N 
ATOM     15  H   UNL     1       4.479   7.836  16.281  0.00  0.00    +0.000 HD
ENDROOT
BRANCH  12  16
ATOM     16  C   UNL     1       0.915  10.225  18.678  0.00  0.00    +0.000 A 
ATOM     17  C   UNL     1      -0.453  10.304  18.463  0.00  0.00    +0.000 A 
ATOM     18  C   UNL     1      -0.807  11.668  18.552  0.00  0.00    +0.000 A 
ATOM     19  C   UNL     1       0.366  12.346  18.787  0.00  0.00    +0.000 A 
ATOM     20  O   UNL     1       1.411  11.481  18.891  0.00  0.00    +0.000 OA
ENDBRANCH  12  16
BRANCH   1  21
ATOM     21  C   UNL     1       5.769   6.195  15.986  0.00  0.00    +0.000 C 
BRANCH  21  22
ATOM     22  C   UNL     1       7.205   6.205  16.520  0.00  0.00    +0.000 C 
ATOM     23  O   UNL     1       7.905   7.210  16.599  0.00  0.00    +0.000 OA
BRANCH  22  24
ATOM     24  O   UNL     1       7.612   4.943  16.840  0.00  0.00    +0.000 OA
BRANCH  24  25
ATOM     25  C   UNL     1       7.622   4.634  18.239  0.00  0.00    +0.000 C 
ATOM     26  C   UNL     1       7.885   5.919  18.998  0.00  0.00    +0.000 C 
ENDBRANCH  24  25
ENDBRANCH  22  24
ENDBRANCH  21  22
BRANCH  21  27
ATOM     27  C   UNL     1       5.208   4.765  15.969  0.00  0.00    +0.000 C 
BRANCH  27  28
ATOM     28  C   UNL     1       4.946   4.244  14.552  0.00  0.00    +0.000 C 
BRANCH  28  30
ATOM     29  C   UNL     1       5.993   3.366  12.433  0.00  0.00    +0.000 C 
ATOM     30  C   UNL     1       6.252   3.884  13.839  0.00  0.00    +0.000 C 
ENDBRANCH  28  30
ENDBRANCH  27  28
ENDBRANCH  21  27
ENDBRANCH   1  21
TORSDOF 8
ENDMDL
MODEL 4
REMARK VINA RESULT:      -7.3      3.024      7.284
REMARK  Name = 
REMARK  11 active torsions:
REMARK  status: ('A' for Active; 'I' for Inactive)
REMARK    1  A    between atoms: C_1  and  C_2
REMARK    2  A    between atoms: C_2  and  C_3
REMARK    3  A    between atoms: C_3  and  C_4
REMARK    4  A    between atoms: C_4  and  C_5
REMARK    5  A    between atoms: C_5  and  N_6
REMARK    6  A    between atoms: C_5  and  C_25
REMARK    7  A    between atoms: N_11  and  C_12
REMARK    8  A    between atoms: C_17  and  C_18
REMARK    9  A    between atoms: C_25  and  O_27
REMARK   10  A    between atoms: O_27  and  C_28
REMARK   11  A    between atoms: C_28  and  C_29
REMARK                            x       y       z     vdW  Elec       q    Type
REMARK                         _______ _______ _______ _____ _____    ______ ____
ROOT
ATOM      1  N   UNL     1       5.069   2.930  19.337  0.00  0.00    +0.000 N 
ATOM      2  C   UNL     1       4.548   4.140  18.886  0.00  0.00    +0.000 A 
ATOM      3  N   UNL     1       3.848   4.925  19.687  0.00  0.00    +0.000 NA
ATOM      4  C   UNL     1       3.386   6.141  19.142  0.00  0.00    +0.000 A 
ATOM      5  N   UNL     1       2.617   7.010  19.785  0.00  0.00    +0.000 NA
ATOM      6  N   UNL     1       2.421   7.990  18.860  0.00  0.00    +0.000 N 
ATOM      7  C   UNL     1       1.520   9.087  19.124  0.00  0.00    +0.000 C 
ATOM      8  C   UNL     1       3.081   7.783  17.677  0.00  0.00    +0.000 A 
ATOM      9  C   UNL     1       3.678   6.572  17.848  0.00  0.00    +0.000 A 
ATOM     10  C   UNL     1       4.461   5.714  17.000  0.00  0.00    +0.000 A 
ATOM     11  N   UNL     1       4.899   5.857  15.784  0.00  0.00    +0.000 NA
ATOM     12  C   UNL     1       5.537   4.651  15.568  0.00  0.00    +0.000 A 
ATOM     13  N   UNL     1       5.500   3.780  16.603  0.00  0.00    +0.000 NA
ATOM     14  N   UNL     1       4.833   4.517  17.531  0.00  0.00    +0.000 N 
ATOM     15  H   UNL     1       5.297   2.282  18.578  0.00  0.00    +0.000 HD
ENDROOT
BRANCH  12  16
ATOM     16  C   UNL     1       6.205   4.423  14.248  0.00  0.00    +0.000 A 
ATOM     17  C   UNL     1       7.267   5.184  13.783  0.00  0.00    +0.000 A 
ATOM     18  C   UNL     1       7.622   4.670  12.518  0.00  0.00    +0.000 A 
ATOM     19  C   UNL     1       6.741   3.644  12.268  0.00  0.00    +0.000 A 
ATOM     20  O   UNL     1       5.896   3.468  13.320  0.00  0.00    +0.000 OA
ENDBRANCH  12  16
BRANCH   1  21
ATOM     21  C   UNL     1       4.512   2.262  20.534  0.00  0.00    +0.000 C 
BRANCH  21  22
ATOM     22  C   UNL     1       2.983   2.229  20.441  0.00  0.00    +0.000 C 
ATOM     23  O   UNL     1       2.229   2.519  21.364  0.00  0.00    +0.000 OA
BRANCH  22  24
ATOM     24  O   UNL     1       2.582   1.782  19.216  0.00  0.00    +0.000 OA
BRANCH  24  25
ATOM     25  C   UNL     1       1.214   2.041  18.883  0.00  0.00    +0.000 C 
ATOM     26  C   UNL     1       1.155   3.369  18.153  0.00  0.00    +0.000 C 
ENDBRANCH  24  25
ENDBRANCH  22  24
ENDBRANCH  21  22
BRANCH  21  27
ATOM     27  C   UNL     1       5.077   0.841  20.682  0.00  0.00    +0.000 C 
BRANCH  27  28
ATOM     28  C   UNL     1       5.934   0.667  21.940  0.00  0.00    +0.000 C 
BRANCH  28  30
ATOM     29  C   UNL     1       6.687  -1.619  21.190  0.00  0.00    +0.000 C 
ATOM     30  C   UNL     1       6.074  -0.808  22.322  0.00  0.00    +0.000 C 
ENDBRANCH  28  30
ENDBRANCH  27  28
ENDBRANCH  21  27
ENDBRANCH   1  21
TORSDOF 8
ENDMDL
MODEL 5
REMARK VINA RESULT:      -7.2      3.090      6.979
REMARK  Name = 
REMARK  11 active torsions:
REMARK  status: ('A' for Active; 'I' for Inactive)
REMARK    1  A    between atoms: C_1  and  C_2
REMARK    2  A    between atoms: C_2  and  C_3
REMARK    3  A    between atoms: C_3  and  C_4
REMARK    4  A    between atoms: C_4  and  C_5
REMARK    5  A    between atoms: C_5  and  N_6
REMARK    6  A    between atoms: C_5  and  C_25
REMARK    7  A    between atoms: N_11  and  C_12
REMARK    8  A    between atoms: C_17  and  C_18
REMARK    9  A    between atoms: C_25  and  O_27
REMARK   10  A    between atoms: O_27  and  C_28
REMARK   11  A    between atoms: C_28  and  C_29
REMARK                            x       y       z     vdW  Elec       q    Type
REMARK                         _______ _______ _______ _____ _____    ______ ____
ROOT
ATOM      1  N   UNL     1       4.418   4.281  18.034  0.00  0.00    +0.000 N 
ATOM      2  C   UNL     1       5.191   4.447  16.888  0.00  0.00    +0.000 A 
ATOM      3  N   UNL     1       5.005   3.689  15.821  0.00  0.00    +0.000 NA
ATOM      4  C   UNL     1       5.822   3.953  14.702  0.00  0.00    +0.000 A 
ATOM      5  N   UNL     1       5.811   3.246  13.578  0.00  0.00    +0.000 NA
ATOM      6  N   UNL     1       6.767   3.856  12.823  0.00  0.00    +0.000 N 
ATOM      7  C   UNL     1       7.162   3.308  11.547  0.00  0.00    +0.000 C 
ATOM      8  C   UNL     1       7.340   4.948  13.421  0.00  0.00    +0.000 A 
ATOM      9  C   UNL     1       6.753   4.991  14.648  0.00  0.00    +0.000 A 
ATOM     10  C   UNL     1       6.923   5.819  15.811  0.00  0.00    +0.000 A 
ATOM     11  N   UNL     1       7.681   6.850  16.040  0.00  0.00    +0.000 NA
ATOM     12  C   UNL     1       7.387   7.131  17.360  0.00  0.00    +0.000 A 
ATOM     13  N   UNL     1       6.484   6.309  17.942  0.00  0.00    +0.000 NA
ATOM     14  N   UNL     1       6.171   5.496  16.898  0.00  0.00    +0.000 N 
ATOM     15  H   UNL     1       4.850   4.679  18.872  0.00  0.00    +0.000 HD
ENDROOT
BRANCH  12  16
ATOM     16  C   UNL     1       8.065   8.296  18.012  0.00  0.00    +0.000 A 
ATOM     17  C   UNL     1       8.020   9.588  17.512  0.00  0.00    +0.000 A 
ATOM     18  C   UNL     1       8.768  10.399  18.392  0.00  0.00    +0.000 A 
ATOM     19  C   UNL     1       9.251   9.553  19.363  0.00  0.00    +0.000 A 
ATOM     20  O   UNL     1       8.810   8.282  19.158  0.00  0.00    +0.000 OA
ENDBRANCH  12  16
BRANCH   1  21
ATOM     21  C   UNL     1       3.696   3.015  18.287  0.00  0.00    +0.000 C 
BRANCH  21  22
ATOM     22  C   UNL     1       4.034   2.501  19.690  0.00  0.00    +0.000 C 
ATOM     23  O   UNL     1       5.173   2.421  20.140  0.00  0.00    +0.000 OA
BRANCH  22  24
ATOM     24  O   UNL     1       2.906   2.098  20.343  0.00  0.00    +0.000 OA
BRANCH  24  25
ATOM     25  C   UNL     1       2.650   2.750  21.592  0.00  0.00    +0.000 C 
ATOM     26  C   UNL     1       1.147   2.846  21.768  0.00  0.00    +0.000 C 
ENDBRANCH  24  25
ENDBRANCH  22  24
ENDBRANCH  21  22
BRANCH  21  27
ATOM     27  C   UNL     1       2.180   3.208  18.131  0.00  0.00    +0.000 C 
BRANCH  27  28
ATOM     28  C   UNL     1       1.785   4.671  17.905  0.00  0.00    +0.000 C 
BRANCH  28  30
ATOM     29  C   UNL     1       2.284   6.981  18.781  0.00  0.00    +0.000 C 
ATOM     30  C   UNL     1       2.059   5.523  19.147  0.00  0.00    +0.000 C 
ENDBRANCH  28  30
ENDBRANCH  27  28
ENDBRANCH  21  27
ENDBRANCH   1  21
TORSDOF 8
ENDMDL
MODEL 6
REMARK VINA RESULT:      -7.2      2.930      7.272
REMARK  Name = 
REMARK  11 active torsions:
REMARK  status: ('A' for Active; 'I' for Inactive)
REMARK    1  A    between atoms: C_1  and  C_2
REMARK    2  A    between atoms: C_2  and  C_3
REMARK    3  A    between atoms: C_3  and  C_4
REMARK    4  A    between atoms: C_4  and  C_5
REMARK    5  A    between atoms: C_5  and  N_6
REMARK    6  A    between atoms: C_5  and  C_25
REMARK    7  A    between atoms: N_11  and  C_12
REMARK    8  A    between atoms: C_17  and  C_18
REMARK    9  A    between atoms: C_25  and  O_27
REMARK   10  A    between atoms: O_27  and  C_28
REMARK   11  A    between atoms: C_28  and  C_29
REMARK                            x       y       z     vdW  Elec       q    Type
REMARK                         _______ _______ _______ _____ _____    ______ ____
ROOT
ATOM      1  N   UNL     1       5.097   3.010  19.058  0.00  0.00    +0.000 N 
ATOM      2  C   UNL     1       4.581   4.239  18.654  0.00  0.00    +0.000 A 
ATOM      3  N   UNL     1       3.795   4.946  19.449  0.00  0.00    +0.000 NA
ATOM      4  C   UNL     1       3.346   6.189  18.958  0.00  0.00    +0.000 A 
ATOM      5  N   UNL     1       2.502   6.991  19.596  0.00  0.00    +0.000 NA
ATOM      6  N   UNL     1       2.355   8.033  18.732  0.00  0.00    +0.000 N 
ATOM      7  C   UNL     1       1.404   9.086  18.999  0.00  0.00    +0.000 C 
ATOM      8  C   UNL     1       3.116   7.930  17.597  0.00  0.00    +0.000 A 
ATOM      9  C   UNL     1       3.731   6.723  17.728  0.00  0.00    +0.000 A 
ATOM     10  C   UNL     1       4.606   5.949  16.889  0.00  0.00    +0.000 A 
ATOM     11  N   UNL     1       5.138   6.194  15.728  0.00  0.00    +0.000 NA
ATOM     12  C   UNL     1       5.825   5.022  15.478  0.00  0.00    +0.000 A 
ATOM     13  N   UNL     1       5.728   4.075  16.440  0.00  0.00    +0.000 NA
ATOM     14  N   UNL     1       4.966   4.724  17.360  0.00  0.00    +0.000 N 
ATOM     15  H   UNL     1       5.405   2.427  18.276  0.00  0.00    +0.000 HD
ENDROOT
BRANCH  12  16
ATOM     16  C   UNL     1       6.606   4.909  14.207  0.00  0.00    +0.000 A 
ATOM     17  C   UNL     1       6.262   4.058  13.167  0.00  0.00    +0.000 A 
ATOM     18  C   UNL     1       7.227   4.233  12.152  0.00  0.00    +0.000 A 
ATOM     19  C   UNL     1       8.120   5.158  12.638  0.00  0.00    +0.000 A 
ATOM     20  O   UNL     1       7.740   5.594  13.870  0.00  0.00    +0.000 OA
ENDBRANCH  12  16
BRANCH   1  21
ATOM     21  C   UNL     1       4.463   2.243  20.151  0.00  0.00    +0.000 C 
BRANCH  21  22
ATOM     22  C   UNL     1       3.011   1.921  19.780  0.00  0.00    +0.000 C 
ATOM     23  O   UNL     1       2.658   1.487  18.688  0.00  0.00    +0.000 OA
BRANCH  22  24
ATOM     24  O   UNL     1       2.168   2.233  20.806  0.00  0.00    +0.000 OA
BRANCH  24  25
ATOM     25  C   UNL     1       1.187   3.235  20.516  0.00  0.00    +0.000 C 
ATOM     26  C   UNL     1       0.563   2.901  19.175  0.00  0.00    +0.000 C 
ENDBRANCH  24  25
ENDBRANCH  22  24
ENDBRANCH  21  22
BRANCH  21  27
ATOM     27  C   UNL     1       5.246   0.953  20.442  0.00  0.00    +0.000 C 
BRANCH  27  28
ATOM     28  C   UNL     1       5.307   0.616  21.935  0.00  0.00    +0.000 C 
BRANCH  28  30
ATOM     29  C   UNL     1       6.409  -1.618  22.322  0.00  0.00    +0.000 C 
ATOM     30  C   UNL     1       6.606  -0.111  22.291  0.00  0.00    +0.000 C 
ENDBRANCH  28  30
ENDBRANCH  27  28
ENDBRANCH  21  27
ENDBRANCH   1  21
TORSDOF 8
ENDMDL
MODEL 7
REMARK VINA RESULT:      -7.1      1.165      2.873
REMARK  Name = 
REMARK  11 active torsions:
REMARK  status: ('A' for Active; 'I' for Inactive)
REMARK    1  A    between atoms: C_1  and  C_2
REMARK    2  A    between atoms: C_2  and  C_3
REMARK    3  A    between atoms: C_3  and  C_4
REMARK    4  A    between atoms: C_4  and  C_5
REMARK    5  A    between atoms: C_5  and  N_6
REMARK    6  A    between atoms: C_5  and  C_25
REMARK    7  A    between atoms: N_11  and  C_12
REMARK    8  A    between atoms: C_17  and  C_18
REMARK    9  A    between atoms: C_25  and  O_27
REMARK   10  A    between atoms: O_27  and  C_28
REMARK   11  A    between atoms: C_28  and  C_29
REMARK                            x       y       z     vdW  Elec       q    Type
REMARK                         _______ _______ _______ _____ _____    ______ ____
ROOT
ATOM      1  N   UNL     1       4.984   7.118  17.493  0.00  0.00    +0.000 N 
ATOM      2  C   UNL     1       4.044   6.573  18.362  0.00  0.00    +0.000 A 
ATOM      3  N   UNL     1       4.199   5.359  18.865  0.00  0.00    +0.000 NA
ATOM      4  C   UNL     1       3.203   4.908  19.756  0.00  0.00    +0.000 A 
ATOM      5  N   UNL     1       3.171   3.696  20.298  0.00  0.00    +0.000 NA
ATOM      6  N   UNL     1       2.036   3.726  21.049  0.00  0.00    +0.000 N 
ATOM      7  C   UNL     1       1.561   2.538  21.717  0.00  0.00    +0.000 C 
ATOM      8  C   UNL     1       1.385   4.932  21.031  0.00  0.00    +0.000 A 
ATOM      9  C   UNL     1       2.122   5.685  20.170  0.00  0.00    +0.000 A 
ATOM     10  C   UNL     1       1.984   7.010  19.629  0.00  0.00    +0.000 A 
ATOM     11  N   UNL     1       1.110   7.949  19.843  0.00  0.00    +0.000 NA
ATOM     12  C   UNL     1       1.535   8.935  18.973  0.00  0.00    +0.000 A 
ATOM     13  N   UNL     1       2.629   8.630  18.238  0.00  0.00    +0.000 NA
ATOM     14  N   UNL     1       2.921   7.392  18.719  0.00  0.00    +0.000 N 
ATOM     15  H   UNL     1       4.614   7.891  16.933  0.00  0.00    +0.000 HD
ENDROOT
BRANCH  12  16
ATOM     16  C   UNL     1       0.777  10.225  18.929  0.00  0.00    +0.000 A 
ATOM     17  C   UNL     1      -0.601  10.310  19.056  0.00  0.00    +0.000 A 
ATOM     18  C   UNL     1      -0.942  11.677  18.966  0.00  0.00    +0.000 A 
ATOM     19  C   UNL     1       0.242  12.346  18.762  0.00  0.00    +0.000 A 
ATOM     20  O   UNL     1       1.292  11.481  18.764  0.00  0.00    +0.000 OA
ENDBRANCH  12  16
BRANCH   1  21
ATOM     21  C   UNL     1       5.926   6.252  16.751  0.00  0.00    +0.000 C 
BRANCH  21  22
ATOM     22  C   UNL     1       5.406   6.026  15.328  0.00  0.00    +0.000 C 
ATOM     23  O   UNL     1       5.152   6.926  14.535  0.00  0.00    +0.000 OA
BRANCH  22  24
ATOM     24  O   UNL     1       5.215   4.696  15.088  0.00  0.00    +0.000 OA
BRANCH  24  25
ATOM     25  C   UNL     1       6.376   3.973  14.664  0.00  0.00    +0.000 C 
ATOM     26  C   UNL     1       6.306   3.822  13.157  0.00  0.00    +0.000 C 
ENDBRANCH  24  25
ENDBRANCH  22  24
ENDBRANCH  21  22
BRANCH  21  27
ATOM     27  C   UNL     1       7.333   6.870  16.722  0.00  0.00    +0.000 C 
BRANCH  27  28
ATOM     28  C   UNL     1       7.932   7.056  18.119  0.00  0.00    +0.000 C 
BRANCH  28  30
ATOM     29  C   UNL     1       8.011   4.537  18.183  0.00  0.00    +0.000 C 
ATOM     30  C   UNL     1       7.743   5.804  18.979  0.00  0.00    +0.000 C 
ENDBRANCH  28  30
ENDBRANCH  27  28
ENDBRANCH  21  27
ENDBRANCH   1  21
TORSDOF 8
ENDMDL
MODEL 8
REMARK VINA RESULT:      -7.0      1.312      3.061
REMARK  Name = 
REMARK  11 active torsions:
REMARK  status: ('A' for Active; 'I' for Inactive)
REMARK    1  A    between atoms: C_1  and  C_2
REMARK    2  A    between atoms: C_2  and  C_3
REMARK    3  A    between atoms: C_3  and  C_4
REMARK    4  A    between atoms: C_4  and  C_5
REMARK    5  A    between atoms: C_5  and  N_6
REMARK    6  A    between atoms: C_5  and  C_25
REMARK    7  A    between atoms: N_11  and  C_12
REMARK    8  A    between atoms: C_17  and  C_18
REMARK    9  A    between atoms: C_25  and  O_27
REMARK   10  A    between atoms: O_27  and  C_28
REMARK   11  A    between atoms: C_28  and  C_29
REMARK                            x       y       z     vdW  Elec       q    Type
REMARK                         _______ _______ _______ _____ _____    ______ ____
ROOT
ATOM      1  N   UNL     1       4.690   5.780  16.779  0.00  0.00    +0.000 N 
ATOM      2  C   UNL     1       3.878   5.519  17.880  0.00  0.00    +0.000 A 
ATOM      3  N   UNL     1       3.881   4.334  18.467  0.00  0.00    +0.000 NA
ATOM      4  C   UNL     1       3.043   4.178  19.590  0.00  0.00    +0.000 A 
ATOM      5  N   UNL     1       2.877   3.041  20.254  0.00  0.00    +0.000 NA
ATOM      6  N   UNL     1       1.976   3.377  21.218  0.00  0.00    +0.000 N 
ATOM      7  C   UNL     1       1.424   2.372  22.096  0.00  0.00    +0.000 C 
ATOM      8  C   UNL     1       1.611   4.698  21.207  0.00  0.00    +0.000 A 
ATOM      9  C   UNL     1       2.275   5.208  20.134  0.00  0.00    +0.000 A 
ATOM     10  C   UNL     1       2.304   6.496  19.495  0.00  0.00    +0.000 A 
ATOM     11  N   UNL     1       1.723   7.623  19.783  0.00  0.00    +0.000 NA
ATOM     12  C   UNL     1       2.139   8.431  18.743  0.00  0.00    +0.000 A 
ATOM     13  N   UNL     1       2.946   7.838  17.833  0.00  0.00    +0.000 NA
ATOM     14  N   UNL     1       3.068   6.595  18.373  0.00  0.00    +0.000 N 
ATOM     15  H   UNL     1       4.376   6.584  16.229  0.00  0.00    +0.000 HD
ENDROOT
BRANCH  12  16
ATOM     16  C   UNL     1       1.685   9.856  18.720  0.00  0.00    +0.000 A 
ATOM     17  C   UNL     1       0.520  10.301  19.328  0.00  0.00    +0.000 A 
ATOM     18  C   UNL     1       0.435  11.690  19.092  0.00  0.00    +0.000 A 
ATOM     19  C   UNL     1       1.534  12.011  18.331  0.00  0.00    +0.000 A 
ATOM     20  O   UNL     1       2.312  10.914  18.121  0.00  0.00    +0.000 OA
ENDBRANCH  12  16
BRANCH   1  21
ATOM     21  C   UNL     1       5.230   4.677  15.955  0.00  0.00    +0.000 C 
BRANCH  21  22
ATOM     22  C   UNL     1       5.793   5.240  14.646  0.00  0.00    +0.000 C 
ATOM     23  O   UNL     1       5.586   6.379  14.239  0.00  0.00    +0.000 OA
BRANCH  22  24
ATOM     24  O   UNL     1       6.504   4.289  13.975  0.00  0.00    +0.000 OA
BRANCH  24  25
ATOM     25  C   UNL     1       5.776   3.565  12.975  0.00  0.00    +0.000 C 
ATOM     26  C   UNL     1       6.724   3.273  11.829  0.00  0.00    +0.000 C 
ENDBRANCH  24  25
ENDBRANCH  22  24
ENDBRANCH  21  22
BRANCH  21  27
ATOM     27  C   UNL     1       6.314   3.901  16.720  0.00  0.00    +0.000 C 
BRANCH  27  28
ATOM     28  C   UNL     1       7.567   4.739  16.993  0.00  0.00    +0.000 C 
BRANCH  28  30
ATOM     29  C   UNL     1       7.872   6.661  18.597  0.00  0.00    +0.000 C 
ATOM     30  C   UNL     1       7.646   5.163  18.462  0.00  0.00    +0.000 C 
ENDBRANCH  28  30
ENDBRANCH  27  28
ENDBRANCH  21  27
ENDBRANCH   1  21
TORSDOF 8
ENDMDL
MODEL 9
REMARK VINA RESULT:      -7.0      1.765      7.311
REMARK  Name = 
REMARK  11 active torsions:
REMARK  status: ('A' for Active; 'I' for Inactive)
REMARK    1  A    between atoms: C_1  and  C_2
REMARK    2  A    between atoms: C_2  and  C_3
REMARK    3  A    between atoms: C_3  and  C_4
REMARK    4  A    between atoms: C_4  and  C_5
REMARK    5  A    between atoms: C_5  and  N_6
REMARK    6  A    between atoms: C_5  and  C_25
REMARK    7  A    between atoms: N_11  and  C_12
REMARK    8  A    between atoms: C_17  and  C_18
REMARK    9  A    between atoms: C_25  and  O_27
REMARK   10  A    between atoms: O_27  and  C_28
REMARK   11  A    between atoms: C_28  and  C_29
REMARK                            x       y       z     vdW  Elec       q    Type
REMARK                         _______ _______ _______ _____ _____    ______ ____
ROOT
ATOM      1  N   UNL     1       2.579   8.223  18.224  0.00  0.00    +0.000 N 
ATOM      2  C   UNL     1       2.708   6.894  18.617  0.00  0.00    +0.000 A 
ATOM      3  N   UNL     1       2.032   6.416  19.649  0.00  0.00    +0.000 NA
ATOM      4  C   UNL     1       2.213   5.050  19.950  0.00  0.00    +0.000 A 
ATOM      5  N   UNL     1       1.664   4.429  20.987  0.00  0.00    +0.000 NA
ATOM      6  N   UNL     1       2.141   3.159  20.872  0.00  0.00    +0.000 N 
ATOM      7  C   UNL     1       1.875   2.174  21.893  0.00  0.00    +0.000 C 
ATOM      8  C   UNL     1       2.931   2.956  19.771  0.00  0.00    +0.000 A 
ATOM      9  C   UNL     1       3.004   4.187  19.193  0.00  0.00    +0.000 A 
ATOM     10  C   UNL     1       3.712   4.720  18.061  0.00  0.00    +0.000 A 
ATOM     11  N   UNL     1       4.488   4.163  17.180  0.00  0.00    +0.000 NA
ATOM     12  C   UNL     1       4.864   5.245  16.408  0.00  0.00    +0.000 A 
ATOM     13  N   UNL     1       4.349   6.438  16.788  0.00  0.00    +0.000 NA
ATOM     14  N   UNL     1       3.573   6.056  17.838  0.00  0.00    +0.000 N 
ATOM     15  H   UNL     1       3.360   8.551  17.651  0.00  0.00    +0.000 HD
ENDROOT
BRANCH  12  16
ATOM     16  C   UNL     1       5.772   5.010  15.241  0.00  0.00    +0.000 A 
ATOM     17  C   UNL     1       5.487   4.126  14.212  0.00  0.00    +0.000 A 
ATOM     18  C   UNL     1       6.569   4.182  13.307  0.00  0.00    +0.000 A 
ATOM     19  C   UNL     1       7.465   5.074  13.847  0.00  0.00    +0.000 A 
ATOM     20  O   UNL     1       6.982   5.602  15.005  0.00  0.00    +0.000 OA
ENDBRANCH  12  16
BRANCH   1  21
ATOM     21  C   UNL     1       2.066   9.246  19.161  0.00  0.00    +0.000 C 
BRANCH  21  22
ATOM     22  C   UNL     1       1.205  10.258  18.398  0.00  0.00    +0.000 C 
ATOM     23  O   UNL     1       1.438  11.462  18.347  0.00  0.00    +0.000 OA
BRANCH  22  24
ATOM     24  O   UNL     1       0.123   9.648  17.835  0.00  0.00    +0.000 OA
BRANCH  24  25
ATOM     25  C   UNL     1      -1.136  10.291  18.061  0.00  0.00    +0.000 C 
ATOM     26  C   UNL     1      -2.048   9.952  16.899  0.00  0.00    +0.000 C 
ENDBRANCH  24  25
ENDBRANCH  22  24
ENDBRANCH  21  22
BRANCH  21  27
ATOM     27  C   UNL     1       1.258   8.595  20.295  0.00  0.00    +0.000 C 
BRANCH  27  28
ATOM     28  C   UNL     1       0.938   9.569  21.434  0.00  0.00    +0.000 C 
BRANCH  28  30
ATOM     29  C   UNL     1      -0.765  10.249  23.164  0.00  0.00    +0.000 C 
ATOM     30  C   UNL     1      -0.490   9.377  21.949  0.00  0.00    +0.000 C 
ENDBRANCH  28  30
ENDBRANCH  27  28
ENDBRANCH  21  27
ENDBRANCH   1  21
TORSDOF 8
ENDMDL
