MODEL 1
REMARK VINA RESULT:      -8.8      0.000      0.000
REMARK  Name = 
REMARK  3 active torsions:
REMARK  status: ('A' for Active; 'I' for Inactive)
REMARK    1  A    between atoms: C_2  and  C_16
REMARK    2  A    between atoms: N_3  and  C_4
REMARK    3  A    between atoms: C_20  and  C_21
REMARK                            x       y       z     vdW  Elec       q    Type
REMARK                         _______ _______ _______ _____ _____    ______ ____
ROOT
ATOM      1  O   UNL     1      -0.513   7.929  21.249  0.00  0.00    +0.000 OA
ATOM      2  C   UNL     1       0.519   8.594  21.291  0.00  0.00    +0.000 C 
ATOM      3  N   UNL     1       1.734   8.184  20.768  0.00  0.00    +0.000 N 
ATOM      4  H   UNL     1       2.568   8.545  21.220  0.00  0.00    +0.000 HD
ENDROOT
BRANCH   3   5
ATOM      5  C   UNL     1       1.886   6.942  20.108  0.00  0.00    +0.000 A 
ATOM      6  C   UNL     1       1.527   5.745  20.746  0.00  0.00    +0.000 A 
ATOM      7  C   UNL     1       1.668   4.522  20.080  0.00  0.00    +0.000 A 
ATOM      8  C   UNL     1       1.244   3.264  20.706  0.00  0.00    +0.000 A 
ATOM      9  C   UNL     1       1.395   2.115  20.034  0.00  0.00    +0.000 A 
ATOM     10  N   UNL     1       1.953   2.084  18.783  0.00  0.00    +0.000 N 
ATOM     11  C   UNL     1       2.391   3.198  18.101  0.00  0.00    +0.000 A 
ATOM     12  O   UNL     1       2.899   3.122  16.988  0.00  0.00    +0.000 OA
ATOM     13  C   UNL     1       2.213   4.503  18.788  0.00  0.00    +0.000 A 
ATOM     14  C   UNL     1       2.571   5.690  18.141  0.00  0.00    +0.000 A 
ATOM     15  C   UNL     1       2.376   6.907  18.793  0.00  0.00    +0.000 A 
ATOM     16 CL   UNL     1       2.832   8.362  17.979  0.00  0.00    +0.000 Cl
ATOM     17  H   UNL     1       2.069   1.202  18.301  0.00  0.00    +0.000 HD
ENDBRANCH   3   5
BRANCH   2  18
ATOM     18  C   UNL     1       0.579   9.948  21.979  0.00  0.00    +0.000 C 
ATOM     19  C   UNL     1      -0.544  10.138  22.985  0.00  0.00    +0.000 C 
ATOM     20  N   UNL     1      -0.669  11.590  23.175  0.00  0.00    +0.000 NA
ATOM     21  C   UNL     1      -0.200  12.229  21.933  0.00  0.00    +0.000 C 
ATOM     22  C   UNL     1       0.437  11.152  21.045  0.00  0.00    +0.000 C 
ATOM     23  H   UNL     1      -0.079  11.884  23.952  0.00  0.00    +0.000 HD
BRANCH  22  24
ATOM     24  C   UNL     1      -0.337  10.893  19.769  0.00  0.00    +0.000 A 
ATOM     25  C   UNL     1      -1.672  11.263  19.609  0.00  0.00    +0.000 A 
ATOM     26  C   UNL     1      -2.358  10.866  18.466  0.00  0.00    +0.000 A 
ATOM     27  C   UNL     1      -1.690  10.144  17.488  0.00  0.00    +0.000 A 
ATOM     28  C   UNL     1      -0.353   9.852  17.697  0.00  0.00    +0.000 A 
ATOM     29  N   UNL     1       0.329  10.199  18.812  0.00  0.00    +0.000 NA
ENDBRANCH  22  24
ENDBRANCH   2  18
TORSDOF 3
ENDMDL
MODEL 2
REMARK VINA RESULT:      -7.9      4.360      7.013
REMARK  Name = 
REMARK  3 active torsions:
REMARK  status: ('A' for Active; 'I' for Inactive)
REMARK    1  A    between atoms: C_2  and  C_16
REMARK    2  A    between atoms: N_3  and  C_4
REMARK    3  A    between atoms: C_20  and  C_21
REMARK                            x       y       z     vdW  Elec       q    Type
REMARK                         _______ _______ _______ _____ _____    ______ ____
ROOT
ATOM      1  O   UNL     1       2.889   3.780  16.946  0.00  0.00    +0.000 OA
ATOM      2  C   UNL     1       3.616   3.614  17.923  0.00  0.00    +0.000 C 
ATOM      3  N   UNL     1       4.994   3.743  17.900  0.00  0.00    +0.000 N 
ATOM      4  H   UNL     1       5.514   3.178  18.564  0.00  0.00    +0.000 HD
ENDROOT
BRANCH   3   5
ATOM      5  C   UNL     1       5.696   4.104  16.725  0.00  0.00    +0.000 A 
ATOM      6  C   UNL     1       5.382   3.507  15.494  0.00  0.00    +0.000 A 
ATOM      7  C   UNL     1       6.071   3.882  14.335  0.00  0.00    +0.000 A 
ATOM      8  C   UNL     1       5.721   3.315  13.027  0.00  0.00    +0.000 A 
ATOM      9  C   UNL     1       6.404   3.700  11.941  0.00  0.00    +0.000 A 
ATOM     10  N   UNL     1       7.436   4.598  12.026  0.00  0.00    +0.000 N 
ATOM     11  C   UNL     1       7.857   5.190  13.197  0.00  0.00    +0.000 A 
ATOM     12  O   UNL     1       8.796   5.977  13.227  0.00  0.00    +0.000 OA
ATOM     13  C   UNL     1       7.107   4.823  14.425  0.00  0.00    +0.000 A 
ATOM     14  C   UNL     1       7.426   5.426  15.647  0.00  0.00    +0.000 A 
ATOM     15  C   UNL     1       6.697   5.086  16.785  0.00  0.00    +0.000 A 
ATOM     16 CL   UNL     1       7.112   5.837  18.287  0.00  0.00    +0.000 Cl
ATOM     17  H   UNL     1       7.947   4.863  11.194  0.00  0.00    +0.000 HD
ENDBRANCH   3   5
BRANCH   2  18
ATOM     18  C   UNL     1       3.067   3.195  19.276  0.00  0.00    +0.000 C 
ATOM     19  C   UNL     1       1.644   2.668  19.187  0.00  0.00    +0.000 C 
ATOM     20  N   UNL     1       1.087   2.790  20.542  0.00  0.00    +0.000 NA
ATOM     21  C   UNL     1       1.799   3.899  21.202  0.00  0.00    +0.000 C 
ATOM     22  C   UNL     1       2.973   4.321  20.310  0.00  0.00    +0.000 C 
ATOM     23  H   UNL     1       1.252   1.926  21.057  0.00  0.00    +0.000 HD
BRANCH  22  24
ATOM     24  C   UNL     1       2.818   5.714  19.736  0.00  0.00    +0.000 A 
ATOM     25  C   UNL     1       1.784   6.572  20.109  0.00  0.00    +0.000 A 
ATOM     26  C   UNL     1       1.623   7.779  19.436  0.00  0.00    +0.000 A 
ATOM     27  C   UNL     1       2.518   8.124  18.435  0.00  0.00    +0.000 A 
ATOM     28  C   UNL     1       3.545   7.242  18.150  0.00  0.00    +0.000 A 
ATOM     29  N   UNL     1       3.707   6.049  18.766  0.00  0.00    +0.000 NA
ENDBRANCH  22  24
ENDBRANCH   2  18
TORSDOF 3
ENDMDL
MODEL 3
REMARK VINA RESULT:      -7.5      3.406      8.062
REMARK  Name = 
REMARK  3 active torsions:
REMARK  status: ('A' for Active; 'I' for Inactive)
REMARK    1  A    between atoms: C_2  and  C_16
REMARK    2  A    between atoms: N_3  and  C_4
REMARK    3  A    between atoms: C_20  and  C_21
REMARK                            x       y       z     vdW  Elec       q    Type
REMARK                         _______ _______ _______ _____ _____    ______ ____
ROOT
ATOM      1  O   UNL     1       4.556   6.176  19.019  0.00  0.00    +0.000 OA
ATOM      2  C   UNL     1       3.794   5.953  18.080  0.00  0.00    +0.000 C 
ATOM      3  N   UNL     1       2.553   6.548  17.925  0.00  0.00    +0.000 N 
ATOM      4  H   UNL     1       1.850   6.009  17.430  0.00  0.00    +0.000 HD
ENDROOT
BRANCH   3   5
ATOM      5  C   UNL     1       2.056   7.500  18.847  0.00  0.00    +0.000 A 
ATOM      6  C   UNL     1       1.896   8.842  18.471  0.00  0.00    +0.000 A 
ATOM      7  C   UNL     1       1.391   9.773  19.385  0.00  0.00    +0.000 A 
ATOM      8  C   UNL     1       1.159  11.170  18.997  0.00  0.00    +0.000 A 
ATOM      9  C   UNL     1       0.673  12.030  19.901  0.00  0.00    +0.000 A 
ATOM     10  N   UNL     1       0.403  11.640  21.187  0.00  0.00    +0.000 N 
ATOM     11  C   UNL     1       0.586  10.361  21.666  0.00  0.00    +0.000 A 
ATOM     12  O   UNL     1       0.346  10.062  22.830  0.00  0.00    +0.000 OA
ATOM     13  C   UNL     1       1.090   9.360  20.691  0.00  0.00    +0.000 A 
ATOM     14  C   UNL     1       1.243   8.024  21.076  0.00  0.00    +0.000 A 
ATOM     15  C   UNL     1       1.696   7.094  20.141  0.00  0.00    +0.000 A 
ATOM     16 CL   UNL     1       1.885   5.449  20.639  0.00  0.00    +0.000 Cl
ATOM     17  H   UNL     1       0.050  12.311  21.857  0.00  0.00    +0.000 HD
ENDBRANCH   3   5
BRANCH   2  18
ATOM     18  C   UNL     1       4.124   4.943  16.994  0.00  0.00    +0.000 C 
ATOM     19  C   UNL     1       4.297   3.536  17.543  0.00  0.00    +0.000 C 
ATOM     20  N   UNL     1       5.082   2.808  16.537  0.00  0.00    +0.000 NA
ATOM     21  C   UNL     1       5.898   3.806  15.822  0.00  0.00    +0.000 C 
ATOM     22  C   UNL     1       5.436   5.205  16.249  0.00  0.00    +0.000 C 
ATOM     23  H   UNL     1       4.452   2.350  15.880  0.00  0.00    +0.000 HD
BRANCH  22  24
ATOM     24  C   UNL     1       6.484   5.968  17.033  0.00  0.00    +0.000 A 
ATOM     25  C   UNL     1       7.225   5.389  18.062  0.00  0.00    +0.000 A 
ATOM     26  C   UNL     1       8.066   6.187  18.830  0.00  0.00    +0.000 A 
ATOM     27  C   UNL     1       8.181   7.537  18.532  0.00  0.00    +0.000 A 
ATOM     28  C   UNL     1       7.448   8.031  17.468  0.00  0.00    +0.000 A 
ATOM     29  N   UNL     1       6.600   7.285  16.725  0.00  0.00    +0.000 NA
ENDBRANCH  22  24
ENDBRANCH   2  18
TORSDOF 3
ENDMDL
MODEL 4
REMARK VINA RESULT:      -7.4      3.227      7.985
REMARK  Name = 
REMARK  3 active torsions:
REMARK  status: ('A' for Active; 'I' for Inactive)
REMARK    1  A    between atoms: C_2  and  C_16
REMARK    2  A    between atoms: N_3  and  C_4
REMARK    3  A    between atoms: C_20  and  C_21
REMARK                            x       y       z     vdW  Elec       q    Type
REMARK                         _______ _______ _______ _____ _____    ______ ____
ROOT
ATOM      1  O   UNL     1       4.122   5.950  19.487  0.00  0.00    +0.000 OA
ATOM      2  C   UNL     1       3.457   5.857  18.458  0.00  0.00    +0.000 C 
ATOM      3  N   UNL     1       2.336   6.621  18.181  0.00  0.00    +0.000 N 
ATOM      4  H   UNL     1       1.632   6.196  17.587  0.00  0.00    +0.000 HD
ENDROOT
BRANCH   3   5
ATOM      5  C   UNL     1       1.863   7.612  19.075  0.00  0.00    +0.000 A 
ATOM      6  C   UNL     1       1.784   8.954  18.676  0.00  0.00    +0.000 A 
ATOM      7  C   UNL     1       1.302   9.924  19.562  0.00  0.00    +0.000 A 
ATOM      8  C   UNL     1       1.153  11.325  19.148  0.00  0.00    +0.000 A 
ATOM      9  C   UNL     1       0.687  12.222  20.025  0.00  0.00    +0.000 A 
ATOM     10  N   UNL     1       0.363  11.868  21.308  0.00  0.00    +0.000 N 
ATOM     11  C   UNL     1       0.466  10.588  21.811  0.00  0.00    +0.000 A 
ATOM     12  O   UNL     1       0.179  10.320  22.972  0.00  0.00    +0.000 OA
ATOM     13  C   UNL     1       0.944   9.548  20.865  0.00  0.00    +0.000 A 
ATOM     14  C   UNL     1       1.017   8.211  21.272  0.00  0.00    +0.000 A 
ATOM     15  C   UNL     1       1.447   7.245  20.365  0.00  0.00    +0.000 A 
ATOM     16 CL   UNL     1       1.538   5.600  20.891  0.00  0.00    +0.000 Cl
ATOM     17  H   UNL     1       0.026  12.566  21.958  0.00  0.00    +0.000 HD
ENDBRANCH   3   5
BRANCH   2  18
ATOM     18  C   UNL     1       3.777   4.835  17.379  0.00  0.00    +0.000 C 
ATOM     19  C   UNL     1       4.008   3.444  17.947  0.00  0.00    +0.000 C 
ATOM     20  N   UNL     1       4.778   2.719  16.927  0.00  0.00    +0.000 NA
ATOM     21  C   UNL     1       5.540   3.724  16.166  0.00  0.00    +0.000 C 
ATOM     22  C   UNL     1       5.055   5.118  16.584  0.00  0.00    +0.000 C 
ATOM     23  H   UNL     1       4.138   2.231  16.301  0.00  0.00    +0.000 HD
BRANCH  22  24
ATOM     24  C   UNL     1       6.108   5.925  17.316  0.00  0.00    +0.000 A 
ATOM     25  C   UNL     1       6.368   7.263  17.026  0.00  0.00    +0.000 A 
ATOM     26  C   UNL     1       7.444   7.898  17.640  0.00  0.00    +0.000 A 
ATOM     27  C   UNL     1       8.212   7.197  18.558  0.00  0.00    +0.000 A 
ATOM     28  C   UNL     1       7.866   5.885  18.827  0.00  0.00    +0.000 A 
ATOM     29  N   UNL     1       6.845   5.235  18.223  0.00  0.00    +0.000 NA
ENDBRANCH  22  24
ENDBRANCH   2  18
TORSDOF 3
ENDMDL
MODEL 5
REMARK VINA RESULT:      -7.4      3.806      8.156
REMARK  Name = 
REMARK  3 active torsions:
REMARK  status: ('A' for Active; 'I' for Inactive)
REMARK    1  A    between atoms: C_2  and  C_16
REMARK    2  A    between atoms: N_3  and  C_4
REMARK    3  A    between atoms: C_20  and  C_21
REMARK                            x       y       z     vdW  Elec       q    Type
REMARK                         _______ _______ _______ _____ _____    ______ ____
ROOT
ATOM      1  O   UNL     1       4.713   7.527  16.650  0.00  0.00    +0.000 OA
ATOM      2  C   UNL     1       4.348   6.356  16.723  0.00  0.00    +0.000 C 
ATOM      3  N   UNL     1       3.389   5.892  17.607  0.00  0.00    +0.000 N 
ATOM      4  H   UNL     1       3.478   4.927  17.909  0.00  0.00    +0.000 HD
ENDROOT
BRANCH   3   5
ATOM      5  C   UNL     1       2.718   6.754  18.508  0.00  0.00    +0.000 A 
ATOM      6  C   UNL     1       2.313   8.034  18.103  0.00  0.00    +0.000 A 
ATOM      7  C   UNL     1       1.638   8.874  18.996  0.00  0.00    +0.000 A 
ATOM      8  C   UNL     1       1.152  10.194  18.578  0.00  0.00    +0.000 A 
ATOM      9  C   UNL     1       0.509  10.967  19.463  0.00  0.00    +0.000 A 
ATOM     10  N   UNL     1       0.310  10.561  20.757  0.00  0.00    +0.000 N 
ATOM     11  C   UNL     1       0.726   9.349  21.263  0.00  0.00    +0.000 A 
ATOM     12  O   UNL     1       0.540   9.035  22.433  0.00  0.00    +0.000 OA
ATOM     13  C   UNL     1       1.413   8.439  20.311  0.00  0.00    +0.000 A 
ATOM     14  C   UNL     1       1.810   7.163  20.724  0.00  0.00    +0.000 A 
ATOM     15  C   UNL     1       2.433   6.315  19.811  0.00  0.00    +0.000 A 
ATOM     16 CL   UNL     1       2.924   4.745  20.344  0.00  0.00    +0.000 Cl
ATOM     17  H   UNL     1      -0.166  11.169  21.411  0.00  0.00    +0.000 HD
ENDBRANCH   3   5
BRANCH   2  18
ATOM     18  C   UNL     1       4.962   5.264  15.864  0.00  0.00    +0.000 C 
ATOM     19  C   UNL     1       4.689   3.872  16.410  0.00  0.00    +0.000 C 
ATOM     20  N   UNL     1       5.716   3.002  15.820  0.00  0.00    +0.000 NA
ATOM     21  C   UNL     1       6.887   3.850  15.535  0.00  0.00    +0.000 C 
ATOM     22  C   UNL     1       6.488   5.315  15.749  0.00  0.00    +0.000 C 
ATOM     23  H   UNL     1       5.365   2.604  14.950  0.00  0.00    +0.000 HD
BRANCH  22  24
ATOM     24  C   UNL     1       7.203   5.966  16.916  0.00  0.00    +0.000 A 
ATOM     25  C   UNL     1       7.404   5.316  18.133  0.00  0.00    +0.000 A 
ATOM     26  C   UNL     1       7.940   6.024  19.204  0.00  0.00    +0.000 A 
ATOM     27  C   UNL     1       8.300   7.352  19.029  0.00  0.00    +0.000 A 
ATOM     28  C   UNL     1       8.110   7.917  17.780  0.00  0.00    +0.000 A 
ATOM     29  N   UNL     1       7.564   7.261  16.731  0.00  0.00    +0.000 NA
ENDBRANCH  22  24
ENDBRANCH   2  18
TORSDOF 3
ENDMDL
MODEL 6
REMARK VINA RESULT:      -7.2      4.452      7.326
REMARK  Name = 
REMARK  3 active torsions:
REMARK  status: ('A' for Active; 'I' for Inactive)
REMARK    1  A    between atoms: C_2  and  C_16
REMARK    2  A    between atoms: N_3  and  C_4
REMARK    3  A    between atoms: C_20  and  C_21
REMARK                            x       y       z     vdW  Elec       q    Type
REMARK                         _______ _______ _______ _____ _____    ______ ____
ROOT
ATOM      1  O   UNL     1      -5.614  10.320  18.406  0.00  0.00    +0.000 OA
ATOM      2  C   UNL     1      -5.513  11.484  18.022  0.00  0.00    +0.000 C 
ATOM      3  N   UNL     1      -4.310  12.140  17.828  0.00  0.00    +0.000 N 
ATOM      4  H   UNL     1      -4.315  13.146  17.959  0.00  0.00    +0.000 HD
ENDROOT
BRANCH   3   5
ATOM      5  C   UNL     1      -3.064  11.503  18.042  0.00  0.00    +0.000 A 
ATOM      6  C   UNL     1      -2.391  11.643  19.264  0.00  0.00    +0.000 A 
ATOM      7  C   UNL     1      -1.167  10.998  19.471  0.00  0.00    +0.000 A 
ATOM      8  C   UNL     1      -0.473  11.081  20.763  0.00  0.00    +0.000 A 
ATOM      9  C   UNL     1       0.696  10.448  20.921  0.00  0.00    +0.000 A 
ATOM     10  N   UNL     1       1.271   9.738  19.899  0.00  0.00    +0.000 N 
ATOM     11  C   UNL     1       0.717   9.596  18.645  0.00  0.00    +0.000 A 
ATOM     12  O   UNL     1       1.275   8.964  17.755  0.00  0.00    +0.000 OA
ATOM     13  C   UNL     1      -0.600  10.249  18.430  0.00  0.00    +0.000 A 
ATOM     14  C   UNL     1      -1.264  10.101  17.207  0.00  0.00    +0.000 A 
ATOM     15  C   UNL     1      -2.508  10.703  17.031  0.00  0.00    +0.000 A 
ATOM     16 CL   UNL     1      -3.309  10.514  15.510  0.00  0.00    +0.000 Cl
ATOM     17  H   UNL     1       2.162   9.280  20.037  0.00  0.00    +0.000 HD
ENDBRANCH   3   5
BRANCH   2  18
ATOM     18  C   UNL     1      -6.731  12.355  17.761  0.00  0.00    +0.000 C 
ATOM     19  C   UNL     1      -6.438  13.484  16.786  0.00  0.00    +0.000 C 
ATOM     20  N   UNL     1      -7.481  14.493  17.018  0.00  0.00    +0.000 NA
ATOM     21  C   UNL     1      -7.916  14.349  18.418  0.00  0.00    +0.000 C 
ATOM     22  C   UNL     1      -7.284  13.075  18.994  0.00  0.00    +0.000 C 
ATOM     23  H   UNL     1      -8.270  14.316  16.397  0.00  0.00    +0.000 HD
BRANCH  22  24
ATOM     24  C   UNL     1      -6.274  13.349  20.089  0.00  0.00    +0.000 A 
ATOM     25  C   UNL     1      -6.157  12.547  21.224  0.00  0.00    +0.000 A 
ATOM     26  C   UNL     1      -5.308  12.940  22.253  0.00  0.00    +0.000 A 
ATOM     27  C   UNL     1      -4.565  14.104  22.114  0.00  0.00    +0.000 A 
ATOM     28  C   UNL     1      -4.702  14.825  20.941  0.00  0.00    +0.000 A 
ATOM     29  N   UNL     1      -5.542  14.482  19.939  0.00  0.00    +0.000 NA
ENDBRANCH  22  24
ENDBRANCH   2  18
TORSDOF 3
ENDMDL
MODEL 7
REMARK VINA RESULT:      -7.0      9.885     12.104
REMARK  Name = 
REMARK  3 active torsions:
REMARK  status: ('A' for Active; 'I' for Inactive)
REMARK    1  A    between atoms: C_2  and  C_16
REMARK    2  A    between atoms: N_3  and  C_4
REMARK    3  A    between atoms: C_20  and  C_21
REMARK                            x       y       z     vdW  Elec       q    Type
REMARK                         _______ _______ _______ _____ _____    ______ ____
ROOT
ATOM      1  O   UNL     1       8.595  15.002  19.712  0.00  0.00    +0.000 OA
ATOM      2  C   UNL     1       9.795  14.833  19.913  0.00  0.00    +0.000 C 
ATOM      3  N   UNL     1      10.343  14.521  21.145  0.00  0.00    +0.000 N 
ATOM      4  H   UNL     1      11.293  14.837  21.314  0.00  0.00    +0.000 HD
ENDROOT
BRANCH   3   5
ATOM      5  C   UNL     1       9.544  14.347  22.300  0.00  0.00    +0.000 A 
ATOM      6  C   UNL     1       8.923  13.116  22.561  0.00  0.00    +0.000 A 
ATOM      7  C   UNL     1       8.146  12.950  23.713  0.00  0.00    +0.000 A 
ATOM      8  C   UNL     1       7.536  11.654  24.036  0.00  0.00    +0.000 A 
ATOM      9  C   UNL     1       6.800  11.536  25.149  0.00  0.00    +0.000 A 
ATOM     10  N   UNL     1       6.588  12.602  25.984  0.00  0.00    +0.000 N 
ATOM     11  C   UNL     1       7.104  13.864  25.780  0.00  0.00    +0.000 A 
ATOM     12  O   UNL     1       6.875  14.792  26.546  0.00  0.00    +0.000 OA
ATOM     13  C   UNL     1       7.958  14.037  24.577  0.00  0.00    +0.000 A 
ATOM     14  C   UNL     1       8.575  15.268  24.329  0.00  0.00    +0.000 A 
ATOM     15  C   UNL     1       9.391  15.407  23.207  0.00  0.00    +0.000 A 
ATOM     16 CL   UNL     1      10.137  16.939  22.914  0.00  0.00    +0.000 Cl
ATOM     17  H   UNL     1       6.017  12.492  26.812  0.00  0.00    +0.000 HD
ENDBRANCH   3   5
BRANCH   2  18
ATOM     18  C   UNL     1      10.829  15.000  18.812  0.00  0.00    +0.000 C 
ATOM     19  C   UNL     1      10.222  15.515  17.517  0.00  0.00    +0.000 C 
ATOM     20  N   UNL     1      11.171  15.149  16.457  0.00  0.00    +0.000 NA
ATOM     21  C   UNL     1      11.894  13.951  16.920  0.00  0.00    +0.000 C 
ATOM     22  C   UNL     1      11.537  13.708  18.392  0.00  0.00    +0.000 C 
ATOM     23  H   UNL     1      11.832  15.911  16.315  0.00  0.00    +0.000 HD
BRANCH  22  24
ATOM     24  C   UNL     1      10.746  12.436  18.615  0.00  0.00    +0.000 A 
ATOM     25  C   UNL     1       9.785  11.978  17.714  0.00  0.00    +0.000 A 
ATOM     26  C   UNL     1       8.999  10.882  18.053  0.00  0.00    +0.000 A 
ATOM     27  C   UNL     1       9.214  10.240  19.264  0.00  0.00    +0.000 A 
ATOM     28  C   UNL     1      10.215  10.724  20.086  0.00  0.00    +0.000 A 
ATOM     29  N   UNL     1      10.972  11.806  19.796  0.00  0.00    +0.000 NA
ENDBRANCH  22  24
ENDBRANCH   2  18
TORSDOF 3
ENDMDL
MODEL 8
REMARK VINA RESULT:      -7.0      2.456      7.377
REMARK  Name = 
REMARK  3 active torsions:
REMARK  status: ('A' for Active; 'I' for Inactive)
REMARK    1  A    between atoms: C_2  and  C_16
REMARK    2  A    between atoms: N_3  and  C_4
REMARK    3  A    between atoms: C_20  and  C_21
REMARK                            x       y       z     vdW  Elec       q    Type
REMARK                         _______ _______ _______ _____ _____    ______ ____
ROOT
ATOM      1  O   UNL     1       1.352   4.793  18.367  0.00  0.00    +0.000 OA
ATOM      2  C   UNL     1       1.982   4.590  19.403  0.00  0.00    +0.000 C 
ATOM      3  N   UNL     1       2.293   5.569  20.331  0.00  0.00    +0.000 N 
ATOM      4  H   UNL     1       3.143   5.432  20.869  0.00  0.00    +0.000 HD
ENDROOT
BRANCH   3   5
ATOM      5  C   UNL     1       1.882   6.914  20.170  0.00  0.00    +0.000 A 
ATOM      6  C   UNL     1       1.135   7.557  21.168  0.00  0.00    +0.000 A 
ATOM      7  C   UNL     1       0.746   8.891  21.006  0.00  0.00    +0.000 A 
ATOM      8  C   UNL     1       0.015   9.603  22.061  0.00  0.00    +0.000 A 
ATOM      9  C   UNL     1      -0.339  10.880  21.868  0.00  0.00    +0.000 A 
ATOM     10  N   UNL     1      -0.050  11.533  20.698  0.00  0.00    +0.000 N 
ATOM     11  C   UNL     1       0.625  10.967  19.638  0.00  0.00    +0.000 A 
ATOM     12  O   UNL     1       0.848  11.586  18.604  0.00  0.00    +0.000 OA
ATOM     13  C   UNL     1       1.071   9.562  19.818  0.00  0.00    +0.000 A 
ATOM     14  C   UNL     1       1.818   8.931  18.818  0.00  0.00    +0.000 A 
ATOM     15  C   UNL     1       2.247   7.620  19.013  0.00  0.00    +0.000 A 
ATOM     16 CL   UNL     1       3.163   6.855  17.761  0.00  0.00    +0.000 Cl
ATOM     17  H   UNL     1      -0.339  12.494  20.569  0.00  0.00    +0.000 HD
ENDBRANCH   3   5
BRANCH   2  18
ATOM     18  C   UNL     1       2.539   3.220  19.754  0.00  0.00    +0.000 C 
ATOM     19  C   UNL     1       3.041   3.147  21.187  0.00  0.00    +0.000 C 
ATOM     20  N   UNL     1       3.973   2.012  21.226  0.00  0.00    +0.000 NA
ATOM     21  C   UNL     1       4.527   1.861  19.869  0.00  0.00    +0.000 C 
ATOM     22  C   UNL     1       3.749   2.784  18.923  0.00  0.00    +0.000 C 
ATOM     23  H   UNL     1       3.466   1.165  21.482  0.00  0.00    +0.000 HD
BRANCH  22  24
ATOM     24  C   UNL     1       4.589   3.914  18.363  0.00  0.00    +0.000 A 
ATOM     25  C   UNL     1       4.698   4.165  16.995  0.00  0.00    +0.000 A 
ATOM     26  C   UNL     1       5.598   5.127  16.548  0.00  0.00    +0.000 A 
ATOM     27  C   UNL     1       6.342   5.845  17.473  0.00  0.00    +0.000 A 
ATOM     28  C   UNL     1       6.147   5.570  18.815  0.00  0.00    +0.000 A 
ATOM     29  N   UNL     1       5.302   4.620  19.276  0.00  0.00    +0.000 NA
ENDBRANCH  22  24
ENDBRANCH   2  18
TORSDOF 3
ENDMDL
MODEL 9
REMARK VINA RESULT:      -6.9      3.122      8.007
REMARK  Name = 
REMARK  3 active torsions:
REMARK  status: ('A' for Active; 'I' for Inactive)
REMARK    1  A    between atoms: C_2  and  C_16
REMARK    2  A    between atoms: N_3  and  C_4
REMARK    3  A    between atoms: C_20  and  C_21
REMARK                            x       y       z     vdW  Elec       q    Type
REMARK                         _______ _______ _______ _____ _____    ______ ____
ROOT
ATOM      1  O   UNL     1       3.278   6.933  19.760  0.00  0.00    +0.000 OA
ATOM      2  C   UNL     1       2.506   6.730  18.825  0.00  0.00    +0.000 C 
ATOM      3  N   UNL     1       1.625   7.672  18.322  0.00  0.00    +0.000 N 
ATOM      4  H   UNL     1       0.769   7.318  17.908  0.00  0.00    +0.000 HD
ENDROOT
BRANCH   3   5
ATOM      5  C   UNL     1       1.554   8.986  18.842  0.00  0.00    +0.000 A 
ATOM      6  C   UNL     1       2.062  10.072  18.112  0.00  0.00    +0.000 A 
ATOM      7  C   UNL     1       1.974  11.369  18.629  0.00  0.00    +0.000 A 
ATOM      8  C   UNL     1       2.444  12.527  17.858  0.00  0.00    +0.000 A 
ATOM      9  C   UNL     1       2.341  13.753  18.387  0.00  0.00    +0.000 A 
ATOM     10  N   UNL     1       1.823  13.950  19.640  0.00  0.00    +0.000 N 
ATOM     11  C   UNL     1       1.356  12.942  20.457  0.00  0.00    +0.000 A 
ATOM     12  O   UNL     1       0.915  13.165  21.578  0.00  0.00    +0.000 OA
ATOM     13  C   UNL     1       1.415  11.566  19.900  0.00  0.00    +0.000 A 
ATOM     14  C   UNL     1       0.903  10.492  20.635  0.00  0.00    +0.000 A 
ATOM     15  C   UNL     1       0.947   9.210  20.088  0.00  0.00    +0.000 A 
ATOM     16 CL   UNL     1       0.316   7.894  21.015  0.00  0.00    +0.000 Cl
ATOM     17  H   UNL     1       1.768  14.885  20.025  0.00  0.00    +0.000 HD
ENDBRANCH   3   5
BRANCH   2  18
ATOM     18  C   UNL     1       2.404   5.376  18.143  0.00  0.00    +0.000 C 
ATOM     19  C   UNL     1       2.315   4.229  19.137  0.00  0.00    +0.000 C 
ATOM     20  N   UNL     1       2.730   3.028  18.399  0.00  0.00    +0.000 NA
ATOM     21  C   UNL     1       3.639   3.472  17.327  0.00  0.00    +0.000 C 
ATOM     22  C   UNL     1       3.605   5.004  17.267  0.00  0.00    +0.000 C 
ATOM     23  H   UNL     1       1.911   2.582  17.987  0.00  0.00    +0.000 HD
BRANCH  22  24
ATOM     24  C   UNL     1       4.918   5.649  17.663  0.00  0.00    +0.000 A 
ATOM     25  C   UNL     1       5.438   6.763  17.005  0.00  0.00    +0.000 A 
ATOM     26  C   UNL     1       6.714   7.213  17.330  0.00  0.00    +0.000 A 
ATOM     27  C   UNL     1       7.428   6.568  18.329  0.00  0.00    +0.000 A 
ATOM     28  C   UNL     1       6.828   5.496  18.967  0.00  0.00    +0.000 A 
ATOM     29  N   UNL     1       5.603   5.020  18.650  0.00  0.00    +0.000 NA
ENDBRANCH  22  24
ENDBRANCH   2  18
TORSDOF 3
ENDMDL
