MODEL 1
REMARK VINA RESULT:      -7.5      0.000      0.000
REMARK  Name = 
REMARK  5 active torsions:
REMARK  status: ('A' for Active; 'I' for Inactive)
REMARK    1  A    between atoms: C_4  and  C_5
REMARK    2  A    between atoms: C_5  and  N_6
REMARK    3  A    between atoms: N_6  and  C_7
REMARK    4  A    between atoms: C_7  and  C_8
REMARK    5  A    between atoms: C_10  and  C_11
REMARK                            x       y       z     vdW  Elec       q    Type
REMARK                         _______ _______ _______ _____ _____    ______ ____
ROOT
ATOM      1  C   UNL     1       7.055   6.503  18.072  0.00  0.00    +0.000 A 
ATOM      2  N   UNL     1       5.992   5.888  17.603  0.00  0.00    +0.000 NA
ATOM      3  C   UNL     1       5.722   4.927  18.553  0.00  0.00    +0.000 A 
ATOM      4  N   UNL     1       6.580   4.929  19.585  0.00  0.00    +0.000 NA
ATOM      5  N   UNL     1       7.420   5.920  19.249  0.00  0.00    +0.000 N 
ATOM      6  H   UNL     1       8.226   6.125  19.830  0.00  0.00    +0.000 HD
ENDROOT
BRANCH   3   7
ATOM      7  C   UNL     1       4.598   4.010  18.423  0.00  0.00    +0.000 A 
ATOM      8  C   UNL     1       4.392   3.005  19.370  0.00  0.00    +0.000 A 
ATOM      9  C   UNL     1       3.319   2.149  19.204  0.00  0.00    +0.000 A 
ATOM     10  N   UNL     1       2.450   2.227  18.172  0.00  0.00    +0.000 NA
ATOM     11  C   UNL     1       2.666   3.208  17.270  0.00  0.00    +0.000 A 
ATOM     12  C   UNL     1       3.709   4.113  17.349  0.00  0.00    +0.000 A 
ENDBRANCH   3   7
BRANCH   1  13
ATOM     13  C   UNL     1       7.832   7.606  17.448  0.00  0.00    +0.000 C 
BRANCH  13  14
ATOM     14  N   UNL     1       8.443   8.492  18.443  0.00  0.00    +0.000 NA
ATOM     15  H   UNL     1       7.929   8.391  19.320  0.00  0.00    +0.000 HD
BRANCH  14  16
ATOM     16  C   UNL     1       8.345   9.904  18.042  0.00  0.00    +0.000 C 
BRANCH  16  20
ATOM     17  C   UNL     1      11.515  12.245  19.801  0.00  0.00    +0.000 A 
ATOM     18  C   UNL     1      11.474  12.050  18.422  0.00  0.00    +0.000 A 
ATOM     19  C   UNL     1      10.449  11.293  17.857  0.00  0.00    +0.000 A 
ATOM     20  C   UNL     1       9.457  10.714  18.664  0.00  0.00    +0.000 A 
ATOM     21  C   UNL     1       9.504  10.926  20.049  0.00  0.00    +0.000 A 
ATOM     22  C   UNL     1      10.529  11.688  20.614  0.00  0.00    +0.000 A 
ENDBRANCH  16  20
ENDBRANCH  14  16
ENDBRANCH  13  14
ENDBRANCH   1  13
TORSDOF 5
ENDMDL
MODEL 2
REMARK VINA RESULT:      -7.4      5.168      7.914
REMARK  Name = 
REMARK  5 active torsions:
REMARK  status: ('A' for Active; 'I' for Inactive)
REMARK    1  A    between atoms: C_4  and  C_5
REMARK    2  A    between atoms: C_5  and  N_6
REMARK    3  A    between atoms: N_6  and  C_7
REMARK    4  A    between atoms: C_7  and  C_8
REMARK    5  A    between atoms: C_10  and  C_11
REMARK                            x       y       z     vdW  Elec       q    Type
REMARK                         _______ _______ _______ _____ _____    ______ ____
ROOT
ATOM      1  C   UNL     1       5.897   4.597  17.924  0.00  0.00    +0.000 A 
ATOM      2  N   UNL     1       5.589   4.662  16.647  0.00  0.00    +0.000 NA
ATOM      3  C   UNL     1       6.792   4.459  16.007  0.00  0.00    +0.000 A 
ATOM      4  N   UNL     1       7.825   4.273  16.843  0.00  0.00    +0.000 NA
ATOM      5  N   UNL     1       7.238   4.382  18.044  0.00  0.00    +0.000 N 
ATOM      6  H   UNL     1       7.794   4.337  18.890  0.00  0.00    +0.000 HD
ENDROOT
BRANCH   3   7
ATOM      7  C   UNL     1       6.899   4.448  14.555  0.00  0.00    +0.000 A 
ATOM      8  C   UNL     1       6.128   3.566  13.795  0.00  0.00    +0.000 A 
ATOM      9  C   UNL     1       6.268   3.581  12.420  0.00  0.00    +0.000 A 
ATOM     10  N   UNL     1       7.112   4.404  11.760  0.00  0.00    +0.000 NA
ATOM     11  C   UNL     1       7.845   5.251  12.514  0.00  0.00    +0.000 A 
ATOM     12  C   UNL     1       7.776   5.313  13.894  0.00  0.00    +0.000 A 
ENDBRANCH   3   7
BRANCH   1  13
ATOM     13  C   UNL     1       5.007   4.791  19.098  0.00  0.00    +0.000 C 
BRANCH  13  14
ATOM     14  N   UNL     1       4.399   6.124  19.125  0.00  0.00    +0.000 NA
ATOM     15  H   UNL     1       4.273   6.399  20.100  0.00  0.00    +0.000 HD
BRANCH  14  16
ATOM     16  C   UNL     1       3.068   6.124  18.499  0.00  0.00    +0.000 C 
BRANCH  16  20
ATOM     17  C   UNL     1       0.748   2.730  19.811  0.00  0.00    +0.000 A 
ATOM     18  C   UNL     1       1.113   3.719  20.721  0.00  0.00    +0.000 A 
ATOM     19  C   UNL     1       1.863   4.814  20.294  0.00  0.00    +0.000 A 
ATOM     20  C   UNL     1       2.265   4.929  18.954  0.00  0.00    +0.000 A 
ATOM     21  C   UNL     1       1.882   3.932  18.046  0.00  0.00    +0.000 A 
ATOM     22  C   UNL     1       1.127   2.837  18.474  0.00  0.00    +0.000 A 
ENDBRANCH  16  20
ENDBRANCH  14  16
ENDBRANCH  13  14
ENDBRANCH   1  13
TORSDOF 5
ENDMDL
MODEL 3
REMARK VINA RESULT:      -7.3      4.811      7.921
REMARK  Name = 
REMARK  5 active torsions:
REMARK  status: ('A' for Active; 'I' for Inactive)
REMARK    1  A    between atoms: C_4  and  C_5
REMARK    2  A    between atoms: C_5  and  N_6
REMARK    3  A    between atoms: N_6  and  C_7
REMARK    4  A    between atoms: C_7  and  C_8
REMARK    5  A    between atoms: C_10  and  C_11
REMARK                            x       y       z     vdW  Elec       q    Type
REMARK                         _______ _______ _______ _____ _____    ______ ____
ROOT
ATOM      1  C   UNL     1       6.193   5.195  17.941  0.00  0.00    +0.000 A 
ATOM      2  N   UNL     1       6.007   4.542  16.815  0.00  0.00    +0.000 NA
ATOM      3  C   UNL     1       6.778   5.231  15.904  0.00  0.00    +0.000 A 
ATOM      4  N   UNL     1       7.427   6.282  16.428  0.00  0.00    +0.000 NA
ATOM      5  N   UNL     1       7.028   6.247  17.709  0.00  0.00    +0.000 N 
ATOM      6  H   UNL     1       7.323   6.971  18.355  0.00  0.00    +0.000 HD
ENDROOT
BRANCH   3   7
ATOM      7  C   UNL     1       6.862   4.830  14.507  0.00  0.00    +0.000 A 
ATOM      8  C   UNL     1       7.754   5.466  13.641  0.00  0.00    +0.000 A 
ATOM      9  C   UNL     1       7.796   5.061  12.320  0.00  0.00    +0.000 A 
ATOM     10  N   UNL     1       7.021   4.078  11.811  0.00  0.00    +0.000 NA
ATOM     11  C   UNL     1       6.169   3.473  12.667  0.00  0.00    +0.000 A 
ATOM     12  C   UNL     1       6.054   3.806  14.004  0.00  0.00    +0.000 A 
ENDBRANCH   3   7
BRANCH   1  13
ATOM     13  C   UNL     1       5.574   4.939  19.267  0.00  0.00    +0.000 C 
BRANCH  13  14
ATOM     14  N   UNL     1       4.531   5.914  19.595  0.00  0.00    +0.000 NA
ATOM     15  H   UNL     1       4.176   5.701  20.529  0.00  0.00    +0.000 HD
BRANCH  14  16
ATOM     16  C   UNL     1       3.393   5.820  18.668  0.00  0.00    +0.000 C 
BRANCH  16  20
ATOM     17  C   UNL     1       0.711   2.653  19.852  0.00  0.00    +0.000 A 
ATOM     18  C   UNL     1       1.254   3.502  20.813  0.00  0.00    +0.000 A 
ATOM     19  C   UNL     1       2.121   4.524  20.427  0.00  0.00    +0.000 A 
ATOM     20  C   UNL     1       2.461   4.703  19.077  0.00  0.00    +0.000 A 
ATOM     21  C   UNL     1       1.899   3.849  18.119  0.00  0.00    +0.000 A 
ATOM     22  C   UNL     1       1.028   2.828  18.506  0.00  0.00    +0.000 A 
ENDBRANCH  16  20
ENDBRANCH  14  16
ENDBRANCH  13  14
ENDBRANCH   1  13
TORSDOF 5
ENDMDL
MODEL 4
REMARK VINA RESULT:      -7.3      0.857      1.174
REMARK  Name = 
REMARK  5 active torsions:
REMARK  status: ('A' for Active; 'I' for Inactive)
REMARK    1  A    between atoms: C_4  and  C_5
REMARK    2  A    between atoms: C_5  and  N_6
REMARK    3  A    between atoms: N_6  and  C_7
REMARK    4  A    between atoms: C_7  and  C_8
REMARK    5  A    between atoms: C_10  and  C_11
REMARK                            x       y       z     vdW  Elec       q    Type
REMARK                         _______ _______ _______ _____ _____    ______ ____
ROOT
ATOM      1  C   UNL     1       6.958   6.496  17.581  0.00  0.00    +0.000 A 
ATOM      2  N   UNL     1       5.688   6.280  17.316  0.00  0.00    +0.000 NA
ATOM      3  C   UNL     1       5.441   5.044  17.871  0.00  0.00    +0.000 A 
ATOM      4  N   UNL     1       6.511   4.494  18.466  0.00  0.00    +0.000 NA
ATOM      5  N   UNL     1       7.457   5.421  18.254  0.00  0.00    +0.000 N 
ATOM      6  H   UNL     1       8.412   5.254  18.553  0.00  0.00    +0.000 HD
ENDROOT
BRANCH   3   7
ATOM      7  C   UNL     1       4.128   4.419  17.807  0.00  0.00    +0.000 A 
ATOM      8  C   UNL     1       2.971   5.184  17.971  0.00  0.00    +0.000 A 
ATOM      9  C   UNL     1       1.744   4.550  17.912  0.00  0.00    +0.000 A 
ATOM     10  N   UNL     1       1.594   3.224  17.704  0.00  0.00    +0.000 NA
ATOM     11  C   UNL     1       2.725   2.503  17.543  0.00  0.00    +0.000 A 
ATOM     12  C   UNL     1       3.996   3.045  17.584  0.00  0.00    +0.000 A 
ENDBRANCH   3   7
BRANCH   1  13
ATOM     13  C   UNL     1       7.798   7.656  17.184  0.00  0.00    +0.000 C 
BRANCH  13  14
ATOM     14  N   UNL     1       8.170   8.494  18.327  0.00  0.00    +0.000 NA
ATOM     15  H   UNL     1       7.474   8.361  19.062  0.00  0.00    +0.000 HD
BRANCH  14  16
ATOM     16  C   UNL     1       8.161   9.922  17.975  0.00  0.00    +0.000 C 
BRANCH  16  20
ATOM     17  C   UNL     1      11.560  11.964  19.679  0.00  0.00    +0.000 A 
ATOM     18  C   UNL     1      11.480  11.774  18.301  0.00  0.00    +0.000 A 
ATOM     19  C   UNL     1      10.380  11.114  17.754  0.00  0.00    +0.000 A 
ATOM     20  C   UNL     1       9.353  10.627  18.578  0.00  0.00    +0.000 A 
ATOM     21  C   UNL     1       9.442  10.835  19.962  0.00  0.00    +0.000 A 
ATOM     22  C   UNL     1      10.541  11.500  20.508  0.00  0.00    +0.000 A 
ENDBRANCH  16  20
ENDBRANCH  14  16
ENDBRANCH  13  14
ENDBRANCH   1  13
TORSDOF 5
ENDMDL
MODEL 5
REMARK VINA RESULT:      -7.3      5.318      8.223
REMARK  Name = 
REMARK  5 active torsions:
REMARK  status: ('A' for Active; 'I' for Inactive)
REMARK    1  A    between atoms: C_4  and  C_5
REMARK    2  A    between atoms: C_5  and  N_6
REMARK    3  A    between atoms: N_6  and  C_7
REMARK    4  A    between atoms: C_7  and  C_8
REMARK    5  A    between atoms: C_10  and  C_11
REMARK                            x       y       z     vdW  Elec       q    Type
REMARK                         _______ _______ _______ _____ _____    ______ ____
ROOT
ATOM      1  C   UNL     1       4.312   5.048  17.082  0.00  0.00    +0.000 A 
ATOM      2  N   UNL     1       3.259   5.497  17.729  0.00  0.00    +0.000 NA
ATOM      3  C   UNL     1       3.514   6.842  17.879  0.00  0.00    +0.000 A 
ATOM      4  N   UNL     1       4.684   7.235  17.351  0.00  0.00    +0.000 NA
ATOM      5  N   UNL     1       5.174   6.082  16.870  0.00  0.00    +0.000 N 
ATOM      6  H   UNL     1       6.097   6.057  16.449  0.00  0.00    +0.000 HD
ENDROOT
BRANCH   3   7
ATOM      7  C   UNL     1       2.579   7.733  18.552  0.00  0.00    +0.000 A 
ATOM      8  C   UNL     1       2.172   7.473  19.862  0.00  0.00    +0.000 A 
ATOM      9  C   UNL     1       1.275   8.338  20.461  0.00  0.00    +0.000 A 
ATOM     10  N   UNL     1       0.764   9.429  19.850  0.00  0.00    +0.000 NA
ATOM     11  C   UNL     1       1.173   9.664  18.585  0.00  0.00    +0.000 A 
ATOM     12  C   UNL     1       2.067   8.860  17.902  0.00  0.00    +0.000 A 
ENDBRANCH   3   7
BRANCH   1  13
ATOM     13  C   UNL     1       4.620   3.651  16.680  0.00  0.00    +0.000 C 
BRANCH  13  14
ATOM     14  N   UNL     1       4.699   2.744  17.828  0.00  0.00    +0.000 NA
ATOM     15  H   UNL     1       5.474   2.097  17.673  0.00  0.00    +0.000 HD
BRANCH  14  16
ATOM     16  C   UNL     1       3.478   1.934  17.962  0.00  0.00    +0.000 C 
BRANCH  16  20
ATOM     17  C   UNL     1       1.229   3.184  21.427  0.00  0.00    +0.000 A 
ATOM     18  C   UNL     1       2.583   2.878  21.547  0.00  0.00    +0.000 A 
ATOM     19  C   UNL     1       3.307   2.474  20.425  0.00  0.00    +0.000 A 
ATOM     20  C   UNL     1       2.683   2.362  19.173  0.00  0.00    +0.000 A 
ATOM     21  C   UNL     1       1.323   2.683  19.064  0.00  0.00    +0.000 A 
ATOM     22  C   UNL     1       0.600   3.091  20.187  0.00  0.00    +0.000 A 
ENDBRANCH  16  20
ENDBRANCH  14  16
ENDBRANCH  13  14
ENDBRANCH   1  13
TORSDOF 5
ENDMDL
MODEL 6
REMARK VINA RESULT:      -7.2      4.763      7.908
REMARK  Name = 
REMARK  5 active torsions:
REMARK  status: ('A' for Active; 'I' for Inactive)
REMARK    1  A    between atoms: C_4  and  C_5
REMARK    2  A    between atoms: C_5  and  N_6
REMARK    3  A    between atoms: N_6  and  C_7
REMARK    4  A    between atoms: C_7  and  C_8
REMARK    5  A    between atoms: C_10  and  C_11
REMARK                            x       y       z     vdW  Elec       q    Type
REMARK                         _______ _______ _______ _____ _____    ______ ____
ROOT
ATOM      1  C   UNL     1       6.951   4.777  16.155  0.00  0.00    +0.000 A 
ATOM      2  N   UNL     1       6.251   3.928  15.435  0.00  0.00    +0.000 NA
ATOM      3  C   UNL     1       6.533   4.288  14.135  0.00  0.00    +0.000 A 
ATOM      4  N   UNL     1       7.378   5.326  14.031  0.00  0.00    +0.000 NA
ATOM      5  N   UNL     1       7.613   5.626  15.318  0.00  0.00    +0.000 N 
ATOM      6  H   UNL     1       8.191   6.423  15.558  0.00  0.00    +0.000 HD
ENDROOT
BRANCH   3   7
ATOM      7  C   UNL     1       5.954   3.586  12.998  0.00  0.00    +0.000 A 
ATOM      8  C   UNL     1       6.682   2.597  12.333  0.00  0.00    +0.000 A 
ATOM      9  C   UNL     1       6.100   1.961  11.252  0.00  0.00    +0.000 A 
ATOM     10  N   UNL     1       4.859   2.240  10.797  0.00  0.00    +0.000 NA
ATOM     11  C   UNL     1       4.171   3.196  11.458  0.00  0.00    +0.000 A 
ATOM     12  C   UNL     1       4.666   3.887  12.548  0.00  0.00    +0.000 A 
ENDBRANCH   3   7
BRANCH   1  13
ATOM     13  C   UNL     1       7.007   4.904  17.634  0.00  0.00    +0.000 C 
BRANCH  13  14
ATOM     14  N   UNL     1       6.145   3.931  18.311  0.00  0.00    +0.000 NA
ATOM     15  H   UNL     1       5.653   3.388  17.600  0.00  0.00    +0.000 HD
BRANCH  14  16
ATOM     16  C   UNL     1       5.123   4.595  19.134  0.00  0.00    +0.000 C 
BRANCH  16  20
ATOM     17  C   UNL     1       1.227   2.867  18.453  0.00  0.00    +0.000 A 
ATOM     18  C   UNL     1       2.170   2.181  19.214  0.00  0.00    +0.000 A 
ATOM     19  C   UNL     1       3.429   2.742  19.432  0.00  0.00    +0.000 A 
ATOM     20  C   UNL     1       3.761   3.991  18.884  0.00  0.00    +0.000 A 
ATOM     21  C   UNL     1       2.799   4.674  18.128  0.00  0.00    +0.000 A 
ATOM     22  C   UNL     1       1.538   4.114  17.914  0.00  0.00    +0.000 A 
ENDBRANCH  16  20
ENDBRANCH  14  16
ENDBRANCH  13  14
ENDBRANCH   1  13
TORSDOF 5
ENDMDL
MODEL 7
REMARK VINA RESULT:      -7.2      5.472      8.340
REMARK  Name = 
REMARK  5 active torsions:
REMARK  status: ('A' for Active; 'I' for Inactive)
REMARK    1  A    between atoms: C_4  and  C_5
REMARK    2  A    between atoms: C_5  and  N_6
REMARK    3  A    between atoms: N_6  and  C_7
REMARK    4  A    between atoms: C_7  and  C_8
REMARK    5  A    between atoms: C_10  and  C_11
REMARK                            x       y       z     vdW  Elec       q    Type
REMARK                         _______ _______ _______ _____ _____    ______ ____
ROOT
ATOM      1  C   UNL     1       3.964   5.089  17.035  0.00  0.00    +0.000 A 
ATOM      2  N   UNL     1       2.954   5.556  17.736  0.00  0.00    +0.000 NA
ATOM      3  C   UNL     1       3.254   6.891  17.898  0.00  0.00    +0.000 A 
ATOM      4  N   UNL     1       4.410   7.260  17.324  0.00  0.00    +0.000 NA
ATOM      5  N   UNL     1       4.845   6.103  16.802  0.00  0.00    +0.000 N 
ATOM      6  H   UNL     1       5.746   6.059  16.339  0.00  0.00    +0.000 HD
ENDROOT
BRANCH   3   7
ATOM      7  C   UNL     1       2.376   7.794  18.628  0.00  0.00    +0.000 A 
ATOM      8  C   UNL     1       1.838   8.919  17.998  0.00  0.00    +0.000 A 
ATOM      9  C   UNL     1       1.017   9.757  18.730  0.00  0.00    +0.000 A 
ATOM     10  N   UNL     1       0.700   9.552  20.027  0.00  0.00    +0.000 NA
ATOM     11  C   UNL     1       1.227   8.457  20.615  0.00  0.00    +0.000 A 
ATOM     12  C   UNL     1       2.057   7.559  19.969  0.00  0.00    +0.000 A 
ENDBRANCH   3   7
BRANCH   1  13
ATOM     13  C   UNL     1       4.213   3.692  16.596  0.00  0.00    +0.000 C 
BRANCH  13  14
ATOM     14  N   UNL     1       4.688   2.839  17.689  0.00  0.00    +0.000 NA
ATOM     15  H   UNL     1       5.525   2.348  17.371  0.00  0.00    +0.000 HD
BRANCH  14  16
ATOM     16  C   UNL     1       3.694   1.815  18.047  0.00  0.00    +0.000 C 
BRANCH  16  20
ATOM     17  C   UNL     1       1.166   3.165  21.274  0.00  0.00    +0.000 A 
ATOM     18  C   UNL     1       0.631   2.974  20.002  0.00  0.00    +0.000 A 
ATOM     19  C   UNL     1       1.451   2.539  18.961  0.00  0.00    +0.000 A 
ATOM     20  C   UNL     1       2.816   2.297  19.178  0.00  0.00    +0.000 A 
ATOM     21  C   UNL     1       3.339   2.483  20.465  0.00  0.00    +0.000 A 
ATOM     22  C   UNL     1       2.517   2.915  21.508  0.00  0.00    +0.000 A 
ENDBRANCH  16  20
ENDBRANCH  14  16
ENDBRANCH  13  14
ENDBRANCH   1  13
TORSDOF 5
ENDMDL
MODEL 8
REMARK VINA RESULT:      -7.2      0.814      1.066
REMARK  Name = 
REMARK  5 active torsions:
REMARK  status: ('A' for Active; 'I' for Inactive)
REMARK    1  A    between atoms: C_4  and  C_5
REMARK    2  A    between atoms: C_5  and  N_6
REMARK    3  A    between atoms: N_6  and  C_7
REMARK    4  A    between atoms: C_7  and  C_8
REMARK    5  A    between atoms: C_10  and  C_11
REMARK                            x       y       z     vdW  Elec       q    Type
REMARK                         _______ _______ _______ _____ _____    ______ ____
ROOT
ATOM      1  C   UNL     1       6.915   6.582  18.131  0.00  0.00    +0.000 A 
ATOM      2  N   UNL     1       5.707   6.213  17.764  0.00  0.00    +0.000 NA
ATOM      3  C   UNL     1       5.379   5.220  18.661  0.00  0.00    +0.000 A 
ATOM      4  N   UNL     1       6.340   4.965  19.563  0.00  0.00    +0.000 NA
ATOM      5  N   UNL     1       7.303   5.824  19.196  0.00  0.00    +0.000 N 
ATOM      6  H   UNL     1       8.196   5.825  19.676  0.00  0.00    +0.000 HD
ENDROOT
BRANCH   3   7
ATOM      7  C   UNL     1       4.098   4.530  18.612  0.00  0.00    +0.000 A 
ATOM      8  C   UNL     1       3.820   3.627  17.584  0.00  0.00    +0.000 A 
ATOM      9  C   UNL     1       2.587   3.001  17.570  0.00  0.00    +0.000 A 
ATOM     10  N   UNL     1       1.627   3.212  18.496  0.00  0.00    +0.000 NA
ATOM     11  C   UNL     1       1.918   4.086  19.483  0.00  0.00    +0.000 A 
ATOM     12  C   UNL     1       3.121   4.760  19.585  0.00  0.00    +0.000 A 
ENDBRANCH   3   7
BRANCH   1  13
ATOM     13  C   UNL     1       7.803   7.591  17.498  0.00  0.00    +0.000 C 
BRANCH  13  14
ATOM     14  N   UNL     1       8.435   8.474  18.481  0.00  0.00    +0.000 NA
ATOM     15  H   UNL     1       7.923   8.394  19.361  0.00  0.00    +0.000 HD
BRANCH  14  16
ATOM     16  C   UNL     1       8.364   9.884  18.066  0.00  0.00    +0.000 C 
BRANCH  16  20
ATOM     17  C   UNL     1      11.501  12.208  19.906  0.00  0.00    +0.000 A 
ATOM     18  C   UNL     1      11.513  11.986  18.530  0.00  0.00    +0.000 A 
ATOM     19  C   UNL     1      10.498  11.234  17.939  0.00  0.00    +0.000 A 
ATOM     20  C   UNL     1       9.465  10.688  18.717  0.00  0.00    +0.000 A 
ATOM     21  C   UNL     1       9.460  10.927  20.098  0.00  0.00    +0.000 A 
ATOM     22  C   UNL     1      10.475  11.683  20.689  0.00  0.00    +0.000 A 
ENDBRANCH  16  20
ENDBRANCH  14  16
ENDBRANCH  13  14
ENDBRANCH   1  13
TORSDOF 5
ENDMDL
MODEL 9
REMARK VINA RESULT:      -7.1      5.265      8.206
REMARK  Name = 
REMARK  5 active torsions:
REMARK  status: ('A' for Active; 'I' for Inactive)
REMARK    1  A    between atoms: C_4  and  C_5
REMARK    2  A    between atoms: C_5  and  N_6
REMARK    3  A    between atoms: N_6  and  C_7
REMARK    4  A    between atoms: C_7  and  C_8
REMARK    5  A    between atoms: C_10  and  C_11
REMARK                            x       y       z     vdW  Elec       q    Type
REMARK                         _______ _______ _______ _____ _____    ______ ____
ROOT
ATOM      1  C   UNL     1       4.673   5.264  17.846  0.00  0.00    +0.000 A 
ATOM      2  N   UNL     1       3.789   5.804  18.655  0.00  0.00    +0.000 NA
ATOM      3  C   UNL     1       3.433   6.974  18.020  0.00  0.00    +0.000 A 
ATOM      4  N   UNL     1       4.066   7.171  16.853  0.00  0.00    +0.000 NA
ATOM      5  N   UNL     1       4.854   6.089  16.776  0.00  0.00    +0.000 N 
ATOM      6  H   UNL     1       5.505   5.985  16.005  0.00  0.00    +0.000 HD
ENDROOT
BRANCH   3   7
ATOM      7  C   UNL     1       2.452   7.890  18.586  0.00  0.00    +0.000 A 
ATOM      8  C   UNL     1       2.045   7.757  19.915  0.00  0.00    +0.000 A 
ATOM      9  C   UNL     1       1.105   8.642  20.410  0.00  0.00    +0.000 A 
ATOM     10  N   UNL     1       0.551   9.635  19.681  0.00  0.00    +0.000 NA
ATOM     11  C   UNL     1       0.963   9.748  18.399  0.00  0.00    +0.000 A 
ATOM     12  C   UNL     1       1.897   8.914  17.813  0.00  0.00    +0.000 A 
ENDBRANCH   3   7
BRANCH   1  13
ATOM     13  C   UNL     1       5.446   4.008  18.031  0.00  0.00    +0.000 C 
BRANCH  13  14
ATOM     14  N   UNL     1       5.376   3.506  19.406  0.00  0.00    +0.000 NA
ATOM     15  H   UNL     1       6.324   3.290  19.717  0.00  0.00    +0.000 HD
BRANCH  14  16
ATOM     16  C   UNL     1       4.598   2.260  19.488  0.00  0.00    +0.000 C 
BRANCH  16  20
ATOM     17  C   UNL     1       0.390   3.083  19.983  0.00  0.00    +0.000 A 
ATOM     18  C   UNL     1       0.853   2.498  18.806  0.00  0.00    +0.000 A 
ATOM     19  C   UNL     1       2.213   2.234  18.649  0.00  0.00    +0.000 A 
ATOM     20  C   UNL     1       3.128   2.560  19.663  0.00  0.00    +0.000 A 
ATOM     21  C   UNL     1       2.647   3.138  20.846  0.00  0.00    +0.000 A 
ATOM     22  C   UNL     1       1.285   3.398  21.004  0.00  0.00    +0.000 A 
ENDBRANCH  16  20
ENDBRANCH  14  16
ENDBRANCH  13  14
ENDBRANCH   1  13
TORSDOF 5
ENDMDL
