MODEL 1
REMARK VINA RESULT:      -9.1      0.000      0.000
REMARK  Name = 
REMARK  3 active torsions:
REMARK  status: ('A' for Active; 'I' for Inactive)
REMARK    1  A    between atoms: C_1  and  O_2
REMARK    2  A    between atoms: O_2  and  C_3
REMARK    3  A    between atoms: C_12  and  O_13
REMARK                            x       y       z     vdW  Elec       q    Type
REMARK                         _______ _______ _______ _____ _____    ______ ____
ROOT
ATOM      1  C   UNL     1       0.300  10.249  20.957  0.00  0.00    +0.000 A 
ATOM      2  C   UNL     1       0.706   8.942  21.227  0.00  0.00    +0.000 A 
ATOM      3  C   UNL     1       1.407   8.200  20.275  0.00  0.00    +0.000 A 
ATOM      4  C   UNL     1       1.813   6.889  20.533  0.00  0.00    +0.000 A 
ATOM      5  N   UNL     1       2.501   6.167  19.623  0.00  0.00    +0.000 N 
ATOM      6  C   UNL     1       2.870   6.713  18.428  0.00  0.00    +0.000 A 
ATOM      7  C   UNL     1       2.436   8.007  18.105  0.00  0.00    +0.000 A 
ATOM      8  C   UNL     1       1.707   8.766  19.022  0.00  0.00    +0.000 A 
ATOM      9  C   UNL     1       1.275  10.073  18.740  0.00  0.00    +0.000 A 
ATOM     10  C   UNL     1       0.582  10.805  19.705  0.00  0.00    +0.000 A 
ATOM     11  C   UNL     1       3.715   5.876  17.560  0.00  0.00    +0.000 A 
ATOM     12  C   UNL     1       4.626   6.431  16.643  0.00  0.00    +0.000 A 
ATOM     13  C   UNL     1       5.418   5.580  15.899  0.00  0.00    +0.000 A 
ATOM     14  C   UNL     1       5.318   4.216  16.001  0.00  0.00    +0.000 A 
ATOM     15  C   UNL     1       4.435   3.619  16.870  0.00  0.00    +0.000 A 
ATOM     16  C   UNL     1       3.660   4.459  17.683  0.00  0.00    +0.000 A 
ATOM     17  C   UNL     1       2.769   3.880  18.748  0.00  0.00    +0.000 C 
ATOM     18  C   UNL     1       2.883   4.772  19.975  0.00  0.00    +0.000 C 
ATOM     19  O   UNL     1       6.197   3.570  15.192  0.00  0.00    +0.000 OA
ATOM     20  C   UNL     1       6.949   4.684  14.662  0.00  0.00    +0.000 C 
ATOM     21  O   UNL     1       6.384   5.964  15.022  0.00  0.00    +0.000 OA
ENDROOT
BRANCH   1  23
ATOM     22  C   UNL     1      -0.756  10.348  23.067  0.00  0.00    +0.000 C 
ATOM     23  O   UNL     1      -0.420  11.001  21.845  0.00  0.00    +0.000 OA
ENDBRANCH   1  23
BRANCH  10  24
ATOM     24  O   UNL     1       0.175  12.082  19.436  0.00  0.00    +0.000 OA
ATOM     25  H   UNL     1      -0.337  12.115  18.612  0.00  0.00    +0.000 HD
ENDBRANCH  10  24
TORSDOF 2
ENDMDL
MODEL 2
REMARK VINA RESULT:      -8.3      2.555      8.032
REMARK  Name = 
REMARK  3 active torsions:
REMARK  status: ('A' for Active; 'I' for Inactive)
REMARK    1  A    between atoms: C_1  and  O_2
REMARK    2  A    between atoms: O_2  and  C_3
REMARK    3  A    between atoms: C_12  and  O_13
REMARK                            x       y       z     vdW  Elec       q    Type
REMARK                         _______ _______ _______ _____ _____    ______ ____
ROOT
ATOM      1  C   UNL     1       3.654   3.331  19.848  0.00  0.00    +0.000 A 
ATOM      2  C   UNL     1       3.658   4.460  19.027  0.00  0.00    +0.000 A 
ATOM      3  C   UNL     1       2.896   5.583  19.354  0.00  0.00    +0.000 A 
ATOM      4  C   UNL     1       2.890   6.716  18.537  0.00  0.00    +0.000 A 
ATOM      5  N   UNL     1       2.165   7.811  18.849  0.00  0.00    +0.000 N 
ATOM      6  C   UNL     1       1.447   7.870  20.007  0.00  0.00    +0.000 A 
ATOM      7  C   UNL     1       1.381   6.737  20.830  0.00  0.00    +0.000 A 
ATOM      8  C   UNL     1       2.106   5.585  20.518  0.00  0.00    +0.000 A 
ATOM      9  C   UNL     1       2.081   4.439  21.330  0.00  0.00    +0.000 A 
ATOM     10  C   UNL     1       2.853   3.326  20.995  0.00  0.00    +0.000 A 
ATOM     11  C   UNL     1       0.788   9.154  20.303  0.00  0.00    +0.000 A 
ATOM     12  C   UNL     1       0.532   9.577  21.620  0.00  0.00    +0.000 A 
ATOM     13  C   UNL     1      -0.045  10.815  21.817  0.00  0.00    +0.000 A 
ATOM     14  C   UNL     1      -0.409  11.625  20.771  0.00  0.00    +0.000 A 
ATOM     15  C   UNL     1      -0.195  11.256  19.464  0.00  0.00    +0.000 A 
ATOM     16  C   UNL     1       0.446  10.030  19.234  0.00  0.00    +0.000 A 
ATOM     17  C   UNL     1       0.830   9.618  17.839  0.00  0.00    +0.000 C 
ATOM     18  C   UNL     1       2.204   8.970  17.914  0.00  0.00    +0.000 C 
ATOM     19  O   UNL     1      -0.945  12.801  21.188  0.00  0.00    +0.000 OA
ATOM     20  C   UNL     1      -0.763  12.693  22.617  0.00  0.00    +0.000 C 
ATOM     21  O   UNL     1      -0.296  11.387  23.025  0.00  0.00    +0.000 OA
ENDROOT
BRANCH   1  23
ATOM     22  C   UNL     1       3.778   1.367  18.543  0.00  0.00    +0.000 C 
ATOM     23  O   UNL     1       4.355   2.194  19.550  0.00  0.00    +0.000 OA
ENDBRANCH   1  23
BRANCH  10  24
ATOM     24  O   UNL     1       2.841   2.217  21.793  0.00  0.00    +0.000 OA
ATOM     25  H   UNL     1       3.637   2.180  22.346  0.00  0.00    +0.000 HD
ENDBRANCH  10  24
TORSDOF 2
ENDMDL
MODEL 3
REMARK VINA RESULT:      -8.1      1.609      8.105
REMARK  Name = 
REMARK  3 active torsions:
REMARK  status: ('A' for Active; 'I' for Inactive)
REMARK    1  A    between atoms: C_1  and  O_2
REMARK    2  A    between atoms: O_2  and  C_3
REMARK    3  A    between atoms: C_12  and  O_13
REMARK                            x       y       z     vdW  Elec       q    Type
REMARK                         _______ _______ _______ _____ _____    ______ ____
ROOT
ATOM      1  C   UNL     1       5.247   4.667  17.820  0.00  0.00    +0.000 A 
ATOM      2  C   UNL     1       4.760   5.881  17.334  0.00  0.00    +0.000 A 
ATOM      3  C   UNL     1       3.781   6.590  18.031  0.00  0.00    +0.000 A 
ATOM      4  C   UNL     1       3.284   7.803  17.550  0.00  0.00    +0.000 A 
ATOM      5  N   UNL     1       2.344   8.501  18.222  0.00  0.00    +0.000 N 
ATOM      6  C   UNL     1       1.878   8.068  19.429  0.00  0.00    +0.000 A 
ATOM      7  C   UNL     1       2.308   6.828  19.924  0.00  0.00    +0.000 A 
ATOM      8  C   UNL     1       3.265   6.079  19.236  0.00  0.00    +0.000 A 
ATOM      9  C   UNL     1       3.735   4.843  19.713  0.00  0.00    +0.000 A 
ATOM     10  C   UNL     1       4.720   4.150  19.009  0.00  0.00    +0.000 A 
ATOM     11  C   UNL     1       0.941   8.964  20.128  0.00  0.00    +0.000 A 
ATOM     12  C   UNL     1       0.831   8.985  21.530  0.00  0.00    +0.000 A 
ATOM     13  C   UNL     1      -0.035   9.888  22.113  0.00  0.00    +0.000 A 
ATOM     14  C   UNL     1      -0.815  10.735  21.368  0.00  0.00    +0.000 A 
ATOM     15  C   UNL     1      -0.759  10.747  19.994  0.00  0.00    +0.000 A 
ATOM     16  C   UNL     1       0.157   9.884  19.375  0.00  0.00    +0.000 A 
ATOM     17  C   UNL     1       0.368   9.934  17.887  0.00  0.00    +0.000 C 
ATOM     18  C   UNL     1       1.860   9.779  17.631  0.00  0.00    +0.000 C 
ATOM     19  O   UNL     1      -1.582  11.547  22.140  0.00  0.00    +0.000 OA
ATOM     20  C   UNL     1      -1.104  11.201  23.459  0.00  0.00    +0.000 C 
ATOM     21  O   UNL     1      -0.204  10.070  23.450  0.00  0.00    +0.000 OA
ENDROOT
BRANCH   1  23
ATOM     22  C   UNL     1       7.097   4.662  16.353  0.00  0.00    +0.000 C 
ATOM     23  O   UNL     1       6.180   3.920  17.154  0.00  0.00    +0.000 OA
ENDBRANCH   1  23
BRANCH  10  24
ATOM     24  O   UNL     1       5.188   2.956  19.480  0.00  0.00    +0.000 OA
ATOM     25  H   UNL     1       6.080   2.776  19.140  0.00  0.00    +0.000 HD
ENDBRANCH  10  24
TORSDOF 2
ENDMDL
MODEL 4
REMARK VINA RESULT:      -7.9      2.054      3.578
REMARK  Name = 
REMARK  3 active torsions:
REMARK  status: ('A' for Active; 'I' for Inactive)
REMARK    1  A    between atoms: C_1  and  O_2
REMARK    2  A    between atoms: O_2  and  C_3
REMARK    3  A    between atoms: C_12  and  O_13
REMARK                            x       y       z     vdW  Elec       q    Type
REMARK                         _______ _______ _______ _____ _____    ______ ____
ROOT
ATOM      1  C   UNL     1      -0.380  11.439  21.409  0.00  0.00    +0.000 A 
ATOM      2  C   UNL     1       0.258  11.126  20.208  0.00  0.00    +0.000 A 
ATOM      3  C   UNL     1       0.853   9.878  20.019  0.00  0.00    +0.000 A 
ATOM      4  C   UNL     1       1.498   9.557  18.823  0.00  0.00    +0.000 A 
ATOM      5  N   UNL     1       2.068   8.349  18.626  0.00  0.00    +0.000 N 
ATOM      6  C   UNL     1       1.990   7.374  19.577  0.00  0.00    +0.000 A 
ATOM      7  C   UNL     1       1.400   7.670  20.814  0.00  0.00    +0.000 A 
ATOM      8  C   UNL     1       0.822   8.919  21.048  0.00  0.00    +0.000 A 
ATOM      9  C   UNL     1       0.203   9.244  22.267  0.00  0.00    +0.000 A 
ATOM     10  C   UNL     1      -0.394  10.493  22.439  0.00  0.00    +0.000 A 
ATOM     11  C   UNL     1       2.545   6.059  19.212  0.00  0.00    +0.000 A 
ATOM     12  C   UNL     1       2.060   4.862  19.769  0.00  0.00    +0.000 A 
ATOM     13  C   UNL     1       2.598   3.666  19.340  0.00  0.00    +0.000 A 
ATOM     14  C   UNL     1       3.613   3.612  18.418  0.00  0.00    +0.000 A 
ATOM     15  C   UNL     1       4.135   4.752  17.852  0.00  0.00    +0.000 A 
ATOM     16  C   UNL     1       3.566   5.978  18.223  0.00  0.00    +0.000 A 
ATOM     17  C   UNL     1       3.995   7.254  17.551  0.00  0.00    +0.000 C 
ATOM     18  C   UNL     1       2.747   8.095  17.325  0.00  0.00    +0.000 C 
ATOM     19  O   UNL     1       3.983   2.338  18.128  0.00  0.00    +0.000 OA
ATOM     20  C   UNL     1       3.001   1.591  18.879  0.00  0.00    +0.000 C 
ATOM     21  O   UNL     1       2.193   2.430  19.736  0.00  0.00    +0.000 OA
ENDROOT
BRANCH   1  23
ATOM     22  C   UNL     1      -1.911  13.089  20.695  0.00  0.00    +0.000 C 
ATOM     23  O   UNL     1      -0.945  12.661  21.653  0.00  0.00    +0.000 OA
ENDBRANCH   1  23
BRANCH  10  24
ATOM     24  O   UNL     1      -1.009  10.803  23.619  0.00  0.00    +0.000 OA
ATOM     25  H   UNL     1      -0.705  11.663  23.952  0.00  0.00    +0.000 HD
ENDBRANCH  10  24
TORSDOF 2
ENDMDL
MODEL 5
REMARK VINA RESULT:      -7.7      1.603      7.637
REMARK  Name = 
REMARK  3 active torsions:
REMARK  status: ('A' for Active; 'I' for Inactive)
REMARK    1  A    between atoms: C_1  and  O_2
REMARK    2  A    between atoms: O_2  and  C_3
REMARK    3  A    between atoms: C_12  and  O_13
REMARK                            x       y       z     vdW  Elec       q    Type
REMARK                         _______ _______ _______ _____ _____    ______ ____
ROOT
ATOM      1  C   UNL     1       5.411   5.190  17.141  0.00  0.00    +0.000 A 
ATOM      2  C   UNL     1       4.645   5.259  18.305  0.00  0.00    +0.000 A 
ATOM      3  C   UNL     1       3.746   6.307  18.508  0.00  0.00    +0.000 A 
ATOM      4  C   UNL     1       2.979   6.388  19.673  0.00  0.00    +0.000 A 
ATOM      5  N   UNL     1       2.098   7.391  19.874  0.00  0.00    +0.000 N 
ATOM      6  C   UNL     1       1.889   8.342  18.919  0.00  0.00    +0.000 A 
ATOM      7  C   UNL     1       2.677   8.332  17.758  0.00  0.00    +0.000 A 
ATOM      8  C   UNL     1       3.607   7.315  17.537  0.00  0.00    +0.000 A 
ATOM      9  C   UNL     1       4.398   7.260  16.376  0.00  0.00    +0.000 A 
ATOM     10  C   UNL     1       5.287   6.202  16.184  0.00  0.00    +0.000 A 
ATOM     11  C   UNL     1       0.826   9.323  19.195  0.00  0.00    +0.000 A 
ATOM     12  C   UNL     1       0.104   9.954  18.164  0.00  0.00    +0.000 A 
ATOM     13  C   UNL     1      -0.912  10.824  18.504  0.00  0.00    +0.000 A 
ATOM     14  C   UNL     1      -1.212  11.120  19.810  0.00  0.00    +0.000 A 
ATOM     15  C   UNL     1      -0.530  10.544  20.856  0.00  0.00    +0.000 A 
ATOM     16  C   UNL     1       0.466   9.608  20.543  0.00  0.00    +0.000 A 
ATOM     17  C   UNL     1       1.165   8.842  21.632  0.00  0.00    +0.000 C 
ATOM     18  C   UNL     1       1.331   7.409  21.150  0.00  0.00    +0.000 C 
ATOM     19  O   UNL     1      -2.252  11.986  19.919  0.00  0.00    +0.000 OA
ATOM     20  C   UNL     1      -2.654  12.106  18.537  0.00  0.00    +0.000 C 
ATOM     21  O   UNL     1      -1.735  11.459  17.628  0.00  0.00    +0.000 OA
ENDROOT
BRANCH   1  23
ATOM     22  C   UNL     1       7.631   4.444  17.446  0.00  0.00    +0.000 C 
ATOM     23  O   UNL     1       6.330   4.202  16.914  0.00  0.00    +0.000 OA
ENDBRANCH   1  23
BRANCH  10  24
ATOM     24  O   UNL     1       6.045   6.141  15.048  0.00  0.00    +0.000 OA
ATOM     25  H   UNL     1       5.553   5.715  14.328  0.00  0.00    +0.000 HD
ENDBRANCH  10  24
TORSDOF 2
ENDMDL
MODEL 6
REMARK VINA RESULT:      -7.6      2.416      4.065
REMARK  Name = 
REMARK  3 active torsions:
REMARK  status: ('A' for Active; 'I' for Inactive)
REMARK    1  A    between atoms: C_1  and  O_2
REMARK    2  A    between atoms: O_2  and  C_3
REMARK    3  A    between atoms: C_12  and  O_13
REMARK                            x       y       z     vdW  Elec       q    Type
REMARK                         _______ _______ _______ _____ _____    ______ ____
ROOT
ATOM      1  C   UNL     1      -1.205  12.069  21.361  0.00  0.00    +0.000 A 
ATOM      2  C   UNL     1      -0.654  11.612  20.163  0.00  0.00    +0.000 A 
ATOM      3  C   UNL     1       0.107  10.443  20.126  0.00  0.00    +0.000 A 
ATOM      4  C   UNL     1       0.667   9.980  18.933  0.00  0.00    +0.000 A 
ATOM      5  N   UNL     1       1.395   8.844  18.885  0.00  0.00    +0.000 N 
ATOM      6  C   UNL     1       1.569   8.076  19.999  0.00  0.00    +0.000 A 
ATOM      7  C   UNL     1       1.071   8.530  21.228  0.00  0.00    +0.000 A 
ATOM      8  C   UNL     1       0.332   9.711  21.306  0.00  0.00    +0.000 A 
ATOM      9  C   UNL     1      -0.200  10.185  22.518  0.00  0.00    +0.000 A 
ATOM     10  C   UNL     1      -0.965  11.352  22.537  0.00  0.00    +0.000 A 
ATOM     11  C   UNL     1       2.283   6.802  19.808  0.00  0.00    +0.000 A 
ATOM     12  C   UNL     1       2.051   5.684  20.631  0.00  0.00    +0.000 A 
ATOM     13  C   UNL     1       2.723   4.510  20.357  0.00  0.00    +0.000 A 
ATOM     14  C   UNL     1       3.633   4.411  19.335  0.00  0.00    +0.000 A 
ATOM     15  C   UNL     1       3.909   5.475  18.509  0.00  0.00    +0.000 A 
ATOM     16  C   UNL     1       3.196   6.664  18.724  0.00  0.00    +0.000 A 
ATOM     17  C   UNL     1       3.348   7.826  17.782  0.00  0.00    +0.000 C 
ATOM     18  C   UNL     1       1.968   8.431  17.574  0.00  0.00    +0.000 C 
ATOM     19  O   UNL     1       4.165   3.166  19.235  0.00  0.00    +0.000 OA
ATOM     20  C   UNL     1       3.395   2.458  20.230  0.00  0.00    +0.000 C 
ATOM     21  O   UNL     1       2.559   3.333  21.020  0.00  0.00    +0.000 OA
ENDROOT
BRANCH   1  23
ATOM     22  C   UNL     1      -3.013  13.345  20.536  0.00  0.00    +0.000 C 
ATOM     23  O   UNL     1      -1.927  13.228  21.452  0.00  0.00    +0.000 OA
ENDBRANCH   1  23
BRANCH  10  24
ATOM     24  O   UNL     1      -1.496  11.805  23.713  0.00  0.00    +0.000 OA
ATOM     25  H   UNL     1      -2.053  11.125  24.124  0.00  0.00    +0.000 HD
ENDBRANCH  10  24
TORSDOF 2
ENDMDL
MODEL 7
REMARK VINA RESULT:      -7.5      1.365      1.862
REMARK  Name = 
REMARK  3 active torsions:
REMARK  status: ('A' for Active; 'I' for Inactive)
REMARK    1  A    between atoms: C_1  and  O_2
REMARK    2  A    between atoms: O_2  and  C_3
REMARK    3  A    between atoms: C_12  and  O_13
REMARK                            x       y       z     vdW  Elec       q    Type
REMARK                         _______ _______ _______ _____ _____    ______ ____
ROOT
ATOM      1  C   UNL     1      -0.648  12.051  20.526  0.00  0.00    +0.000 A 
ATOM      2  C   UNL     1      -0.239  10.839  21.083  0.00  0.00    +0.000 A 
ATOM      3  C   UNL     1       0.496   9.920  20.333  0.00  0.00    +0.000 A 
ATOM      4  C   UNL     1       0.905   8.701  20.880  0.00  0.00    +0.000 A 
ATOM      5  N   UNL     1       1.626   7.810  20.167  0.00  0.00    +0.000 N 
ATOM      6  C   UNL     1       2.026   8.091  18.893  0.00  0.00    +0.000 A 
ATOM      7  C   UNL     1       1.591   9.277  18.286  0.00  0.00    +0.000 A 
ATOM      8  C   UNL     1       0.829  10.206  18.997  0.00  0.00    +0.000 A 
ATOM      9  C   UNL     1       0.395  11.415  18.427  0.00  0.00    +0.000 A 
ATOM     10  C   UNL     1      -0.333  12.327  19.191  0.00  0.00    +0.000 A 
ATOM     11  C   UNL     1       2.903   7.098  18.250  0.00  0.00    +0.000 A 
ATOM     12  C   UNL     1       3.837   7.455  17.260  0.00  0.00    +0.000 A 
ATOM     13  C   UNL     1       4.658   6.475  16.740  0.00  0.00    +0.000 A 
ATOM     14  C   UNL     1       4.566   5.163  17.131  0.00  0.00    +0.000 A 
ATOM     15  C   UNL     1       3.662   4.756  18.084  0.00  0.00    +0.000 A 
ATOM     16  C   UNL     1       2.856   5.740  18.676  0.00  0.00    +0.000 A 
ATOM     17  C   UNL     1       1.938   5.392  19.815  0.00  0.00    +0.000 C 
ATOM     18  C   UNL     1       2.008   6.529  20.823  0.00  0.00    +0.000 C 
ATOM     19  O   UNL     1       5.474   4.371  16.506  0.00  0.00    +0.000 OA
ATOM     20  C   UNL     1       6.233   5.355  15.769  0.00  0.00    +0.000 C 
ATOM     21  O   UNL     1       5.646   6.674  15.828  0.00  0.00    +0.000 OA
ENDROOT
BRANCH   1  23
ATOM     22  C   UNL     1      -2.429  12.420  22.032  0.00  0.00    +0.000 C 
ATOM     23  O   UNL     1      -1.400  12.967  21.210  0.00  0.00    +0.000 OA
ENDBRANCH   1  23
BRANCH  10  24
ATOM     24  O   UNL     1      -0.742  13.510  18.642  0.00  0.00    +0.000 OA
ATOM     25  H   UNL     1      -0.703  14.226  19.296  0.00  0.00    +0.000 HD
ENDBRANCH  10  24
TORSDOF 2
ENDMDL
MODEL 8
REMARK VINA RESULT:      -7.4      2.618      4.279
REMARK  Name = 
REMARK  3 active torsions:
REMARK  status: ('A' for Active; 'I' for Inactive)
REMARK    1  A    between atoms: C_1  and  O_2
REMARK    2  A    between atoms: O_2  and  C_3
REMARK    3  A    between atoms: C_12  and  O_13
REMARK                            x       y       z     vdW  Elec       q    Type
REMARK                         _______ _______ _______ _____ _____    ______ ____
ROOT
ATOM      1  C   UNL     1      -0.436  12.502  20.013  0.00  0.00    +0.000 A 
ATOM      2  C   UNL     1       0.166  11.754  19.000  0.00  0.00    +0.000 A 
ATOM      3  C   UNL     1       0.724  10.503  19.271  0.00  0.00    +0.000 A 
ATOM      4  C   UNL     1       1.333   9.749  18.266  0.00  0.00    +0.000 A 
ATOM      5  N   UNL     1       1.867   8.534  18.515  0.00  0.00    +0.000 N 
ATOM      6  C   UNL     1       1.786   7.974  19.756  0.00  0.00    +0.000 A 
ATOM      7  C   UNL     1       1.233   8.719  20.808  0.00  0.00    +0.000 A 
ATOM      8  C   UNL     1       0.692   9.985  20.578  0.00  0.00    +0.000 A 
ATOM      9  C   UNL     1       0.110  10.750  21.604  0.00  0.00    +0.000 A 
ATOM     10  C   UNL     1      -0.450  11.995  21.316  0.00  0.00    +0.000 A 
ATOM     11  C   UNL     1       2.298   6.600  19.887  0.00  0.00    +0.000 A 
ATOM     12  C   UNL     1       1.796   5.703  20.848  0.00  0.00    +0.000 A 
ATOM     13  C   UNL     1       2.293   4.416  20.876  0.00  0.00    +0.000 A 
ATOM     14  C   UNL     1       3.285   3.998  20.024  0.00  0.00    +0.000 A 
ATOM     15  C   UNL     1       3.823   4.837  19.077  0.00  0.00    +0.000 A 
ATOM     16  C   UNL     1       3.294   6.132  18.983  0.00  0.00    +0.000 A 
ATOM     17  C   UNL     1       3.739   7.062  17.888  0.00  0.00    +0.000 C 
ATOM     18  C   UNL     1       2.509   7.804  17.387  0.00  0.00    +0.000 C 
ATOM     19  O   UNL     1       3.615   2.695  20.213  0.00  0.00    +0.000 OA
ATOM     20  C   UNL     1       2.631   2.303  21.196  0.00  0.00    +0.000 C 
ATOM     21  O   UNL     1       1.866   3.421  21.699  0.00  0.00    +0.000 OA
ENDROOT
BRANCH   1  23
ATOM     22  C   UNL     1      -0.261  14.558  18.864  0.00  0.00    +0.000 C 
ATOM     23  O   UNL     1      -0.964  13.747  19.803  0.00  0.00    +0.000 OA
ENDBRANCH   1  23
BRANCH  10  24
ATOM     24  O   UNL     1      -1.030  12.732  22.311  0.00  0.00    +0.000 OA
ATOM     25  H   UNL     1      -0.416  13.406  22.643  0.00  0.00    +0.000 HD
ENDBRANCH  10  24
TORSDOF 2
ENDMDL
MODEL 9
REMARK VINA RESULT:      -7.3      1.218      7.682
REMARK  Name = 
REMARK  3 active torsions:
REMARK  status: ('A' for Active; 'I' for Inactive)
REMARK    1  A    between atoms: C_1  and  O_2
REMARK    2  A    between atoms: O_2  and  C_3
REMARK    3  A    between atoms: C_12  and  O_13
REMARK                            x       y       z     vdW  Elec       q    Type
REMARK                         _______ _______ _______ _____ _____    ______ ____
ROOT
ATOM      1  C   UNL     1       5.953   4.020  14.789  0.00  0.00    +0.000 A 
ATOM      2  C   UNL     1       4.921   3.581  15.619  0.00  0.00    +0.000 A 
ATOM      3  C   UNL     1       4.335   4.443  16.548  0.00  0.00    +0.000 A 
ATOM      4  C   UNL     1       3.306   4.011  17.388  0.00  0.00    +0.000 A 
ATOM      5  N   UNL     1       2.725   4.839  18.282  0.00  0.00    +0.000 N 
ATOM      6  C   UNL     1       3.092   6.150  18.364  0.00  0.00    +0.000 A 
ATOM      7  C   UNL     1       4.159   6.613  17.580  0.00  0.00    +0.000 A 
ATOM      8  C   UNL     1       4.788   5.769  16.662  0.00  0.00    +0.000 A 
ATOM      9  C   UNL     1       5.845   6.205  15.845  0.00  0.00    +0.000 A 
ATOM     10  C   UNL     1       6.416   5.334  14.916  0.00  0.00    +0.000 A 
ATOM     11  C   UNL     1       2.316   6.989  19.293  0.00  0.00    +0.000 A 
ATOM     12  C   UNL     1       2.149   8.372  19.091  0.00  0.00    +0.000 A 
ATOM     13  C   UNL     1       1.366   9.081  19.979  0.00  0.00    +0.000 A 
ATOM     14  C   UNL     1       0.778   8.488  21.067  0.00  0.00    +0.000 A 
ATOM     15  C   UNL     1       0.920   7.144  21.321  0.00  0.00    +0.000 A 
ATOM     16  C   UNL     1       1.659   6.385  20.402  0.00  0.00    +0.000 A 
ATOM     17  C   UNL     1       1.748   4.891  20.542  0.00  0.00    +0.000 C 
ATOM     18  C   UNL     1       1.643   4.293  19.147  0.00  0.00    +0.000 C 
ATOM     19  O   UNL     1       0.042   9.363  21.799  0.00  0.00    +0.000 OA
ATOM     20  C   UNL     1       0.131  10.548  20.978  0.00  0.00    +0.000 C 
ATOM     21  O   UNL     1       1.062  10.403  19.882  0.00  0.00    +0.000 OA
ENDROOT
BRANCH   1  23
ATOM     22  C   UNL     1       6.037   3.213  12.572  0.00  0.00    +0.000 C 
ATOM     23  O   UNL     1       6.581   3.203  13.890  0.00  0.00    +0.000 OA
ENDBRANCH   1  23
BRANCH  10  24
ATOM     24  O   UNL     1       7.434   5.762  14.110  0.00  0.00    +0.000 OA
ATOM     25  H   UNL     1       8.285   5.407  14.412  0.00  0.00    +0.000 HD
ENDBRANCH  10  24
TORSDOF 2
ENDMDL
