MODEL 1
REMARK VINA RESULT:      -7.4      0.000      0.000
REMARK  Name = 
REMARK  8 active torsions:
REMARK  status: ('A' for Active; 'I' for Inactive)
REMARK    1  A    between atoms: C_1  and  C_2
REMARK    2  A    between atoms: C_2  and  C_3
REMARK    3  A    between atoms: C_2  and  C_4
REMARK    4  A    between atoms: C_6  and  C_7
REMARK    5  A    between atoms: C_7  and  C_8
REMARK    6  A    between atoms: C_7  and  C_9
REMARK    7  A    between atoms: C_14  and  C_15
REMARK    8  A    between atoms: C_15  and  O_17
REMARK                            x       y       z     vdW  Elec       q    Type
REMARK                         _______ _______ _______ _____ _____    ______ ____
ROOT
ATOM      1  C   UNL     1       1.475   7.370  20.315  0.00  0.00    +0.000 A 
ATOM      2  C   UNL     1       1.388   6.017  20.687  0.00  0.00    +0.000 A 
ATOM      3  C   UNL     1       2.071   4.999  19.993  0.00  0.00    +0.000 A 
ATOM      4  C   UNL     1       2.885   5.360  18.899  0.00  0.00    +0.000 A 
ATOM      5  N   UNL     1       3.589   4.358  18.203  0.00  0.00    +0.000 NA
ATOM      6  C   UNL     1       4.331   4.740  17.227  0.00  0.00    +0.000 A 
ATOM      7  S   UNL     1       5.282   3.638  16.247  0.00  0.00    +0.000 S 
ATOM      8  C   UNL     1       5.882   4.976  15.313  0.00  0.00    +0.000 A 
ATOM      9  C   UNL     1       5.383   6.148  15.723  0.00  0.00    +0.000 A 
ATOM     10  N   UNL     1       4.514   6.032  16.789  0.00  0.00    +0.000 N 
ATOM     11  C   UNL     1       3.866   7.090  17.396  0.00  0.00    +0.000 A 
ATOM     12  O   UNL     1       3.983   8.262  17.052  0.00  0.00    +0.000 OA
ATOM     13  C   UNL     1       2.987   6.718  18.536  0.00  0.00    +0.000 A 
ATOM     14  C   UNL     1       2.293   7.713  19.235  0.00  0.00    +0.000 A 
ENDROOT
BRANCH   1  16
ATOM     15  C   UNL     1       1.622   8.911  22.273  0.00  0.00    +0.000 C 
ATOM     16  C   UNL     1       0.726   8.402  21.141  0.00  0.00    +0.000 C 
ATOM     17  C   UNL     1       0.164   9.569  20.325  0.00  0.00    +0.000 C 
ENDBRANCH   1  16
BRANCH   3  18
ATOM     18  C   UNL     1       1.977   3.543  20.447  0.00  0.00    +0.000 C 
ATOM     19  C   UNL     1       2.139   3.447  21.967  0.00  0.00    +0.000 C 
ATOM     20  C   UNL     1       0.691   2.825  20.017  0.00  0.00    +0.000 C 
ENDBRANCH   3  18
BRANCH   8  21
ATOM     21  C   UNL     1       6.837   4.795  14.207  0.00  0.00    +0.000 C 
ATOM     22  O   UNL     1       7.786   5.536  14.010  0.00  0.00    +0.000 OA
BRANCH  21  23
ATOM     23  O   UNL     1       6.563   3.725  13.429  0.00  0.00    +0.000 OA
ATOM     24  H   UNL     1       7.213   3.000  13.541  0.00  0.00    +0.000 HD
ENDBRANCH  21  23
ENDBRANCH   8  21
TORSDOF 4
ENDMDL
MODEL 2
REMARK VINA RESULT:      -7.2      3.566      6.967
REMARK  Name = 
REMARK  8 active torsions:
REMARK  status: ('A' for Active; 'I' for Inactive)
REMARK    1  A    between atoms: C_1  and  C_2
REMARK    2  A    between atoms: C_2  and  C_3
REMARK    3  A    between atoms: C_2  and  C_4
REMARK    4  A    between atoms: C_6  and  C_7
REMARK    5  A    between atoms: C_7  and  C_8
REMARK    6  A    between atoms: C_7  and  C_9
REMARK    7  A    between atoms: C_14  and  C_15
REMARK    8  A    between atoms: C_15  and  O_17
REMARK                            x       y       z     vdW  Elec       q    Type
REMARK                         _______ _______ _______ _____ _____    ______ ____
ROOT
ATOM      1  C   UNL     1       3.807   5.617  17.554  0.00  0.00    +0.000 A 
ATOM      2  C   UNL     1       3.436   4.728  18.578  0.00  0.00    +0.000 A 
ATOM      3  C   UNL     1       2.659   5.131  19.681  0.00  0.00    +0.000 A 
ATOM      4  C   UNL     1       2.225   6.471  19.745  0.00  0.00    +0.000 A 
ATOM      5  N   UNL     1       1.434   6.888  20.833  0.00  0.00    +0.000 NA
ATOM      6  C   UNL     1       1.049   8.114  20.834  0.00  0.00    +0.000 A 
ATOM      7  S   UNL     1       0.058   8.813  22.103  0.00  0.00    +0.000 S 
ATOM      8  C   UNL     1       0.061  10.341  21.272  0.00  0.00    +0.000 A 
ATOM      9  C   UNL     1       0.767  10.301  20.136  0.00  0.00    +0.000 A 
ATOM     10  N   UNL     1       1.327   9.065  19.880  0.00  0.00    +0.000 N 
ATOM     11  C   UNL     1       2.099   8.764  18.776  0.00  0.00    +0.000 A 
ATOM     12  O   UNL     1       2.386   9.567  17.892  0.00  0.00    +0.000 OA
ATOM     13  C   UNL     1       2.581   7.359  18.710  0.00  0.00    +0.000 A 
ATOM     14  C   UNL     1       3.361   6.940  17.626  0.00  0.00    +0.000 A 
ENDROOT
BRANCH   1  16
ATOM     15  C   UNL     1       5.237   6.251  15.609  0.00  0.00    +0.000 C 
ATOM     16  C   UNL     1       4.622   5.085  16.387  0.00  0.00    +0.000 C 
ATOM     17  C   UNL     1       5.696   4.069  16.784  0.00  0.00    +0.000 C 
ENDBRANCH   1  16
BRANCH   3  18
ATOM     18  C   UNL     1       2.249   4.127  20.758  0.00  0.00    +0.000 C 
ATOM     19  C   UNL     1       0.856   3.566  20.461  0.00  0.00    +0.000 C 
ATOM     20  C   UNL     1       3.239   2.972  20.960  0.00  0.00    +0.000 C 
ENDBRANCH   3  18
BRANCH   8  21
ATOM     21  C   UNL     1      -0.653  11.518  21.793  0.00  0.00    +0.000 C 
ATOM     22  O   UNL     1      -1.184  12.353  21.079  0.00  0.00    +0.000 OA
BRANCH  21  23
ATOM     23  O   UNL     1      -0.667  11.586  23.142  0.00  0.00    +0.000 OA
ATOM     24  H   UNL     1      -1.025  10.775  23.558  0.00  0.00    +0.000 HD
ENDBRANCH  21  23
ENDBRANCH   8  21
TORSDOF 4
ENDMDL
MODEL 3
REMARK VINA RESULT:      -7.0      0.661      1.181
REMARK  Name = 
REMARK  8 active torsions:
REMARK  status: ('A' for Active; 'I' for Inactive)
REMARK    1  A    between atoms: C_1  and  C_2
REMARK    2  A    between atoms: C_2  and  C_3
REMARK    3  A    between atoms: C_2  and  C_4
REMARK    4  A    between atoms: C_6  and  C_7
REMARK    5  A    between atoms: C_7  and  C_8
REMARK    6  A    between atoms: C_7  and  C_9
REMARK    7  A    between atoms: C_14  and  C_15
REMARK    8  A    between atoms: C_15  and  O_17
REMARK                            x       y       z     vdW  Elec       q    Type
REMARK                         _______ _______ _______ _____ _____    ______ ____
ROOT
ATOM      1  C   UNL     1       1.266   7.822  20.531  0.00  0.00    +0.000 A 
ATOM      2  C   UNL     1       1.054   6.499  20.958  0.00  0.00    +0.000 A 
ATOM      3  C   UNL     1       1.666   5.397  20.332  0.00  0.00    +0.000 A 
ATOM      4  C   UNL     1       2.539   5.637  19.250  0.00  0.00    +0.000 A 
ATOM      5  N   UNL     1       3.173   4.548  18.621  0.00  0.00    +0.000 NA
ATOM      6  C   UNL     1       3.972   4.822  17.653  0.00  0.00    +0.000 A 
ATOM      7  S   UNL     1       4.852   3.599  16.752  0.00  0.00    +0.000 S 
ATOM      8  C   UNL     1       5.591   4.838  15.780  0.00  0.00    +0.000 A 
ATOM      9  C   UNL     1       5.182   6.065  16.123  0.00  0.00    +0.000 A 
ATOM     10  N   UNL     1       4.277   6.071  17.165  0.00  0.00    +0.000 N 
ATOM     11  C   UNL     1       3.706   7.207  17.705  0.00  0.00    +0.000 A 
ATOM     12  O   UNL     1       3.932   8.349  17.314  0.00  0.00    +0.000 OA
ATOM     13  C   UNL     1       2.767   6.963  18.831  0.00  0.00    +0.000 A 
ATOM     14  C   UNL     1       2.141   8.044  19.463  0.00  0.00    +0.000 A 
ENDROOT
BRANCH   1  16
ATOM     15  C   UNL     1       0.030   9.978  20.298  0.00  0.00    +0.000 C 
ATOM     16  C   UNL     1       0.586   8.950  21.287  0.00  0.00    +0.000 C 
ATOM     17  C   UNL     1      -0.504   8.485  22.258  0.00  0.00    +0.000 C 
ENDBRANCH   1  16
BRANCH   3  18
ATOM     18  C   UNL     1       1.436   3.977  20.846  0.00  0.00    +0.000 C 
ATOM     19  C   UNL     1       0.802   3.110  19.753  0.00  0.00    +0.000 C 
ATOM     20  C   UNL     1       2.693   3.285  21.389  0.00  0.00    +0.000 C 
ENDBRANCH   3  18
BRANCH   8  21
ATOM     21  C   UNL     1       6.557   4.526  14.715  0.00  0.00    +0.000 C 
ATOM     22  O   UNL     1       7.513   5.236  14.444  0.00  0.00    +0.000 OA
BRANCH  21  23
ATOM     23  O   UNL     1       6.287   3.374  14.062  0.00  0.00    +0.000 OA
ATOM     24  H   UNL     1       5.338   3.280  13.839  0.00  0.00    +0.000 HD
ENDBRANCH  21  23
ENDBRANCH   8  21
TORSDOF 4
ENDMDL
MODEL 4
REMARK VINA RESULT:      -6.8      2.942      6.566
REMARK  Name = 
REMARK  8 active torsions:
REMARK  status: ('A' for Active; 'I' for Inactive)
REMARK    1  A    between atoms: C_1  and  C_2
REMARK    2  A    between atoms: C_2  and  C_3
REMARK    3  A    between atoms: C_2  and  C_4
REMARK    4  A    between atoms: C_6  and  C_7
REMARK    5  A    between atoms: C_7  and  C_8
REMARK    6  A    between atoms: C_7  and  C_9
REMARK    7  A    between atoms: C_14  and  C_15
REMARK    8  A    between atoms: C_15  and  O_17
REMARK                            x       y       z     vdW  Elec       q    Type
REMARK                         _______ _______ _______ _____ _____    ______ ____
ROOT
ATOM      1  C   UNL     1       4.865   4.603  16.946  0.00  0.00    +0.000 A 
ATOM      2  C   UNL     1       4.510   3.756  18.010  0.00  0.00    +0.000 A 
ATOM      3  C   UNL     1       3.690   4.183  19.072  0.00  0.00    +0.000 A 
ATOM      4  C   UNL     1       3.194   5.504  19.050  0.00  0.00    +0.000 A 
ATOM      5  N   UNL     1       2.359   5.944  20.095  0.00  0.00    +0.000 NA
ATOM      6  C   UNL     1       1.919   7.148  20.019  0.00  0.00    +0.000 A 
ATOM      7  S   UNL     1       0.867   7.871  21.224  0.00  0.00    +0.000 S 
ATOM      8  C   UNL     1       0.822   9.348  20.308  0.00  0.00    +0.000 A 
ATOM      9  C   UNL     1       1.556   9.278  19.192  0.00  0.00    +0.000 A 
ATOM     10  N   UNL     1       2.177   8.057  19.019  0.00  0.00    +0.000 N 
ATOM     11  C   UNL     1       2.988   7.731  17.950  0.00  0.00    +0.000 A 
ATOM     12  O   UNL     1       3.260   8.495  17.029  0.00  0.00    +0.000 OA
ATOM     13  C   UNL     1       3.535   6.349  17.975  0.00  0.00    +0.000 A 
ATOM     14  C   UNL     1       4.359   5.906  16.934  0.00  0.00    +0.000 A 
ENDROOT
BRANCH   1  16
ATOM     15  C   UNL     1       5.185   4.498  14.472  0.00  0.00    +0.000 C 
ATOM     16  C   UNL     1       5.731   4.045  15.828  0.00  0.00    +0.000 C 
ATOM     17  C   UNL     1       7.218   4.388  15.958  0.00  0.00    +0.000 C 
ENDBRANCH   1  16
BRANCH   3  18
ATOM     18  C   UNL     1       3.299   3.223  20.195  0.00  0.00    +0.000 C 
ATOM     19  C   UNL     1       1.988   2.509  19.854  0.00  0.00    +0.000 C 
ATOM     20  C   UNL     1       4.375   2.188  20.549  0.00  0.00    +0.000 C 
ENDBRANCH   3  18
BRANCH   8  21
ATOM     21  C   UNL     1       0.043  10.518  20.746  0.00  0.00    +0.000 C 
ATOM     22  O   UNL     1      -1.020  10.845  20.244  0.00  0.00    +0.000 OA
BRANCH  21  23
ATOM     23  O   UNL     1       0.619  11.199  21.762  0.00  0.00    +0.000 OA
ATOM     24  H   UNL     1       0.514  10.749  22.625  0.00  0.00    +0.000 HD
ENDBRANCH  21  23
ENDBRANCH   8  21
TORSDOF 4
ENDMDL
MODEL 5
REMARK VINA RESULT:      -6.8      3.548      6.911
REMARK  Name = 
REMARK  8 active torsions:
REMARK  status: ('A' for Active; 'I' for Inactive)
REMARK    1  A    between atoms: C_1  and  C_2
REMARK    2  A    between atoms: C_2  and  C_3
REMARK    3  A    between atoms: C_2  and  C_4
REMARK    4  A    between atoms: C_6  and  C_7
REMARK    5  A    between atoms: C_7  and  C_8
REMARK    6  A    between atoms: C_7  and  C_9
REMARK    7  A    between atoms: C_14  and  C_15
REMARK    8  A    between atoms: C_15  and  O_17
REMARK                            x       y       z     vdW  Elec       q    Type
REMARK                         _______ _______ _______ _____ _____    ______ ____
ROOT
ATOM      1  C   UNL     1       4.073   5.631  17.815  0.00  0.00    +0.000 A 
ATOM      2  C   UNL     1       3.615   4.750  18.811  0.00  0.00    +0.000 A 
ATOM      3  C   UNL     1       2.713   5.151  19.815  0.00  0.00    +0.000 A 
ATOM      4  C   UNL     1       2.241   6.480  19.804  0.00  0.00    +0.000 A 
ATOM      5  N   UNL     1       1.327   6.895  20.791  0.00  0.00    +0.000 NA
ATOM      6  C   UNL     1       0.913   8.109  20.726  0.00  0.00    +0.000 A 
ATOM      7  S   UNL     1      -0.227   8.804  21.866  0.00  0.00    +0.000 S 
ATOM      8  C   UNL     1      -0.172  10.316  21.010  0.00  0.00    +0.000 A 
ATOM      9  C   UNL     1       0.655  10.276  19.958  0.00  0.00    +0.000 A 
ATOM     10  N   UNL     1       1.269   9.051  19.789  0.00  0.00    +0.000 N 
ATOM     11  C   UNL     1       2.164   8.752  18.781  0.00  0.00    +0.000 A 
ATOM     12  O   UNL     1       2.526   9.546  17.918  0.00  0.00    +0.000 OA
ATOM     13  C   UNL     1       2.686   7.360  18.797  0.00  0.00    +0.000 A 
ATOM     14  C   UNL     1       3.589   6.942  17.812  0.00  0.00    +0.000 A 
ENDROOT
BRANCH   1  16
ATOM     15  C   UNL     1       4.536   3.738  16.255  0.00  0.00    +0.000 C 
ATOM     16  C   UNL     1       5.023   5.101  16.754  0.00  0.00    +0.000 C 
ATOM     17  C   UNL     1       5.250   6.060  15.582  0.00  0.00    +0.000 C 
ENDBRANCH   1  16
BRANCH   3  18
ATOM     18  C   UNL     1       2.213   4.156  20.861  0.00  0.00    +0.000 C 
ATOM     19  C   UNL     1       0.842   3.604  20.461  0.00  0.00    +0.000 C 
ATOM     20  C   UNL     1       3.176   2.994  21.143  0.00  0.00    +0.000 C 
ENDBRANCH   3  18
BRANCH   8  21
ATOM     21  C   UNL     1      -0.967  11.483  21.426  0.00  0.00    +0.000 C 
ATOM     22  O   UNL     1      -0.887  11.992  22.532  0.00  0.00    +0.000 OA
BRANCH  21  23
ATOM     23  O   UNL     1      -1.797  11.940  20.462  0.00  0.00    +0.000 OA
ATOM     24  H   UNL     1      -1.470  11.749  19.559  0.00  0.00    +0.000 HD
ENDBRANCH  21  23
ENDBRANCH   8  21
TORSDOF 4
ENDMDL
MODEL 6
REMARK VINA RESULT:      -6.7      3.906      6.750
REMARK  Name = 
REMARK  8 active torsions:
REMARK  status: ('A' for Active; 'I' for Inactive)
REMARK    1  A    between atoms: C_1  and  C_2
REMARK    2  A    between atoms: C_2  and  C_3
REMARK    3  A    between atoms: C_2  and  C_4
REMARK    4  A    between atoms: C_6  and  C_7
REMARK    5  A    between atoms: C_7  and  C_8
REMARK    6  A    between atoms: C_7  and  C_9
REMARK    7  A    between atoms: C_14  and  C_15
REMARK    8  A    between atoms: C_15  and  O_17
REMARK                            x       y       z     vdW  Elec       q    Type
REMARK                         _______ _______ _______ _____ _____    ______ ____
ROOT
ATOM      1  C   UNL     1       3.434   4.268  19.597  0.00  0.00    +0.000 A 
ATOM      2  C   UNL     1       4.146   4.611  18.434  0.00  0.00    +0.000 A 
ATOM      3  C   UNL     1       4.022   5.871  17.817  0.00  0.00    +0.000 A 
ATOM      4  C   UNL     1       3.164   6.825  18.404  0.00  0.00    +0.000 A 
ATOM      5  N   UNL     1       3.039   8.096  17.810  0.00  0.00    +0.000 NA
ATOM      6  C   UNL     1       2.261   8.935  18.393  0.00  0.00    +0.000 A 
ATOM      7  S   UNL     1       1.981  10.564  17.804  0.00  0.00    +0.000 S 
ATOM      8  C   UNL     1       0.915  10.873  19.143  0.00  0.00    +0.000 A 
ATOM      9  C   UNL     1       0.792   9.813  19.950  0.00  0.00    +0.000 A 
ATOM     10  N   UNL     1       1.535   8.723  19.543  0.00  0.00    +0.000 N 
ATOM     11  C   UNL     1       1.580   7.510  20.202  0.00  0.00    +0.000 A 
ATOM     12  O   UNL     1       0.955   7.256  21.227  0.00  0.00    +0.000 OA
ATOM     13  C   UNL     1       2.463   6.489  19.579  0.00  0.00    +0.000 A 
ATOM     14  C   UNL     1       2.595   5.227  20.171  0.00  0.00    +0.000 A 
ENDROOT
BRANCH   1  16
ATOM     15  C   UNL     1       2.597   2.627  21.281  0.00  0.00    +0.000 C 
ATOM     16  C   UNL     1       3.655   2.895  20.208  0.00  0.00    +0.000 C 
ATOM     17  C   UNL     1       3.696   1.754  19.188  0.00  0.00    +0.000 C 
ENDBRANCH   1  16
BRANCH   3  18
ATOM     18  C   UNL     1       4.837   6.217  16.572  0.00  0.00    +0.000 C 
ATOM     19  C   UNL     1       6.154   6.892  16.968  0.00  0.00    +0.000 C 
ATOM     20  C   UNL     1       5.124   5.026  15.649  0.00  0.00    +0.000 C 
ENDBRANCH   3  18
BRANCH   8  21
ATOM     21  C   UNL     1       0.250  12.172  19.332  0.00  0.00    +0.000 C 
ATOM     22  O   UNL     1      -0.245  12.527  20.390  0.00  0.00    +0.000 OA
BRANCH  21  23
ATOM     23  O   UNL     1       0.240  12.939  18.220  0.00  0.00    +0.000 OA
ATOM     24  H   UNL     1      -0.136  13.830  18.378  0.00  0.00    +0.000 HD
ENDBRANCH  21  23
ENDBRANCH   8  21
TORSDOF 4
ENDMDL
MODEL 7
REMARK VINA RESULT:      -6.6      3.051      4.807
REMARK  Name = 
REMARK  8 active torsions:
REMARK  status: ('A' for Active; 'I' for Inactive)
REMARK    1  A    between atoms: C_1  and  C_2
REMARK    2  A    between atoms: C_2  and  C_3
REMARK    3  A    between atoms: C_2  and  C_4
REMARK    4  A    between atoms: C_6  and  C_7
REMARK    5  A    between atoms: C_7  and  C_8
REMARK    6  A    between atoms: C_7  and  C_9
REMARK    7  A    between atoms: C_14  and  C_15
REMARK    8  A    between atoms: C_15  and  O_17
REMARK                            x       y       z     vdW  Elec       q    Type
REMARK                         _______ _______ _______ _____ _____    ______ ____
ROOT
ATOM      1  C   UNL     1       0.833  11.220  19.148  0.00  0.00    +0.000 A 
ATOM      2  C   UNL     1       0.414  10.876  20.446  0.00  0.00    +0.000 A 
ATOM      3  C   UNL     1       0.620   9.593  20.990  0.00  0.00    +0.000 A 
ATOM      4  C   UNL     1       1.290   8.630  20.206  0.00  0.00    +0.000 A 
ATOM      5  N   UNL     1       1.520   7.347  20.739  0.00  0.00    +0.000 NA
ATOM      6  C   UNL     1       2.150   6.513  19.993  0.00  0.00    +0.000 A 
ATOM      7  S   UNL     1       2.530   4.872  20.486  0.00  0.00    +0.000 S 
ATOM      8  C   UNL     1       3.322   4.591  18.964  0.00  0.00    +0.000 A 
ATOM      9  C   UNL     1       3.282   5.663  18.164  0.00  0.00    +0.000 A 
ATOM     10  N   UNL     1       2.629   6.742  18.724  0.00  0.00    +0.000 N 
ATOM     11  C   UNL     1       2.452   7.963  18.104  0.00  0.00    +0.000 A 
ATOM     12  O   UNL     1       2.851   8.231  16.974  0.00  0.00    +0.000 OA
ATOM     13  C   UNL     1       1.727   8.979  18.913  0.00  0.00    +0.000 A 
ATOM     14  C   UNL     1       1.504  10.257  18.388  0.00  0.00    +0.000 A 
ENDROOT
BRANCH   1  16
ATOM     15  C   UNL     1      -0.859  12.791  18.201  0.00  0.00    +0.000 C 
ATOM     16  C   UNL     1       0.594  12.638  18.657  0.00  0.00    +0.000 C 
ATOM     17  C   UNL     1       0.963  13.723  19.672  0.00  0.00    +0.000 C 
ENDBRANCH   1  16
BRANCH   3  18
ATOM     18  C   UNL     1       0.178   9.267  22.415  0.00  0.00    +0.000 C 
ATOM     19  C   UNL     1       1.386   9.246  23.356  0.00  0.00    +0.000 C 
ATOM     20  C   UNL     1      -0.899  10.205  22.977  0.00  0.00    +0.000 C 
ENDBRANCH   3  18
BRANCH   8  21
ATOM     21  C   UNL     1       3.959   3.305  18.637  0.00  0.00    +0.000 C 
ATOM     22  O   UNL     1       3.411   2.427  17.991  0.00  0.00    +0.000 OA
BRANCH  21  23
ATOM     23  O   UNL     1       5.216   3.188  19.120  0.00  0.00    +0.000 OA
ATOM     24  H   UNL     1       5.496   2.255  19.223  0.00  0.00    +0.000 HD
ENDBRANCH  21  23
ENDBRANCH   8  21
TORSDOF 4
ENDMDL
MODEL 8
REMARK VINA RESULT:      -6.4      3.083      6.696
REMARK  Name = 
REMARK  8 active torsions:
REMARK  status: ('A' for Active; 'I' for Inactive)
REMARK    1  A    between atoms: C_1  and  C_2
REMARK    2  A    between atoms: C_2  and  C_3
REMARK    3  A    between atoms: C_2  and  C_4
REMARK    4  A    between atoms: C_6  and  C_7
REMARK    5  A    between atoms: C_7  and  C_8
REMARK    6  A    between atoms: C_7  and  C_9
REMARK    7  A    between atoms: C_14  and  C_15
REMARK    8  A    between atoms: C_15  and  O_17
REMARK                            x       y       z     vdW  Elec       q    Type
REMARK                         _______ _______ _______ _____ _____    ______ ____
ROOT
ATOM      1  C   UNL     1       4.910   5.376  16.340  0.00  0.00    +0.000 A 
ATOM      2  C   UNL     1       4.604   4.280  17.167  0.00  0.00    +0.000 A 
ATOM      3  C   UNL     1       3.776   4.398  18.300  0.00  0.00    +0.000 A 
ATOM      4  C   UNL     1       3.220   5.660  18.598  0.00  0.00    +0.000 A 
ATOM      5  N   UNL     1       2.376   5.793  19.717  0.00  0.00    +0.000 NA
ATOM      6  C   UNL     1       1.880   6.958  19.935  0.00  0.00    +0.000 A 
ATOM      7  S   UNL     1       0.808   7.316  21.278  0.00  0.00    +0.000 S 
ATOM      8  C   UNL     1       0.685   8.968  20.748  0.00  0.00    +0.000 A 
ATOM      9  C   UNL     1       1.411   9.205  19.649  0.00  0.00    +0.000 A 
ATOM     10  N   UNL     1       2.085   8.093  19.186  0.00  0.00    +0.000 N 
ATOM     11  C   UNL     1       2.900   8.075  18.071  0.00  0.00    +0.000 A 
ATOM     12  O   UNL     1       3.127   9.052  17.363  0.00  0.00    +0.000 OA
ATOM     13  C   UNL     1       3.510   6.755  17.760  0.00  0.00    +0.000 A 
ATOM     14  C   UNL     1       4.343   6.617  16.644  0.00  0.00    +0.000 A 
ENDROOT
BRANCH   1  16
ATOM     15  C   UNL     1       7.222   4.845  15.565  0.00  0.00    +0.000 C 
ATOM     16  C   UNL     1       5.789   5.147  15.122  0.00  0.00    +0.000 C 
ATOM     17  C   UNL     1       5.272   4.063  14.172  0.00  0.00    +0.000 C 
ENDBRANCH   1  16
BRANCH   3  18
ATOM     18  C   UNL     1       3.442   3.177  19.155  0.00  0.00    +0.000 C 
ATOM     19  C   UNL     1       2.816   2.077  18.293  0.00  0.00    +0.000 C 
ATOM     20  C   UNL     1       4.631   2.606  19.940  0.00  0.00    +0.000 C 
ENDBRANCH   3  18
BRANCH   8  21
ATOM     21  C   UNL     1      -0.142   9.959  21.455  0.00  0.00    +0.000 C 
ATOM     22  O   UNL     1      -0.306  11.102  21.062  0.00  0.00    +0.000 OA
BRANCH  21  23
ATOM     23  O   UNL     1      -0.708   9.480  22.585  0.00  0.00    +0.000 OA
ATOM     24  H   UNL     1      -0.768   8.502  22.593  0.00  0.00    +0.000 HD
ENDBRANCH  21  23
ENDBRANCH   8  21
TORSDOF 4
ENDMDL
MODEL 9
REMARK VINA RESULT:      -6.3      3.106      4.868
REMARK  Name = 
REMARK  8 active torsions:
REMARK  status: ('A' for Active; 'I' for Inactive)
REMARK    1  A    between atoms: C_1  and  C_2
REMARK    2  A    between atoms: C_2  and  C_3
REMARK    3  A    between atoms: C_2  and  C_4
REMARK    4  A    between atoms: C_6  and  C_7
REMARK    5  A    between atoms: C_7  and  C_8
REMARK    6  A    between atoms: C_7  and  C_9
REMARK    7  A    between atoms: C_14  and  C_15
REMARK    8  A    between atoms: C_15  and  O_17
REMARK                            x       y       z     vdW  Elec       q    Type
REMARK                         _______ _______ _______ _____ _____    ______ ____
ROOT
ATOM      1  C   UNL     1       1.370  10.771  18.772  0.00  0.00    +0.000 A 
ATOM      2  C   UNL     1       0.783  10.600  20.038  0.00  0.00    +0.000 A 
ATOM      3  C   UNL     1       0.816   9.370  20.724  0.00  0.00    +0.000 A 
ATOM      4  C   UNL     1       1.481   8.282  20.123  0.00  0.00    +0.000 A 
ATOM      5  N   UNL     1       1.539   7.049  20.801  0.00  0.00    +0.000 NA
ATOM      6  C   UNL     1       2.172   6.095  20.220  0.00  0.00    +0.000 A 
ATOM      7  S   UNL     1       2.351   4.492  20.911  0.00  0.00    +0.000 S 
ATOM      8  C   UNL     1       3.278   3.991  19.527  0.00  0.00    +0.000 A 
ATOM      9  C   UNL     1       3.419   4.972  18.628  0.00  0.00    +0.000 A 
ATOM     10  N   UNL     1       2.805   6.151  18.999  0.00  0.00    +0.000 N 
ATOM     11  C   UNL     1       2.804   7.309  18.248  0.00  0.00    +0.000 A 
ATOM     12  O   UNL     1       3.346   7.424  17.152  0.00  0.00    +0.000 OA
ATOM     13  C   UNL     1       2.086   8.457  18.862  0.00  0.00    +0.000 A 
ATOM     14  C   UNL     1       2.034   9.685  18.193  0.00  0.00    +0.000 A 
ENDROOT
BRANCH   1  16
ATOM     15  C   UNL     1       0.104  12.918  18.653  0.00  0.00    +0.000 C 
ATOM     16  C   UNL     1       1.310  12.142  18.120  0.00  0.00    +0.000 C 
ATOM     17  C   UNL     1       2.594  12.963  18.270  0.00  0.00    +0.000 C 
ENDBRANCH   1  16
BRANCH   3  18
ATOM     18  C   UNL     1       0.194   9.232  22.113  0.00  0.00    +0.000 C 
ATOM     19  C   UNL     1       1.286   9.201  23.186  0.00  0.00    +0.000 C 
ATOM     20  C   UNL     1      -0.839  10.314  22.457  0.00  0.00    +0.000 C 
ENDBRANCH   3  18
BRANCH   8  21
ATOM     21  C   UNL     1       3.833   2.634  19.404  0.00  0.00    +0.000 C 
ATOM     22  O   UNL     1       4.717   2.200  20.124  0.00  0.00    +0.000 OA
BRANCH  21  23
ATOM     23  O   UNL     1       3.266   1.908  18.415  0.00  0.00    +0.000 OA
ATOM     24  H   UNL     1       3.858   1.793  17.643  0.00  0.00    +0.000 HD
ENDBRANCH  21  23
ENDBRANCH   8  21
TORSDOF 4
ENDMDL
