MODEL 1
REMARK VINA RESULT:      -7.1      0.000      0.000
REMARK  Name = 
REMARK  15 active torsions:
REMARK  status: ('A' for Active; 'I' for Inactive)
REMARK    1  A    between atoms: C_1  and  O_2
REMARK    2  A    between atoms: O_2  and  C_3
REMARK    3  A    between atoms: C_5  and  C_6
REMARK    4  A    between atoms: C_6  and  N_7
REMARK    5  A    between atoms: C_8  and  C_9
REMARK    6  A    between atoms: C_11  and  O_12
REMARK    7  A    between atoms: O_12  and  C_13
REMARK    8  A    between atoms: C_15  and  C_16
REMARK    9  A    between atoms: C_16  and  O_17
REMARK   10  A    between atoms: C_18  and  O_19
REMARK   11  A    between atoms: C_20  and  O_21
REMARK   12  A    between atoms: C_22  and  O_23
REMARK   13  A    between atoms: C_24  and  O_25
REMARK   14  A    between atoms: C_26  and  N_27
REMARK   15  A    between atoms: C_28  and  C_29
REMARK                            x       y       z     vdW  Elec       q    Type
REMARK                         _______ _______ _______ _____ _____    ______ ____
ROOT
ATOM      1  C   UNL     1       0.434   8.974  20.690  0.00  0.00    +0.000 C 
ATOM      2  O   UNL     1       1.656   8.387  21.147  0.00  0.00    +0.000 OA
ATOM      3  C   UNL     1       2.181   7.365  20.288  0.00  0.00    +0.000 C 
ATOM      4  C   UNL     1       2.464   7.938  18.881  0.00  0.00    +0.000 C 
ATOM      5  C   UNL     1       1.248   8.722  18.332  0.00  0.00    +0.000 C 
ATOM      6  C   UNL     1       0.677   9.726  19.363  0.00  0.00    +0.000 C 
ENDROOT
BRANCH   6   7
ATOM      7  N   UNL     1       1.578  10.890  19.533  0.00  0.00    +0.000 N 
ATOM      8  C   UNL     1       1.163  12.172  19.232  0.00  0.00    +0.000 C 
ATOM      9  C   UNL     1       2.156  13.253  19.572  0.00  0.00    +0.000 C 
ATOM     10  O   UNL     1       0.103  12.425  18.671  0.00  0.00    +0.000 OA
ATOM     11  H   UNL     1       2.314  10.794  20.224  0.00  0.00    +0.000 HD
ENDBRANCH   6   7
BRANCH   1  13
ATOM     12  C   UNL     1       0.318   9.455  22.992  0.00  0.00    +0.000 C 
ATOM     13  O   UNL     1      -0.080   9.858  21.684  0.00  0.00    +0.000 OA
ENDBRANCH   1  13
BRANCH   5  14
ATOM     14  O   UNL     1       1.618   9.403  17.122  0.00  0.00    +0.000 OA
ATOM     15  H   UNL     1       1.893  10.309  17.372  0.00  0.00    +0.000 HD
ENDBRANCH   5  14
BRANCH   3  16
ATOM     16  C   UNL     1       1.312   6.086  20.319  0.00  0.00    +0.000 C 
BRANCH  16  17
ATOM     17  N   UNL     1       1.861   5.079  21.224  0.00  0.00    +0.000 N 
ATOM     18  C   UNL     1       1.778   3.721  21.198  0.00  0.00    +0.000 C 
ATOM     19  C   UNL     1       0.962   3.026  20.144  0.00  0.00    +0.000 C 
ATOM     20  O   UNL     1       2.381   3.074  22.056  0.00  0.00    +0.000 OA
ATOM     21  H   UNL     1       2.497   5.397  21.950  0.00  0.00    +0.000 HD
ENDBRANCH  16  17
ENDBRANCH   3  16
BRANCH   4  22
ATOM     22  O   UNL     1       2.872   6.930  17.932  0.00  0.00    +0.000 OA
BRANCH  22  23
ATOM     23  C   UNL     1       4.211   6.441  18.130  0.00  0.00    +0.000 C 
ATOM     24  O   UNL     1       4.943   6.513  16.907  0.00  0.00    +0.000 OA
ATOM     25  C   UNL     1       6.290   6.002  16.951  0.00  0.00    +0.000 C 
ATOM     26  C   UNL     1       6.326   4.547  17.435  0.00  0.00    +0.000 C 
ATOM     27  C   UNL     1       5.555   4.404  18.759  0.00  0.00    +0.000 C 
ATOM     28  C   UNL     1       4.136   4.979  18.633  0.00  0.00    +0.000 C 
BRANCH  26  29
ATOM     29  O   UNL     1       5.744   3.699  16.430  0.00  0.00    +0.000 OA
ATOM     30  H   UNL     1       6.131   2.805  16.543  0.00  0.00    +0.000 HD
ENDBRANCH  26  29
BRANCH  27  31
ATOM     31  O   UNL     1       5.512   3.031  19.152  0.00  0.00    +0.000 OA
ATOM     32  H   UNL     1       5.077   2.561  18.411  0.00  0.00    +0.000 HD
ENDBRANCH  27  31
BRANCH  28  33
ATOM     33  O   UNL     1       3.392   4.181  17.685  0.00  0.00    +0.000 OA
ATOM     34  H   UNL     1       3.899   4.225  16.847  0.00  0.00    +0.000 HD
ENDBRANCH  28  33
BRANCH  25  35
ATOM     35  C   UNL     1       7.184   6.928  17.788  0.00  0.00    +0.000 C 
BRANCH  35  36
ATOM     36  O   UNL     1       7.710   7.977  16.980  0.00  0.00    +0.000 OA
ATOM     37  H   UNL     1       7.310   7.898  16.095  0.00  0.00    +0.000 HD
ENDBRANCH  35  36
ENDBRANCH  25  35
ENDBRANCH  22  23
ENDBRANCH   4  22
TORSDOF 12
ENDMDL
MODEL 2
REMARK VINA RESULT:      -6.5      3.424      7.566
REMARK  Name = 
REMARK  15 active torsions:
REMARK  status: ('A' for Active; 'I' for Inactive)
REMARK    1  A    between atoms: C_1  and  O_2
REMARK    2  A    between atoms: O_2  and  C_3
REMARK    3  A    between atoms: C_5  and  C_6
REMARK    4  A    between atoms: C_6  and  N_7
REMARK    5  A    between atoms: C_8  and  C_9
REMARK    6  A    between atoms: C_11  and  O_12
REMARK    7  A    between atoms: O_12  and  C_13
REMARK    8  A    between atoms: C_15  and  C_16
REMARK    9  A    between atoms: C_16  and  O_17
REMARK   10  A    between atoms: C_18  and  O_19
REMARK   11  A    between atoms: C_20  and  O_21
REMARK   12  A    between atoms: C_22  and  O_23
REMARK   13  A    between atoms: C_24  and  O_25
REMARK   14  A    between atoms: C_26  and  N_27
REMARK   15  A    between atoms: C_28  and  C_29
REMARK                            x       y       z     vdW  Elec       q    Type
REMARK                         _______ _______ _______ _____ _____    ______ ____
ROOT
ATOM      1  C   UNL     1       7.436   5.138  14.970  0.00  0.00    +0.000 C 
ATOM      2  O   UNL     1       6.107   5.418  14.518  0.00  0.00    +0.000 OA
ATOM      3  C   UNL     1       5.097   4.573  15.088  0.00  0.00    +0.000 C 
ATOM      4  C   UNL     1       5.081   4.716  16.626  0.00  0.00    +0.000 C 
ATOM      5  C   UNL     1       6.501   4.569  17.225  0.00  0.00    +0.000 C 
ATOM      6  C   UNL     1       7.549   5.432  16.482  0.00  0.00    +0.000 C 
ENDROOT
BRANCH   6   7
ATOM      7  N   UNL     1       7.373   6.871  16.789  0.00  0.00    +0.000 N 
ATOM      8  C   UNL     1       7.932   7.439  17.917  0.00  0.00    +0.000 C 
ATOM      9  C   UNL     1       7.760   8.933  18.021  0.00  0.00    +0.000 C 
ATOM     10  O   UNL     1       8.470   6.790  18.806  0.00  0.00    +0.000 OA
ATOM     11  H   UNL     1       7.203   7.484  16.000  0.00  0.00    +0.000 HD
ENDBRANCH   6   7
BRANCH   1  13
ATOM     12  C   UNL     1       8.263   5.677  12.833  0.00  0.00    +0.000 C 
ATOM     13  O   UNL     1       8.372   5.922  14.232  0.00  0.00    +0.000 OA
ENDBRANCH   1  13
BRANCH   5  14
ATOM     14  O   UNL     1       6.473   4.906  18.621  0.00  0.00    +0.000 OA
ATOM     15  H   UNL     1       5.560   4.750  18.939  0.00  0.00    +0.000 HD
ENDBRANCH   5  14
BRANCH   3  16
ATOM     16  C   UNL     1       5.196   3.122  14.559  0.00  0.00    +0.000 C 
BRANCH  16  17
ATOM     17  N   UNL     1       6.112   3.019  13.426  0.00  0.00    +0.000 N 
ATOM     18  C   UNL     1       5.877   3.055  12.086  0.00  0.00    +0.000 C 
ATOM     19  C   UNL     1       4.471   3.154  11.561  0.00  0.00    +0.000 C 
ATOM     20  O   UNL     1       6.836   3.000  11.314  0.00  0.00    +0.000 OA
ATOM     21  H   UNL     1       7.109   3.016  13.627  0.00  0.00    +0.000 HD
ENDBRANCH  16  17
ENDBRANCH   3  16
BRANCH   4  22
ATOM     22  O   UNL     1       4.175   3.795  17.270  0.00  0.00    +0.000 OA
BRANCH  22  23
ATOM     23  C   UNL     1       3.187   4.427  18.104  0.00  0.00    +0.000 C 
ATOM     24  O   UNL     1       3.813   5.003  19.251  0.00  0.00    +0.000 OA
ATOM     25  C   UNL     1       2.927   5.624  20.202  0.00  0.00    +0.000 C 
ATOM     26  C   UNL     1       1.854   4.646  20.696  0.00  0.00    +0.000 C 
ATOM     27  C   UNL     1       1.136   3.993  19.502  0.00  0.00    +0.000 C 
ATOM     28  C   UNL     1       2.146   3.363  18.531  0.00  0.00    +0.000 C 
BRANCH  26  29
ATOM     29  O   UNL     1       2.471   3.638  21.514  0.00  0.00    +0.000 OA
ATOM     30  H   UNL     1       3.442   3.728  21.405  0.00  0.00    +0.000 HD
ENDBRANCH  26  29
BRANCH  27  31
ATOM     31  O   UNL     1       0.205   3.014  19.969  0.00  0.00    +0.000 OA
ATOM     32  H   UNL     1       0.058   2.412  19.211  0.00  0.00    +0.000 HD
ENDBRANCH  27  31
BRANCH  28  33
ATOM     33  O   UNL     1       2.818   2.273  19.200  0.00  0.00    +0.000 OA
ATOM     34  H   UNL     1       2.744   2.464  20.158  0.00  0.00    +0.000 HD
ENDBRANCH  28  33
BRANCH  25  35
ATOM     35  C   UNL     1       2.332   6.912  19.615  0.00  0.00    +0.000 C 
BRANCH  35  36
ATOM     36  O   UNL     1       1.995   7.825  20.656  0.00  0.00    +0.000 OA
ATOM     37  H   UNL     1       1.046   7.718  20.848  0.00  0.00    +0.000 HD
ENDBRANCH  35  36
ENDBRANCH  25  35
ENDBRANCH  22  23
ENDBRANCH   4  22
TORSDOF 12
ENDMDL
MODEL 3
REMARK VINA RESULT:      -6.3      1.320      1.663
REMARK  Name = 
REMARK  15 active torsions:
REMARK  status: ('A' for Active; 'I' for Inactive)
REMARK    1  A    between atoms: C_1  and  O_2
REMARK    2  A    between atoms: O_2  and  C_3
REMARK    3  A    between atoms: C_5  and  C_6
REMARK    4  A    between atoms: C_6  and  N_7
REMARK    5  A    between atoms: C_8  and  C_9
REMARK    6  A    between atoms: C_11  and  O_12
REMARK    7  A    between atoms: O_12  and  C_13
REMARK    8  A    between atoms: C_15  and  C_16
REMARK    9  A    between atoms: C_16  and  O_17
REMARK   10  A    between atoms: C_18  and  O_19
REMARK   11  A    between atoms: C_20  and  O_21
REMARK   12  A    between atoms: C_22  and  O_23
REMARK   13  A    between atoms: C_24  and  O_25
REMARK   14  A    between atoms: C_26  and  N_27
REMARK   15  A    between atoms: C_28  and  C_29
REMARK                            x       y       z     vdW  Elec       q    Type
REMARK                         _______ _______ _______ _____ _____    ______ ____
ROOT
ATOM      1  C   UNL     1       0.744   8.264  20.358  0.00  0.00    +0.000 C 
ATOM      2  O   UNL     1       2.010   7.718  20.739  0.00  0.00    +0.000 OA
ATOM      3  C   UNL     1       2.677   6.986  19.701  0.00  0.00    +0.000 C 
ATOM      4  C   UNL     1       2.938   7.899  18.482  0.00  0.00    +0.000 C 
ATOM      5  C   UNL     1       1.657   8.658  18.057  0.00  0.00    +0.000 C 
ATOM      6  C   UNL     1       0.941   9.326  19.254  0.00  0.00    +0.000 C 
ENDROOT
BRANCH   6   7
ATOM      7  N   UNL     1       1.695  10.506  19.739  0.00  0.00    +0.000 N 
ATOM      8  C   UNL     1       1.136  11.769  19.735  0.00  0.00    +0.000 C 
ATOM      9  C   UNL     1       1.989  12.838  20.369  0.00  0.00    +0.000 C 
ATOM     10  O   UNL     1       0.063  12.032  19.204  0.00  0.00    +0.000 OA
ATOM     11  H   UNL     1       2.425  10.327  20.419  0.00  0.00    +0.000 HD
ENDBRANCH   6   7
BRANCH   1  13
ATOM     12  C   UNL     1       1.034   9.121  22.531  0.00  0.00    +0.000 C 
ATOM     13  O   UNL     1       0.099   8.832  21.496  0.00  0.00    +0.000 OA
ENDBRANCH   1  13
BRANCH   5  14
ATOM     14  O   UNL     1       1.986   9.637  17.058  0.00  0.00    +0.000 OA
ATOM     15  H   UNL     1       1.453   9.431  16.263  0.00  0.00    +0.000 HD
ENDBRANCH   5  14
BRANCH   3  16
ATOM     16  C   UNL     1       1.962   5.651  19.387  0.00  0.00    +0.000 C 
BRANCH  16  17
ATOM     17  N   UNL     1       1.776   4.840  20.588  0.00  0.00    +0.000 N 
ATOM     18  C   UNL     1       2.380   3.686  20.984  0.00  0.00    +0.000 C 
ATOM     19  C   UNL     1       3.380   3.004  20.091  0.00  0.00    +0.000 C 
ATOM     20  O   UNL     1       2.089   3.211  22.083  0.00  0.00    +0.000 OA
ATOM     21  H   UNL     1       1.178   5.214  21.320  0.00  0.00    +0.000 HD
ENDBRANCH  16  17
ENDBRANCH   3  16
BRANCH   4  22
ATOM     22  O   UNL     1       3.490   7.189  17.353  0.00  0.00    +0.000 OA
BRANCH  22  23
ATOM     23  C   UNL     1       4.535   6.259  17.695  0.00  0.00    +0.000 C 
ATOM     24  O   UNL     1       5.762   6.958  17.900  0.00  0.00    +0.000 OA
ATOM     25  C   UNL     1       6.908   6.137  18.198  0.00  0.00    +0.000 C 
ATOM     26  C   UNL     1       7.145   5.082  17.110  0.00  0.00    +0.000 C 
ATOM     27  C   UNL     1       5.854   4.287  16.845  0.00  0.00    +0.000 C 
ATOM     28  C   UNL     1       4.679   5.232  16.546  0.00  0.00    +0.000 C 
BRANCH  26  29
ATOM     29  O   UNL     1       7.580   5.733  15.905  0.00  0.00    +0.000 OA
ATOM     30  H   UNL     1       7.264   5.192  15.150  0.00  0.00    +0.000 HD
ENDBRANCH  26  29
BRANCH  27  31
ATOM     31  O   UNL     1       6.056   3.374  15.766  0.00  0.00    +0.000 OA
ATOM     32  H   UNL     1       5.326   2.724  15.834  0.00  0.00    +0.000 HD
ENDBRANCH  27  31
BRANCH  28  33
ATOM     33  O   UNL     1       4.945   5.928  15.308  0.00  0.00    +0.000 OA
ATOM     34  H   UNL     1       5.911   6.093  15.300  0.00  0.00    +0.000 HD
ENDBRANCH  28  33
BRANCH  25  35
ATOM     35  C   UNL     1       6.776   5.524  19.600  0.00  0.00    +0.000 C 
BRANCH  35  36
ATOM     36  O   UNL     1       8.038   5.518  20.262  0.00  0.00    +0.000 OA
ATOM     37  H   UNL     1       8.655   4.994  19.718  0.00  0.00    +0.000 HD
ENDBRANCH  35  36
ENDBRANCH  25  35
ENDBRANCH  22  23
ENDBRANCH   4  22
TORSDOF 12
ENDMDL
MODEL 4
REMARK VINA RESULT:      -6.2      3.653      7.772
REMARK  Name = 
REMARK  15 active torsions:
REMARK  status: ('A' for Active; 'I' for Inactive)
REMARK    1  A    between atoms: C_1  and  O_2
REMARK    2  A    between atoms: O_2  and  C_3
REMARK    3  A    between atoms: C_5  and  C_6
REMARK    4  A    between atoms: C_6  and  N_7
REMARK    5  A    between atoms: C_8  and  C_9
REMARK    6  A    between atoms: C_11  and  O_12
REMARK    7  A    between atoms: O_12  and  C_13
REMARK    8  A    between atoms: C_15  and  C_16
REMARK    9  A    between atoms: C_16  and  O_17
REMARK   10  A    between atoms: C_18  and  O_19
REMARK   11  A    between atoms: C_20  and  O_21
REMARK   12  A    between atoms: C_22  and  O_23
REMARK   13  A    between atoms: C_24  and  O_25
REMARK   14  A    between atoms: C_26  and  N_27
REMARK   15  A    between atoms: C_28  and  C_29
REMARK                            x       y       z     vdW  Elec       q    Type
REMARK                         _______ _______ _______ _____ _____    ______ ____
ROOT
ATOM      1  C   UNL     1       7.371   5.034  14.685  0.00  0.00    +0.000 C 
ATOM      2  O   UNL     1       6.070   5.493  14.307  0.00  0.00    +0.000 OA
ATOM      3  C   UNL     1       4.995   4.638  14.722  0.00  0.00    +0.000 C 
ATOM      4  C   UNL     1       4.985   4.495  16.260  0.00  0.00    +0.000 C 
ATOM      5  C   UNL     1       6.386   4.131  16.807  0.00  0.00    +0.000 C 
ATOM      6  C   UNL     1       7.501   5.033  16.224  0.00  0.00    +0.000 C 
ENDROOT
BRANCH   6   7
ATOM      7  N   UNL     1       7.437   6.399  16.794  0.00  0.00    +0.000 N 
ATOM      8  C   UNL     1       7.970   6.688  18.034  0.00  0.00    +0.000 C 
ATOM      9  C   UNL     1       7.928   8.146  18.415  0.00  0.00    +0.000 C 
ATOM     10  O   UNL     1       8.389   5.833  18.806  0.00  0.00    +0.000 OA
ATOM     11  H   UNL     1       7.374   7.163  16.129  0.00  0.00    +0.000 HD
ENDBRANCH   6   7
BRANCH   1  13
ATOM     12  C   UNL     1       8.350   5.767  12.674  0.00  0.00    +0.000 C 
ATOM     13  O   UNL     1       8.369   5.865  14.095  0.00  0.00    +0.000 OA
ENDBRANCH   1  13
BRANCH   5  14
ATOM     14  O   UNL     1       6.379   4.206  18.241  0.00  0.00    +0.000 OA
ATOM     15  H   UNL     1       5.939   3.396  18.572  0.00  0.00    +0.000 HD
ENDBRANCH   5  14
BRANCH   3  16
ATOM     16  C   UNL     1       4.982   3.307  13.934  0.00  0.00    +0.000 C 
BRANCH  16  17
ATOM     17  N   UNL     1       4.361   3.460  12.621  0.00  0.00    +0.000 N 
ATOM     18  C   UNL     1       4.612   2.832  11.440  0.00  0.00    +0.000 C 
ATOM     19  C   UNL     1       5.734   1.838  11.328  0.00  0.00    +0.000 C 
ATOM     20  O   UNL     1       3.905   3.097  10.465  0.00  0.00    +0.000 OA
ATOM     21  H   UNL     1       3.536   4.051  12.557  0.00  0.00    +0.000 HD
ENDBRANCH  16  17
ENDBRANCH   3  16
BRANCH   4  22
ATOM     22  O   UNL     1       4.007   3.544  16.732  0.00  0.00    +0.000 OA
BRANCH  22  23
ATOM     23  C   UNL     1       3.086   4.077  17.701  0.00  0.00    +0.000 C 
ATOM     24  O   UNL     1       3.776   4.385  18.913  0.00  0.00    +0.000 OA
ATOM     25  C   UNL     1       2.958   4.879  19.991  0.00  0.00    +0.000 C 
ATOM     26  C   UNL     1       1.824   3.904  20.332  0.00  0.00    +0.000 C 
ATOM     27  C   UNL     1       1.035   3.537  19.063  0.00  0.00    +0.000 C 
ATOM     28  C   UNL     1       1.976   3.029  17.959  0.00  0.00    +0.000 C 
BRANCH  26  29
ATOM     29  O   UNL     1       2.379   2.721  20.929  0.00  0.00    +0.000 OA
ATOM     30  H   UNL     1       3.248   2.967  21.312  0.00  0.00    +0.000 HD
ENDBRANCH  26  29
BRANCH  27  31
ATOM     31  O   UNL     1       0.043   2.556  19.372  0.00  0.00    +0.000 OA
ATOM     32  H   UNL     1      -0.655   3.037  19.863  0.00  0.00    +0.000 HD
ENDBRANCH  27  31
BRANCH  28  33
ATOM     33  O   UNL     1       2.577   1.789  18.394  0.00  0.00    +0.000 OA
ATOM     34  H   UNL     1       2.121   1.083  17.890  0.00  0.00    +0.000 HD
ENDBRANCH  28  33
BRANCH  25  35
ATOM     35  C   UNL     1       2.450   6.292  19.672  0.00  0.00    +0.000 C 
BRANCH  35  36
ATOM     36  O   UNL     1       1.943   6.917  20.847  0.00  0.00    +0.000 OA
ATOM     37  H   UNL     1       1.119   7.378  20.606  0.00  0.00    +0.000 HD
ENDBRANCH  35  36
ENDBRANCH  25  35
ENDBRANCH  22  23
ENDBRANCH   4  22
TORSDOF 12
ENDMDL
MODEL 5
REMARK VINA RESULT:      -6.1      2.061      4.805
REMARK  Name = 
REMARK  15 active torsions:
REMARK  status: ('A' for Active; 'I' for Inactive)
REMARK    1  A    between atoms: C_1  and  O_2
REMARK    2  A    between atoms: O_2  and  C_3
REMARK    3  A    between atoms: C_5  and  C_6
REMARK    4  A    between atoms: C_6  and  N_7
REMARK    5  A    between atoms: C_8  and  C_9
REMARK    6  A    between atoms: C_11  and  O_12
REMARK    7  A    between atoms: O_12  and  C_13
REMARK    8  A    between atoms: C_15  and  C_16
REMARK    9  A    between atoms: C_16  and  O_17
REMARK   10  A    between atoms: C_18  and  O_19
REMARK   11  A    between atoms: C_20  and  O_21
REMARK   12  A    between atoms: C_22  and  O_23
REMARK   13  A    between atoms: C_24  and  O_25
REMARK   14  A    between atoms: C_26  and  N_27
REMARK   15  A    between atoms: C_28  and  C_29
REMARK                            x       y       z     vdW  Elec       q    Type
REMARK                         _______ _______ _______ _____ _____    ______ ____
ROOT
ATOM      1  C   UNL     1       2.492   9.846  18.079  0.00  0.00    +0.000 C 
ATOM      2  O   UNL     1       2.592   8.739  17.178  0.00  0.00    +0.000 OA
ATOM      3  C   UNL     1       3.148   7.550  17.760  0.00  0.00    +0.000 C 
ATOM      4  C   UNL     1       2.281   7.078  18.949  0.00  0.00    +0.000 C 
ATOM      5  C   UNL     1       1.987   8.236  19.933  0.00  0.00    +0.000 C 
ATOM      6  C   UNL     1       1.496   9.514  19.211  0.00  0.00    +0.000 C 
ENDROOT
BRANCH   6   7
ATOM      7  N   UNL     1       0.112   9.349  18.710  0.00  0.00    +0.000 N 
ATOM      8  C   UNL     1      -0.841  10.333  18.887  0.00  0.00    +0.000 C 
ATOM      9  C   UNL     1      -2.163  10.060  18.217  0.00  0.00    +0.000 C 
ATOM     10  O   UNL     1      -0.666  11.325  19.585  0.00  0.00    +0.000 OA
ATOM     11  H   UNL     1      -0.011   8.725  17.920  0.00  0.00    +0.000 HD
ENDBRANCH   6   7
BRANCH   1  13
ATOM     12  C   UNL     1       2.427  12.199  18.073  0.00  0.00    +0.000 C 
ATOM     13  O   UNL     1       2.079  11.012  17.367  0.00  0.00    +0.000 OA
ENDBRANCH   1  13
BRANCH   5  14
ATOM     14  O   UNL     1       1.021   7.809  20.907  0.00  0.00    +0.000 OA
ATOM     15  H   UNL     1       0.218   8.352  20.776  0.00  0.00    +0.000 HD
ENDBRANCH   5  14
BRANCH   3  16
ATOM     16  C   UNL     1       4.656   7.709  18.062  0.00  0.00    +0.000 C 
BRANCH  16  17
ATOM     17  N   UNL     1       5.478   6.910  17.156  0.00  0.00    +0.000 N 
ATOM     18  C   UNL     1       6.826   6.880  16.972  0.00  0.00    +0.000 C 
ATOM     19  C   UNL     1       7.720   7.824  17.726  0.00  0.00    +0.000 C 
ATOM     20  O   UNL     1       7.297   6.068  16.173  0.00  0.00    +0.000 OA
ATOM     21  H   UNL     1       5.016   6.173  16.629  0.00  0.00    +0.000 HD
ENDBRANCH  16  17
ENDBRANCH   3  16
BRANCH   4  22
ATOM     22  O   UNL     1       2.858   5.961  19.659  0.00  0.00    +0.000 OA
BRANCH  22  23
ATOM     23  C   UNL     1       2.630   4.684  19.033  0.00  0.00    +0.000 C 
ATOM     24  O   UNL     1       2.421   3.683  20.030  0.00  0.00    +0.000 OA
ATOM     25  C   UNL     1       2.233   2.341  19.539  0.00  0.00    +0.000 C 
ATOM     26  C   UNL     1       3.408   1.892  18.661  0.00  0.00    +0.000 C 
ATOM     27  C   UNL     1       3.682   2.931  17.560  0.00  0.00    +0.000 C 
ATOM     28  C   UNL     1       3.860   4.334  18.161  0.00  0.00    +0.000 C 
BRANCH  26  29
ATOM     29  O   UNL     1       4.576   1.723  19.482  0.00  0.00    +0.000 OA
ATOM     30  H   UNL     1       5.021   2.595  19.540  0.00  0.00    +0.000 HD
ENDBRANCH  26  29
BRANCH  27  31
ATOM     31  O   UNL     1       4.836   2.553  16.808  0.00  0.00    +0.000 OA
ATOM     32  H   UNL     1       5.115   1.689  17.175  0.00  0.00    +0.000 HD
ENDBRANCH  27  31
BRANCH  28  33
ATOM     33  O   UNL     1       5.050   4.342  18.980  0.00  0.00    +0.000 OA
ATOM     34  H   UNL     1       4.811   4.841  19.789  0.00  0.00    +0.000 HD
ENDBRANCH  28  33
BRANCH  25  35
ATOM     35  C   UNL     1       0.879   2.218  18.827  0.00  0.00    +0.000 C 
BRANCH  35  36
ATOM     36  O   UNL     1      -0.162   2.754  19.638  0.00  0.00    +0.000 OA
ATOM     37  H   UNL     1      -0.183   3.718  19.495  0.00  0.00    +0.000 HD
ENDBRANCH  35  36
ENDBRANCH  25  35
ENDBRANCH  22  23
ENDBRANCH   4  22
TORSDOF 12
ENDMDL
MODEL 6
REMARK VINA RESULT:      -5.9      1.088      1.245
REMARK  Name = 
REMARK  15 active torsions:
REMARK  status: ('A' for Active; 'I' for Inactive)
REMARK    1  A    between atoms: C_1  and  O_2
REMARK    2  A    between atoms: O_2  and  C_3
REMARK    3  A    between atoms: C_5  and  C_6
REMARK    4  A    between atoms: C_6  and  N_7
REMARK    5  A    between atoms: C_8  and  C_9
REMARK    6  A    between atoms: C_11  and  O_12
REMARK    7  A    between atoms: O_12  and  C_13
REMARK    8  A    between atoms: C_15  and  C_16
REMARK    9  A    between atoms: C_16  and  O_17
REMARK   10  A    between atoms: C_18  and  O_19
REMARK   11  A    between atoms: C_20  and  O_21
REMARK   12  A    between atoms: C_22  and  O_23
REMARK   13  A    between atoms: C_24  and  O_25
REMARK   14  A    between atoms: C_26  and  N_27
REMARK   15  A    between atoms: C_28  and  C_29
REMARK                            x       y       z     vdW  Elec       q    Type
REMARK                         _______ _______ _______ _____ _____    ______ ____
ROOT
ATOM      1  C   UNL     1       0.591   9.095  20.761  0.00  0.00    +0.000 C 
ATOM      2  O   UNL     1       1.809   8.474  21.183  0.00  0.00    +0.000 OA
ATOM      3  C   UNL     1       2.190   7.328  20.409  0.00  0.00    +0.000 C 
ATOM      4  C   UNL     1       2.384   7.720  18.927  0.00  0.00    +0.000 C 
ATOM      5  C   UNL     1       1.177   8.526  18.390  0.00  0.00    +0.000 C 
ATOM      6  C   UNL     1       0.764   9.676  19.340  0.00  0.00    +0.000 C 
ENDROOT
BRANCH   6   7
ATOM      7  N   UNL     1       1.749  10.782  19.302  0.00  0.00    +0.000 N 
ATOM      8  C   UNL     1       1.372  12.072  18.983  0.00  0.00    +0.000 C 
ATOM      9  C   UNL     1       2.469  13.099  19.104  0.00  0.00    +0.000 C 
ATOM     10  O   UNL     1       0.257  12.367  18.569  0.00  0.00    +0.000 OA
ATOM     11  H   UNL     1       2.574  10.673  19.882  0.00  0.00    +0.000 HD
ENDBRANCH   6   7
BRANCH   1  13
ATOM     12  C   UNL     1      -0.431   9.575  22.826  0.00  0.00    +0.000 C 
ATOM     13  O   UNL     1       0.225  10.119  21.684  0.00  0.00    +0.000 OA
ENDBRANCH   1  13
BRANCH   5  14
ATOM     14  O   UNL     1       1.482   9.040  17.084  0.00  0.00    +0.000 OA
ATOM     15  H   UNL     1       0.638   9.102  16.592  0.00  0.00    +0.000 HD
ENDBRANCH   5  14
BRANCH   3  16
ATOM     16  C   UNL     1       1.247   6.127  20.657  0.00  0.00    +0.000 C 
BRANCH  16  17
ATOM     17  N   UNL     1       1.907   5.066  21.415  0.00  0.00    +0.000 N 
ATOM     18  C   UNL     1       1.838   3.712  21.295  0.00  0.00    +0.000 C 
ATOM     19  C   UNL     1       0.914   3.082  20.289  0.00  0.00    +0.000 C 
ATOM     20  O   UNL     1       2.542   3.015  22.027  0.00  0.00    +0.000 OA
ATOM     21  H   UNL     1       2.619   5.342  22.087  0.00  0.00    +0.000 HD
ENDBRANCH  16  17
ENDBRANCH   3  16
BRANCH   4  22
ATOM     22  O   UNL     1       2.641   6.586  18.072  0.00  0.00    +0.000 OA
BRANCH  22  23
ATOM     23  C   UNL     1       4.030   6.400  17.741  0.00  0.00    +0.000 C 
ATOM     24  O   UNL     1       4.169   5.331  16.805  0.00  0.00    +0.000 OA
ATOM     25  C   UNL     1       5.520   5.002  16.427  0.00  0.00    +0.000 C 
ATOM     26  C   UNL     1       6.383   4.669  17.651  0.00  0.00    +0.000 C 
ATOM     27  C   UNL     1       6.279   5.790  18.700  0.00  0.00    +0.000 C 
ATOM     28  C   UNL     1       4.811   6.088  19.041  0.00  0.00    +0.000 C 
BRANCH  26  29
ATOM     29  O   UNL     1       5.945   3.422  18.215  0.00  0.00    +0.000 OA
ATOM     30  H   UNL     1       6.263   2.706  17.624  0.00  0.00    +0.000 HD
ENDBRANCH  26  29
BRANCH  27  31
ATOM     31  O   UNL     1       7.008   5.429  19.874  0.00  0.00    +0.000 OA
ATOM     32  H   UNL     1       6.368   4.952  20.442  0.00  0.00    +0.000 HD
ENDBRANCH  27  31
BRANCH  28  33
ATOM     33  O   UNL     1       4.237   4.928  19.682  0.00  0.00    +0.000 OA
ATOM     34  H   UNL     1       3.451   4.691  19.147  0.00  0.00    +0.000 HD
ENDBRANCH  28  33
BRANCH  25  35
ATOM     35  C   UNL     1       6.121   6.121  15.564  0.00  0.00    +0.000 C 
BRANCH  35  36
ATOM     36  O   UNL     1       6.970   5.574  14.559  0.00  0.00    +0.000 OA
ATOM     37  H   UNL     1       6.435   5.457  13.752  0.00  0.00    +0.000 HD
ENDBRANCH  35  36
ENDBRANCH  25  35
ENDBRANCH  22  23
ENDBRANCH   4  22
TORSDOF 12
ENDMDL
MODEL 7
REMARK VINA RESULT:      -5.9      2.167      7.348
REMARK  Name = 
REMARK  15 active torsions:
REMARK  status: ('A' for Active; 'I' for Inactive)
REMARK    1  A    between atoms: C_1  and  O_2
REMARK    2  A    between atoms: O_2  and  C_3
REMARK    3  A    between atoms: C_5  and  C_6
REMARK    4  A    between atoms: C_6  and  N_7
REMARK    5  A    between atoms: C_8  and  C_9
REMARK    6  A    between atoms: C_11  and  O_12
REMARK    7  A    between atoms: O_12  and  C_13
REMARK    8  A    between atoms: C_15  and  C_16
REMARK    9  A    between atoms: C_16  and  O_17
REMARK   10  A    between atoms: C_18  and  O_19
REMARK   11  A    between atoms: C_20  and  O_21
REMARK   12  A    between atoms: C_22  and  O_23
REMARK   13  A    between atoms: C_24  and  O_25
REMARK   14  A    between atoms: C_26  and  N_27
REMARK   15  A    between atoms: C_28  and  C_29
REMARK                            x       y       z     vdW  Elec       q    Type
REMARK                         _______ _______ _______ _____ _____    ______ ____
ROOT
ATOM      1  C   UNL     1       4.169   3.976  17.878  0.00  0.00    +0.000 C 
ATOM      2  O   UNL     1       4.986   5.047  18.360  0.00  0.00    +0.000 OA
ATOM      3  C   UNL     1       4.546   6.354  17.962  0.00  0.00    +0.000 C 
ATOM      4  C   UNL     1       3.115   6.620  18.479  0.00  0.00    +0.000 C 
ATOM      5  C   UNL     1       2.159   5.452  18.134  0.00  0.00    +0.000 C 
ATOM      6  C   UNL     1       2.758   4.072  18.497  0.00  0.00    +0.000 C 
ENDROOT
BRANCH   6   7
ATOM      7  N   UNL     1       2.773   3.863  19.964  0.00  0.00    +0.000 N 
ATOM      8  C   UNL     1       1.776   3.151  20.600  0.00  0.00    +0.000 C 
ATOM      9  C   UNL     1       2.001   2.929  22.074  0.00  0.00    +0.000 C 
ATOM     10  O   UNL     1       0.750   2.778  20.042  0.00  0.00    +0.000 OA
ATOM     11  H   UNL     1       3.681   3.888  20.414  0.00  0.00    +0.000 HD
ENDBRANCH   6   7
BRANCH   1  13
ATOM     12  C   UNL     1       3.882   1.641  17.958  0.00  0.00    +0.000 C 
ATOM     13  O   UNL     1       4.776   2.725  18.195  0.00  0.00    +0.000 OA
ENDBRANCH   1  13
BRANCH   5  14
ATOM     14  O   UNL     1       0.902   5.644  18.802  0.00  0.00    +0.000 OA
ATOM     15  H   UNL     1       1.002   6.421  19.390  0.00  0.00    +0.000 HD
ENDBRANCH   5  14
BRANCH   3  16
ATOM     16  C   UNL     1       4.758   6.596  16.449  0.00  0.00    +0.000 C 
BRANCH  16  17
ATOM     17  N   UNL     1       6.119   6.266  16.032  0.00  0.00    +0.000 N 
ATOM     18  C   UNL     1       6.581   5.315  15.176  0.00  0.00    +0.000 C 
ATOM     19  C   UNL     1       5.632   4.339  14.536  0.00  0.00    +0.000 C 
ATOM     20  O   UNL     1       7.789   5.266  14.939  0.00  0.00    +0.000 OA
ATOM     21  H   UNL     1       6.866   6.888  16.332  0.00  0.00    +0.000 HD
ENDBRANCH  16  17
ENDBRANCH   3  16
BRANCH   4  22
ATOM     22  O   UNL     1       2.565   7.867  18.002  0.00  0.00    +0.000 OA
BRANCH  22  23
ATOM     23  C   UNL     1       2.149   8.766  19.047  0.00  0.00    +0.000 C 
ATOM     24  O   UNL     1       1.109   8.167  19.820  0.00  0.00    +0.000 OA
ATOM     25  C   UNL     1       0.561   8.985  20.872  0.00  0.00    +0.000 C 
ATOM     26  C   UNL     1       0.034  10.320  20.331  0.00  0.00    +0.000 C 
ATOM     27  C   UNL     1       1.114  11.020  19.489  0.00  0.00    +0.000 C 
ATOM     28  C   UNL     1       1.654  10.082  18.399  0.00  0.00    +0.000 C 
BRANCH  26  29
ATOM     29  O   UNL     1      -1.137  10.079  19.532  0.00  0.00    +0.000 OA
ATOM     30  H   UNL     1      -1.353   9.125  19.611  0.00  0.00    +0.000 HD
ENDBRANCH  26  29
BRANCH  27  31
ATOM     31  O   UNL     1       0.584  12.215  18.912  0.00  0.00    +0.000 OA
ATOM     32  H   UNL     1      -0.363  12.027  18.746  0.00  0.00    +0.000 HD
ENDBRANCH  27  31
BRANCH  28  33
ATOM     33  O   UNL     1       0.590   9.790  17.466  0.00  0.00    +0.000 OA
ATOM     34  H   UNL     1       0.419  10.629  16.990  0.00  0.00    +0.000 HD
ENDBRANCH  28  33
BRANCH  25  35
ATOM     35  C   UNL     1       1.587   9.165  21.999  0.00  0.00    +0.000 C 
BRANCH  35  36
ATOM     36  O   UNL     1       0.960   9.690  23.165  0.00  0.00    +0.000 OA
ATOM     37  H   UNL     1       0.999  10.662  23.110  0.00  0.00    +0.000 HD
ENDBRANCH  35  36
ENDBRANCH  25  35
ENDBRANCH  22  23
ENDBRANCH   4  22
TORSDOF 12
ENDMDL
MODEL 8
REMARK VINA RESULT:      -5.9      1.989      7.306
REMARK  Name = 
REMARK  15 active torsions:
REMARK  status: ('A' for Active; 'I' for Inactive)
REMARK    1  A    between atoms: C_1  and  O_2
REMARK    2  A    between atoms: O_2  and  C_3
REMARK    3  A    between atoms: C_5  and  C_6
REMARK    4  A    between atoms: C_6  and  N_7
REMARK    5  A    between atoms: C_8  and  C_9
REMARK    6  A    between atoms: C_11  and  O_12
REMARK    7  A    between atoms: O_12  and  C_13
REMARK    8  A    between atoms: C_15  and  C_16
REMARK    9  A    between atoms: C_16  and  O_17
REMARK   10  A    between atoms: C_18  and  O_19
REMARK   11  A    between atoms: C_20  and  O_21
REMARK   12  A    between atoms: C_22  and  O_23
REMARK   13  A    between atoms: C_24  and  O_25
REMARK   14  A    between atoms: C_26  and  N_27
REMARK   15  A    between atoms: C_28  and  C_29
REMARK                            x       y       z     vdW  Elec       q    Type
REMARK                         _______ _______ _______ _____ _____    ______ ____
ROOT
ATOM      1  C   UNL     1       4.338   3.583  18.360  0.00  0.00    +0.000 C 
ATOM      2  O   UNL     1       5.049   4.644  19.005  0.00  0.00    +0.000 OA
ATOM      3  C   UNL     1       4.771   5.949  18.479  0.00  0.00    +0.000 C 
ATOM      4  C   UNL     1       3.267   6.276  18.618  0.00  0.00    +0.000 C 
ATOM      5  C   UNL     1       2.384   5.127  18.073  0.00  0.00    +0.000 C 
ATOM      6  C   UNL     1       2.821   3.742  18.606  0.00  0.00    +0.000 C 
ENDROOT
BRANCH   6   7
ATOM      7  N   UNL     1       2.464   3.580  20.034  0.00  0.00    +0.000 N 
ATOM      8  C   UNL     1       1.338   2.880  20.420  0.00  0.00    +0.000 C 
ATOM      9  C   UNL     1       1.182   2.707  21.910  0.00  0.00    +0.000 C 
ATOM     10  O   UNL     1       0.487   2.482  19.633  0.00  0.00    +0.000 OA
ATOM     11  H   UNL     1       3.229   3.625  20.699  0.00  0.00    +0.000 HD
ENDBRANCH   6   7
BRANCH   1  13
ATOM     12  C   UNL     1       3.985   1.256  18.374  0.00  0.00    +0.000 C 
ATOM     13  O   UNL     1       4.800   2.324  18.847  0.00  0.00    +0.000 OA
ENDBRANCH   1  13
BRANCH   5  14
ATOM     14  O   UNL     1       1.008   5.379  18.402  0.00  0.00    +0.000 OA
ATOM     15  H   UNL     1       0.977   5.627  19.349  0.00  0.00    +0.000 HD
ENDBRANCH   5  14
BRANCH   3  16
ATOM     16  C   UNL     1       5.361   6.137  17.062  0.00  0.00    +0.000 C 
BRANCH  16  17
ATOM     17  N   UNL     1       6.217   7.318  16.982  0.00  0.00    +0.000 N 
ATOM     18  C   UNL     1       7.404   7.598  17.586  0.00  0.00    +0.000 C 
ATOM     19  C   UNL     1       8.005   6.633  18.569  0.00  0.00    +0.000 C 
ATOM     20  O   UNL     1       7.972   8.657  17.315  0.00  0.00    +0.000 OA
ATOM     21  H   UNL     1       5.972   8.030  16.299  0.00  0.00    +0.000 HD
ENDBRANCH  16  17
ENDBRANCH   3  16
BRANCH   4  22
ATOM     22  O   UNL     1       2.900   7.523  17.990  0.00  0.00    +0.000 OA
BRANCH  22  23
ATOM     23  C   UNL     1       2.424   8.527  18.906  0.00  0.00    +0.000 C 
ATOM     24  O   UNL     1       1.347   8.005  19.684  0.00  0.00    +0.000 OA
ATOM     25  C   UNL     1       0.739   8.927  20.609  0.00  0.00    +0.000 C 
ATOM     26  C   UNL     1       0.235  10.190  19.898  0.00  0.00    +0.000 C 
ATOM     27  C   UNL     1       1.356  10.805  19.042  0.00  0.00    +0.000 C 
ATOM     28  C   UNL     1       1.959   9.759  18.092  0.00  0.00    +0.000 C 
BRANCH  26  29
ATOM     29  O   UNL     1      -0.889   9.851  19.069  0.00  0.00    +0.000 OA
ATOM     30  H   UNL     1      -1.603   9.533  19.662  0.00  0.00    +0.000 HD
ENDBRANCH  26  29
BRANCH  27  31
ATOM     31  O   UNL     1       0.853  11.923  18.309  0.00  0.00    +0.000 OA
ATOM     32  H   UNL     1       0.703  11.593  17.400  0.00  0.00    +0.000 HD
ENDBRANCH  27  31
BRANCH  28  33
ATOM     33  O   UNL     1       0.948   9.355  17.142  0.00  0.00    +0.000 OA
ATOM     34  H   UNL     1       1.015   8.380  17.083  0.00  0.00    +0.000 HD
ENDBRANCH  28  33
BRANCH  25  35
ATOM     35  C   UNL     1       1.703   9.241  21.762  0.00  0.00    +0.000 C 
BRANCH  35  36
ATOM     36  O   UNL     1       0.977   9.567  22.944  0.00  0.00    +0.000 OA
ATOM     37  H   UNL     1       0.403   8.809  23.158  0.00  0.00    +0.000 HD
ENDBRANCH  35  36
ENDBRANCH  25  35
ENDBRANCH  22  23
ENDBRANCH   4  22
TORSDOF 12
ENDMDL
MODEL 9
REMARK VINA RESULT:      -5.8      3.897      7.637
REMARK  Name = 
REMARK  15 active torsions:
REMARK  status: ('A' for Active; 'I' for Inactive)
REMARK    1  A    between atoms: C_1  and  O_2
REMARK    2  A    between atoms: O_2  and  C_3
REMARK    3  A    between atoms: C_5  and  C_6
REMARK    4  A    between atoms: C_6  and  N_7
REMARK    5  A    between atoms: C_8  and  C_9
REMARK    6  A    between atoms: C_11  and  O_12
REMARK    7  A    between atoms: O_12  and  C_13
REMARK    8  A    between atoms: C_15  and  C_16
REMARK    9  A    between atoms: C_16  and  O_17
REMARK   10  A    between atoms: C_18  and  O_19
REMARK   11  A    between atoms: C_20  and  O_21
REMARK   12  A    between atoms: C_22  and  O_23
REMARK   13  A    between atoms: C_24  and  O_25
REMARK   14  A    between atoms: C_26  and  N_27
REMARK   15  A    between atoms: C_28  and  C_29
REMARK                            x       y       z     vdW  Elec       q    Type
REMARK                         _______ _______ _______ _____ _____    ______ ____
ROOT
ATOM      1  C   UNL     1       7.362   5.091  14.934  0.00  0.00    +0.000 C 
ATOM      2  O   UNL     1       6.130   5.499  14.333  0.00  0.00    +0.000 OA
ATOM      3  C   UNL     1       4.981   4.761  14.773  0.00  0.00    +0.000 C 
ATOM      4  C   UNL     1       4.799   4.910  16.301  0.00  0.00    +0.000 C 
ATOM      5  C   UNL     1       6.117   4.624  17.060  0.00  0.00    +0.000 C 
ATOM      6  C   UNL     1       7.325   5.376  16.452  0.00  0.00    +0.000 C 
ENDROOT
BRANCH   6   7
ATOM      7  N   UNL     1       7.258   6.826  16.749  0.00  0.00    +0.000 N 
ATOM      8  C   UNL     1       7.847   7.358  17.879  0.00  0.00    +0.000 C 
ATOM      9  C   UNL     1       7.790   8.861  17.973  0.00  0.00    +0.000 C 
ATOM     10  O   UNL     1       8.324   6.674  18.778  0.00  0.00    +0.000 OA
ATOM     11  H   UNL     1       7.144   7.445  15.954  0.00  0.00    +0.000 HD
ENDBRANCH   6   7
BRANCH   1  13
ATOM     12  C   UNL     1       8.352   5.732  12.897  0.00  0.00    +0.000 C 
ATOM     13  O   UNL     1       8.451   5.775  14.318  0.00  0.00    +0.000 OA
ENDBRANCH   1  13
BRANCH   5  14
ATOM     14  O   UNL     1       5.959   4.967  18.446  0.00  0.00    +0.000 OA
ATOM     15  H   UNL     1       6.121   4.153  18.966  0.00  0.00    +0.000 HD
ENDBRANCH   5  14
BRANCH   3  16
ATOM     16  C   UNL     1       4.996   3.306  14.248  0.00  0.00    +0.000 C 
BRANCH  16  17
ATOM     17  N   UNL     1       6.073   3.088  13.285  0.00  0.00    +0.000 N 
ATOM     18  C   UNL     1       6.036   2.881  11.941  0.00  0.00    +0.000 C 
ATOM     19  C   UNL     1       4.719   2.777  11.221  0.00  0.00    +0.000 C 
ATOM     20  O   UNL     1       7.099   2.775  11.327  0.00  0.00    +0.000 OA
ATOM     21  H   UNL     1       7.029   3.200  13.615  0.00  0.00    +0.000 HD
ENDBRANCH  16  17
ENDBRANCH   3  16
BRANCH   4  22
ATOM     22  O   UNL     1       3.736   4.086  16.825  0.00  0.00    +0.000 OA
BRANCH  22  23
ATOM     23  C   UNL     1       3.694   4.023  18.263  0.00  0.00    +0.000 C 
ATOM     24  O   UNL     1       3.121   2.784  18.680  0.00  0.00    +0.000 OA
ATOM     25  C   UNL     1       2.969   2.613  20.103  0.00  0.00    +0.000 C 
ATOM     26  C   UNL     1       2.140   3.745  20.722  0.00  0.00    +0.000 C 
ATOM     27  C   UNL     1       2.712   5.113  20.312  0.00  0.00    +0.000 C 
ATOM     28  C   UNL     1       2.853   5.213  18.785  0.00  0.00    +0.000 C 
BRANCH  26  29
ATOM     29  O   UNL     1       0.776   3.628  20.285  0.00  0.00    +0.000 OA
ATOM     30  H   UNL     1       0.698   2.782  19.794  0.00  0.00    +0.000 HD
ENDBRANCH  26  29
BRANCH  27  31
ATOM     31  O   UNL     1       1.880   6.160  20.813  0.00  0.00    +0.000 OA
ATOM     32  H   UNL     1       2.317   6.472  21.632  0.00  0.00    +0.000 HD
ENDBRANCH  27  31
BRANCH  28  33
ATOM     33  O   UNL     1       1.536   5.171  18.192  0.00  0.00    +0.000 OA
ATOM     34  H   UNL     1       1.622   5.617  17.324  0.00  0.00    +0.000 HD
ENDBRANCH  28  33
BRANCH  25  35
ATOM     35  C   UNL     1       4.341   2.448  20.771  0.00  0.00    +0.000 C 
BRANCH  35  36
ATOM     36  O   UNL     1       5.140   1.516  20.047  0.00  0.00    +0.000 OA
ATOM     37  H   UNL     1       4.561   0.783  19.771  0.00  0.00    +0.000 HD
ENDBRANCH  35  36
ENDBRANCH  25  35
ENDBRANCH  22  23
ENDBRANCH   4  22
TORSDOF 12
ENDMDL
