MODEL 1
REMARK VINA RESULT:      -6.9      0.000      0.000
REMARK  Name = 
REMARK  5 active torsions:
REMARK  status: ('A' for Active; 'I' for Inactive)
REMARK    1  A    between atoms: C_1  and  C_2
REMARK    2  A    between atoms: C_7  and  S_8
REMARK    3  A    between atoms: S_8  and  C_9
REMARK    4  A    between atoms: N_15  and  C_16
REMARK    5  A    between atoms: C_16  and  C_17
REMARK                            x       y       z     vdW  Elec       q    Type
REMARK                         _______ _______ _______ _____ _____    ______ ____
ROOT
ATOM      1  C   UNL     1      -2.926   9.866  14.720  0.00  0.00    +0.000 C 
ATOM      2  C   UNL     1      -3.055  10.528  16.064  0.00  0.00    +0.000 A 
ATOM      3  C   UNL     1      -4.134  11.348  16.410  0.00  0.00    +0.000 A 
ATOM      4  C   UNL     1      -4.219  11.935  17.696  0.00  0.00    +0.000 A 
ATOM      5  C   UNL     1      -3.231  11.719  18.667  0.00  0.00    +0.000 A 
ATOM      6  N   UNL     1      -3.304  12.319  19.951  0.00  0.00    +0.000 NA
ATOM      7  C   UNL     1      -2.229  12.336  20.690  0.00  0.00    +0.000 A 
ATOM      8  N   UNL     1      -1.038  11.736  20.284  0.00  0.00    +0.000 N 
ATOM      9  C   UNL     1      -1.021  10.854  19.208  0.00  0.00    +0.000 A 
ATOM     10  O   UNL     1      -0.094  10.093  18.942  0.00  0.00    +0.000 OA
ATOM     11  C   UNL     1      -2.154  10.931  18.287  0.00  0.00    +0.000 A 
ATOM     12  C   UNL     1      -2.058  10.329  17.018  0.00  0.00    +0.000 A 
ENDROOT
BRANCH   7  13
ATOM     13  S   UNL     1      -2.228  13.339  22.154  0.00  0.00    +0.000 S 
BRANCH  13  14
ATOM     14  C   UNL     1      -3.676  13.025  23.119  0.00  0.00    +0.000 A 
ATOM     15  C   UNL     1      -3.924  12.209  24.205  0.00  0.00    +0.000 A 
ATOM     16  N   UNL     1      -5.236  12.164  24.675  0.00  0.00    +0.000 NA
ATOM     17  C   UNL     1      -6.026  12.903  23.925  0.00  0.00    +0.000 A 
ATOM     18  N   UNL     1      -7.346  13.015  24.154  0.00  0.00    +0.000 N 
ATOM     19  S   UNL     1      -5.216  13.701  22.634  0.00  0.00    +0.000 S 
ATOM     20  H   UNL     1      -7.746  12.383  24.839  0.00  0.00    +0.000 HD
ATOM     21  H   UNL     1      -7.975  13.227  23.380  0.00  0.00    +0.000 HD
ENDBRANCH  13  14
ENDBRANCH   7  13
BRANCH   8  22
ATOM     22  C   UNL     1       0.293  12.083  20.783  0.00  0.00    +0.000 C 
BRANCH  22  23
ATOM     23  C   UNL     1       0.979  13.142  19.925  0.00  0.00    +0.000 A 
ATOM     24  C   UNL     1       2.118  12.797  19.183  0.00  0.00    +0.000 A 
ATOM     25  C   UNL     1       2.757  13.735  18.369  0.00  0.00    +0.000 A 
ATOM     26  C   UNL     1       2.271  15.037  18.281  0.00  0.00    +0.000 A 
ATOM     27  C   UNL     1       1.136  15.399  19.000  0.00  0.00    +0.000 A 
ATOM     28  C   UNL     1       0.490  14.458  19.808  0.00  0.00    +0.000 A 
ENDBRANCH  22  23
ENDBRANCH   8  22
TORSDOF 4
ENDMDL
MODEL 2
REMARK VINA RESULT:      -6.6      3.795      6.344
REMARK  Name = 
REMARK  5 active torsions:
REMARK  status: ('A' for Active; 'I' for Inactive)
REMARK    1  A    between atoms: C_1  and  C_2
REMARK    2  A    between atoms: C_7  and  S_8
REMARK    3  A    between atoms: S_8  and  C_9
REMARK    4  A    between atoms: N_15  and  C_16
REMARK    5  A    between atoms: C_16  and  C_17
REMARK                            x       y       z     vdW  Elec       q    Type
REMARK                         _______ _______ _______ _____ _____    ______ ____
ROOT
ATOM      1  C   UNL     1       2.752   4.685  18.168  0.00  0.00    +0.000 C 
ATOM      2  C   UNL     1       2.299   5.857  18.994  0.00  0.00    +0.000 A 
ATOM      3  C   UNL     1       1.904   5.740  20.331  0.00  0.00    +0.000 A 
ATOM      4  C   UNL     1       1.501   6.878  21.072  0.00  0.00    +0.000 A 
ATOM      5  C   UNL     1       1.482   8.158  20.499  0.00  0.00    +0.000 A 
ATOM      6  N   UNL     1       1.063   9.297  21.233  0.00  0.00    +0.000 NA
ATOM      7  C   UNL     1       0.774  10.386  20.577  0.00  0.00    +0.000 A 
ATOM      8  N   UNL     1       0.919  10.482  19.194  0.00  0.00    +0.000 N 
ATOM      9  C   UNL     1       1.643   9.523  18.491  0.00  0.00    +0.000 A 
ATOM     10  O   UNL     1       2.038   9.654  17.335  0.00  0.00    +0.000 OA
ATOM     11  C   UNL     1       1.844   8.240  19.161  0.00  0.00    +0.000 A 
ATOM     12  C   UNL     1       2.259   7.123  18.412  0.00  0.00    +0.000 A 
ENDROOT
BRANCH   7  13
ATOM     13  S   UNL     1      -0.031  11.707  21.448  0.00  0.00    +0.000 S 
BRANCH  13  14
ATOM     14  C   UNL     1       0.899  13.203  21.298  0.00  0.00    +0.000 A 
ATOM     15  C   UNL     1       2.182  13.473  20.863  0.00  0.00    +0.000 A 
ATOM     16  N   UNL     1       2.613  14.797  20.951  0.00  0.00    +0.000 NA
ATOM     17  C   UNL     1       1.688  15.553  21.503  0.00  0.00    +0.000 A 
ATOM     18  N   UNL     1       1.861  16.868  21.720  0.00  0.00    +0.000 N 
ATOM     19  S   UNL     1       0.251  14.704  21.921  0.00  0.00    +0.000 S 
ATOM     20  H   UNL     1       2.798  17.234  21.584  0.00  0.00    +0.000 HD
ATOM     21  H   UNL     1       1.353  17.325  22.477  0.00  0.00    +0.000 HD
ENDBRANCH  13  14
ENDBRANCH   7  13
BRANCH   8  22
ATOM     22  C   UNL     1       0.215  11.436  18.336  0.00  0.00    +0.000 C 
BRANCH  22  23
ATOM     23  C   UNL     1      -1.242  11.045  18.106  0.00  0.00    +0.000 A 
ATOM     24  C   UNL     1      -2.263  11.851  18.629  0.00  0.00    +0.000 A 
ATOM     25  C   UNL     1      -3.608  11.535  18.418  0.00  0.00    +0.000 A 
ATOM     26  C   UNL     1      -3.958  10.407  17.681  0.00  0.00    +0.000 A 
ATOM     27  C   UNL     1      -2.961   9.599  17.144  0.00  0.00    +0.000 A 
ATOM     28  C   UNL     1      -1.614   9.918  17.346  0.00  0.00    +0.000 A 
ENDBRANCH  22  23
ENDBRANCH   8  22
TORSDOF 4
ENDMDL
MODEL 3
REMARK VINA RESULT:      -6.6      0.829      1.413
REMARK  Name = 
REMARK  5 active torsions:
REMARK  status: ('A' for Active; 'I' for Inactive)
REMARK    1  A    between atoms: C_1  and  C_2
REMARK    2  A    between atoms: C_7  and  S_8
REMARK    3  A    between atoms: S_8  and  C_9
REMARK    4  A    between atoms: N_15  and  C_16
REMARK    5  A    between atoms: C_16  and  C_17
REMARK                            x       y       z     vdW  Elec       q    Type
REMARK                         _______ _______ _______ _____ _____    ______ ____
ROOT
ATOM      1  C   UNL     1      -3.074  10.312  14.839  0.00  0.00    +0.000 C 
ATOM      2  C   UNL     1      -3.169  10.880  16.228  0.00  0.00    +0.000 A 
ATOM      3  C   UNL     1      -4.368  11.338  16.784  0.00  0.00    +0.000 A 
ATOM      4  C   UNL     1      -4.409  11.850  18.104  0.00  0.00    +0.000 A 
ATOM      5  C   UNL     1      -3.257  11.916  18.901  0.00  0.00    +0.000 A 
ATOM      6  N   UNL     1      -3.291  12.443  20.217  0.00  0.00    +0.000 NA
ATOM      7  C   UNL     1      -2.163  12.763  20.788  0.00  0.00    +0.000 A 
ATOM      8  N   UNL     1      -0.931  12.549  20.170  0.00  0.00    +0.000 N 
ATOM      9  C   UNL     1      -0.835  11.732  19.047  0.00  0.00    +0.000 A 
ATOM     10  O   UNL     1       0.216  11.283  18.597  0.00  0.00    +0.000 OA
ATOM     11  C   UNL     1      -2.075  11.488  18.312  0.00  0.00    +0.000 A 
ATOM     12  C   UNL     1      -2.016  10.966  17.007  0.00  0.00    +0.000 A 
ENDROOT
BRANCH   7  13
ATOM     13  S   UNL     1      -2.214  13.693  22.298  0.00  0.00    +0.000 S 
BRANCH  13  14
ATOM     14  C   UNL     1      -3.644  13.260  23.242  0.00  0.00    +0.000 A 
ATOM     15  C   UNL     1      -3.901  12.253  24.152  0.00  0.00    +0.000 A 
ATOM     16  N   UNL     1      -5.197  12.176  24.660  0.00  0.00    +0.000 NA
ATOM     17  C   UNL     1      -5.969  13.090  24.110  0.00  0.00    +0.000 A 
ATOM     18  N   UNL     1      -7.272  13.217  24.414  0.00  0.00    +0.000 N 
ATOM     19  S   UNL     1      -5.158  14.094  22.971  0.00  0.00    +0.000 S 
ATOM     20  H   UNL     1      -7.685  12.478  24.975  0.00  0.00    +0.000 HD
ATOM     21  H   UNL     1      -7.914  13.612  23.727  0.00  0.00    +0.000 HD
ENDBRANCH  13  14
ENDBRANCH   7  13
BRANCH   8  22
ATOM     22  C   UNL     1       0.306  13.263  20.487  0.00  0.00    +0.000 C 
BRANCH  22  23
ATOM     23  C   UNL     1       0.477  14.529  19.652  0.00  0.00    +0.000 A 
ATOM     24  C   UNL     1      -0.620  15.382  19.460  0.00  0.00    +0.000 A 
ATOM     25  C   UNL     1      -0.494  16.561  18.721  0.00  0.00    +0.000 A 
ATOM     26  C   UNL     1       0.732  16.910  18.157  0.00  0.00    +0.000 A 
ATOM     27  C   UNL     1       1.835  16.084  18.344  0.00  0.00    +0.000 A 
ATOM     28  C   UNL     1       1.713  14.908  19.091  0.00  0.00    +0.000 A 
ENDBRANCH  22  23
ENDBRANCH   8  22
TORSDOF 4
ENDMDL
MODEL 4
REMARK VINA RESULT:      -6.5     10.251     11.984
REMARK  Name = 
REMARK  5 active torsions:
REMARK  status: ('A' for Active; 'I' for Inactive)
REMARK    1  A    between atoms: C_1  and  C_2
REMARK    2  A    between atoms: C_7  and  S_8
REMARK    3  A    between atoms: S_8  and  C_9
REMARK    4  A    between atoms: N_15  and  C_16
REMARK    5  A    between atoms: C_16  and  C_17
REMARK                            x       y       z     vdW  Elec       q    Type
REMARK                         _______ _______ _______ _____ _____    ______ ____
ROOT
ATOM      1  C   UNL     1       8.805   9.448  17.876  0.00  0.00    +0.000 C 
ATOM      2  C   UNL     1       8.086   8.145  18.091  0.00  0.00    +0.000 A 
ATOM      3  C   UNL     1       8.467   7.217  19.067  0.00  0.00    +0.000 A 
ATOM      4  C   UNL     1       7.748   6.010  19.242  0.00  0.00    +0.000 A 
ATOM      5  C   UNL     1       6.631   5.700  18.452  0.00  0.00    +0.000 A 
ATOM      6  N   UNL     1       5.918   4.484  18.614  0.00  0.00    +0.000 NA
ATOM      7  C   UNL     1       5.099   4.114  17.669  0.00  0.00    +0.000 A 
ATOM      8  N   UNL     1       4.862   4.899  16.541  0.00  0.00    +0.000 N 
ATOM      9  C   UNL     1       5.266   6.231  16.509  0.00  0.00    +0.000 A 
ATOM     10  O   UNL     1       4.882   7.057  15.685  0.00  0.00    +0.000 OA
ATOM     11  C   UNL     1       6.296   6.621  17.470  0.00  0.00    +0.000 A 
ATOM     12  C   UNL     1       6.992   7.831  17.287  0.00  0.00    +0.000 A 
ENDROOT
BRANCH   7  13
ATOM     13  S   UNL     1       4.438   2.468  17.722  0.00  0.00    +0.000 S 
BRANCH  13  14
ATOM     14  C   UNL     1       3.063   2.389  18.829  0.00  0.00    +0.000 A 
ATOM     15  C   UNL     1       1.703   2.250  18.631  0.00  0.00    +0.000 A 
ATOM     16  N   UNL     1       0.892   2.298  19.765  0.00  0.00    +0.000 NA
ATOM     17  C   UNL     1       1.610   2.528  20.844  0.00  0.00    +0.000 A 
ATOM     18  N   UNL     1       1.065   2.640  22.067  0.00  0.00    +0.000 N 
ATOM     19  S   UNL     1       3.297   2.675  20.539  0.00  0.00    +0.000 S 
ATOM     20  H   UNL     1       0.052   2.695  22.113  0.00  0.00    +0.000 HD
ATOM     21  H   UNL     1       1.535   3.199  22.779  0.00  0.00    +0.000 HD
ENDBRANCH  13  14
ENDBRANCH   7  13
BRANCH   8  22
ATOM     22  C   UNL     1       4.362   4.403  15.259  0.00  0.00    +0.000 C 
BRANCH  22  23
ATOM     23  C   UNL     1       5.457   4.326  14.199  0.00  0.00    +0.000 A 
ATOM     24  C   UNL     1       6.696   4.936  14.442  0.00  0.00    +0.000 A 
ATOM     25  C   UNL     1       7.729   4.865  13.503  0.00  0.00    +0.000 A 
ATOM     26  C   UNL     1       7.542   4.185  12.302  0.00  0.00    +0.000 A 
ATOM     27  C   UNL     1       6.324   3.564  12.044  0.00  0.00    +0.000 A 
ATOM     28  C   UNL     1       5.293   3.626  12.987  0.00  0.00    +0.000 A 
ENDBRANCH  22  23
ENDBRANCH   8  22
TORSDOF 4
ENDMDL
MODEL 5
REMARK VINA RESULT:      -6.5      1.166      1.562
REMARK  Name = 
REMARK  5 active torsions:
REMARK  status: ('A' for Active; 'I' for Inactive)
REMARK    1  A    between atoms: C_1  and  C_2
REMARK    2  A    between atoms: C_7  and  S_8
REMARK    3  A    between atoms: S_8  and  C_9
REMARK    4  A    between atoms: N_15  and  C_16
REMARK    5  A    between atoms: C_16  and  C_17
REMARK                            x       y       z     vdW  Elec       q    Type
REMARK                         _______ _______ _______ _____ _____    ______ ____
ROOT
ATOM      1  C   UNL     1      -3.104  10.000  14.644  0.00  0.00    +0.000 C 
ATOM      2  C   UNL     1      -3.031  10.543  16.045  0.00  0.00    +0.000 A 
ATOM      3  C   UNL     1      -4.034  11.342  16.605  0.00  0.00    +0.000 A 
ATOM      4  C   UNL     1      -3.926  11.816  17.936  0.00  0.00    +0.000 A 
ATOM      5  C   UNL     1      -2.819  11.504  18.739  0.00  0.00    +0.000 A 
ATOM      6  N   UNL     1      -2.701  11.991  20.066  0.00  0.00    +0.000 NA
ATOM      7  C   UNL     1      -1.535  11.931  20.647  0.00  0.00    +0.000 A 
ATOM      8  N   UNL     1      -0.425  11.355  20.030  0.00  0.00    +0.000 N 
ATOM      9  C   UNL     1      -0.578  10.570  18.891  0.00  0.00    +0.000 A 
ATOM     10  O   UNL     1       0.286   9.824  18.436  0.00  0.00    +0.000 OA
ATOM     11  C   UNL     1      -1.824  10.740  18.146  0.00  0.00    +0.000 A 
ATOM     12  C   UNL     1      -1.917  10.250  16.830  0.00  0.00    +0.000 A 
ENDROOT
BRANCH   7  13
ATOM     13  S   UNL     1      -1.309  12.803  22.177  0.00  0.00    +0.000 S 
BRANCH  13  14
ATOM     14  C   UNL     1      -2.791  13.655  22.627  0.00  0.00    +0.000 A 
ATOM     15  C   UNL     1      -3.173  14.980  22.555  0.00  0.00    +0.000 A 
ATOM     16  N   UNL     1      -4.423  15.307  23.079  0.00  0.00    +0.000 NA
ATOM     17  C   UNL     1      -4.998  14.248  23.609  0.00  0.00    +0.000 A 
ATOM     18  N   UNL     1      -6.205  14.297  24.199  0.00  0.00    +0.000 N 
ATOM     19  S   UNL     1      -4.064  12.808  23.479  0.00  0.00    +0.000 S 
ATOM     20  H   UNL     1      -6.597  15.219  24.362  0.00  0.00    +0.000 HD
ATOM     21  H   UNL     1      -6.437  13.623  24.928  0.00  0.00    +0.000 HD
ENDBRANCH  13  14
ENDBRANCH   7  13
BRANCH   8  22
ATOM     22  C   UNL     1       0.969  11.641  20.367  0.00  0.00    +0.000 C 
BRANCH  22  23
ATOM     23  C   UNL     1       1.527  12.824  19.581  0.00  0.00    +0.000 A 
ATOM     24  C   UNL     1       1.165  14.128  19.948  0.00  0.00    +0.000 A 
ATOM     25  C   UNL     1       1.675  15.235  19.264  0.00  0.00    +0.000 A 
ATOM     26  C   UNL     1       2.555  15.060  18.199  0.00  0.00    +0.000 A 
ATOM     27  C   UNL     1       2.936  13.775  17.825  0.00  0.00    +0.000 A 
ATOM     28  C   UNL     1       2.434  12.666  18.514  0.00  0.00    +0.000 A 
ENDBRANCH  22  23
ENDBRANCH   8  22
TORSDOF 4
ENDMDL
MODEL 6
REMARK VINA RESULT:      -6.4      3.696      6.316
REMARK  Name = 
REMARK  5 active torsions:
REMARK  status: ('A' for Active; 'I' for Inactive)
REMARK    1  A    between atoms: C_1  and  C_2
REMARK    2  A    between atoms: C_7  and  S_8
REMARK    3  A    between atoms: S_8  and  C_9
REMARK    4  A    between atoms: N_15  and  C_16
REMARK    5  A    between atoms: C_16  and  C_17
REMARK                            x       y       z     vdW  Elec       q    Type
REMARK                         _______ _______ _______ _____ _____    ______ ____
ROOT
ATOM      1  C   UNL     1       2.858   5.015  18.076  0.00  0.00    +0.000 C 
ATOM      2  C   UNL     1       2.354   6.150  18.924  0.00  0.00    +0.000 A 
ATOM      3  C   UNL     1       1.947   5.987  20.253  0.00  0.00    +0.000 A 
ATOM      4  C   UNL     1       1.495   7.092  21.015  0.00  0.00    +0.000 A 
ATOM      5  C   UNL     1       1.439   8.384  20.473  0.00  0.00    +0.000 A 
ATOM      6  N   UNL     1       0.971   9.490  21.229  0.00  0.00    +0.000 NA
ATOM      7  C   UNL     1       0.653  10.584  20.596  0.00  0.00    +0.000 A 
ATOM      8  N   UNL     1       0.812  10.719  19.217  0.00  0.00    +0.000 N 
ATOM      9  C   UNL     1       1.578   9.803  18.501  0.00  0.00    +0.000 A 
ATOM     10  O   UNL     1       1.983   9.976  17.354  0.00  0.00    +0.000 OA
ATOM     11  C   UNL     1       1.815   8.511  19.143  0.00  0.00    +0.000 A 
ATOM     12  C   UNL     1       2.277   7.428  18.372  0.00  0.00    +0.000 A 
ENDROOT
BRANCH   7  13
ATOM     13  S   UNL     1      -0.209  11.855  21.487  0.00  0.00    +0.000 S 
BRANCH  13  14
ATOM     14  C   UNL     1       0.621  13.405  21.309  0.00  0.00    +0.000 A 
ATOM     15  C   UNL     1       0.180  14.714  21.303  0.00  0.00    +0.000 A 
ATOM     16  N   UNL     1       1.134  15.702  21.064  0.00  0.00    +0.000 NA
ATOM     17  C   UNL     1       2.313  15.165  20.830  0.00  0.00    +0.000 A 
ATOM     18  N   UNL     1       3.403  15.901  20.553  0.00  0.00    +0.000 N 
ATOM     19  S   UNL     1       2.325  13.446  20.910  0.00  0.00    +0.000 S 
ATOM     20  H   UNL     1       3.254  16.890  20.375  0.00  0.00    +0.000 HD
ATOM     21  H   UNL     1       4.155  15.498  19.995  0.00  0.00    +0.000 HD
ENDBRANCH  13  14
ENDBRANCH   7  13
BRANCH   8  22
ATOM     22  C   UNL     1       0.087  11.669  18.373  0.00  0.00    +0.000 C 
BRANCH  22  23
ATOM     23  C   UNL     1      -1.364  11.253  18.146  0.00  0.00    +0.000 A 
ATOM     24  C   UNL     1      -1.641  10.075  17.438  0.00  0.00    +0.000 A 
ATOM     25  C   UNL     1      -2.957   9.653  17.232  0.00  0.00    +0.000 A 
ATOM     26  C   UNL     1      -4.022  10.401  17.727  0.00  0.00    +0.000 A 
ATOM     27  C   UNL     1      -3.770  11.569  18.441  0.00  0.00    +0.000 A 
ATOM     28  C   UNL     1      -2.453  11.988  18.657  0.00  0.00    +0.000 A 
ENDBRANCH  22  23
ENDBRANCH   8  22
TORSDOF 4
ENDMDL
MODEL 7
REMARK VINA RESULT:      -6.4      1.165      1.207
REMARK  Name = 
REMARK  5 active torsions:
REMARK  status: ('A' for Active; 'I' for Inactive)
REMARK    1  A    between atoms: C_1  and  C_2
REMARK    2  A    between atoms: C_7  and  S_8
REMARK    3  A    between atoms: S_8  and  C_9
REMARK    4  A    between atoms: N_15  and  C_16
REMARK    5  A    between atoms: C_16  and  C_17
REMARK                            x       y       z     vdW  Elec       q    Type
REMARK                         _______ _______ _______ _____ _____    ______ ____
ROOT
ATOM      1  C   UNL     1      -3.162  10.007  14.748  0.00  0.00    +0.000 C 
ATOM      2  C   UNL     1      -3.026  10.549  16.144  0.00  0.00    +0.000 A 
ATOM      3  C   UNL     1      -3.986  11.378  16.736  0.00  0.00    +0.000 A 
ATOM      4  C   UNL     1      -3.820  11.850  18.061  0.00  0.00    +0.000 A 
ATOM      5  C   UNL     1      -2.696  11.508  18.827  0.00  0.00    +0.000 A 
ATOM      6  N   UNL     1      -2.519  11.993  20.148  0.00  0.00    +0.000 NA
ATOM      7  C   UNL     1      -1.337  11.900  20.690  0.00  0.00    +0.000 A 
ATOM      8  N   UNL     1      -0.265  11.291  20.037  0.00  0.00    +0.000 N 
ATOM      9  C   UNL     1      -0.479  10.509  18.906  0.00  0.00    +0.000 A 
ATOM     10  O   UNL     1       0.347   9.738  18.424  0.00  0.00    +0.000 OA
ATOM     11  C   UNL     1      -1.744  10.714  18.203  0.00  0.00    +0.000 A 
ATOM     12  C   UNL     1      -1.896  10.226  16.892  0.00  0.00    +0.000 A 
ENDROOT
BRANCH   7  13
ATOM     13  S   UNL     1      -1.034  12.766  22.209  0.00  0.00    +0.000 S 
BRANCH  13  14
ATOM     14  C   UNL     1      -2.554  13.077  23.057  0.00  0.00    +0.000 A 
ATOM     15  C   UNL     1      -3.424  12.263  23.756  0.00  0.00    +0.000 A 
ATOM     16  N   UNL     1      -4.589  12.856  24.244  0.00  0.00    +0.000 NA
ATOM     17  C   UNL     1      -4.656  14.120  23.882  0.00  0.00    +0.000 A 
ATOM     18  N   UNL     1      -5.690  14.913  24.209  0.00  0.00    +0.000 N 
ATOM     19  S   UNL     1      -3.307  14.653  22.956  0.00  0.00    +0.000 S 
ATOM     20  H   UNL     1      -6.502  14.461  24.618  0.00  0.00    +0.000 HD
ATOM     21  H   UNL     1      -5.926  15.707  23.613  0.00  0.00    +0.000 HD
ENDBRANCH  13  14
ENDBRANCH   7  13
BRANCH   8  22
ATOM     22  C   UNL     1       1.148  11.537  20.327  0.00  0.00    +0.000 C 
BRANCH  22  23
ATOM     23  C   UNL     1       1.576  12.958  19.968  0.00  0.00    +0.000 A 
ATOM     24  C   UNL     1       2.575  13.588  20.725  0.00  0.00    +0.000 A 
ATOM     25  C   UNL     1       3.007  14.879  20.411  0.00  0.00    +0.000 A 
ATOM     26  C   UNL     1       2.448  15.566  19.335  0.00  0.00    +0.000 A 
ATOM     27  C   UNL     1       1.463  14.956  18.565  0.00  0.00    +0.000 A 
ATOM     28  C   UNL     1       1.036  13.659  18.873  0.00  0.00    +0.000 A 
ENDBRANCH  22  23
ENDBRANCH   8  22
TORSDOF 4
ENDMDL
MODEL 8
REMARK VINA RESULT:      -6.4      9.625     12.067
REMARK  Name = 
REMARK  5 active torsions:
REMARK  status: ('A' for Active; 'I' for Inactive)
REMARK    1  A    between atoms: C_1  and  C_2
REMARK    2  A    between atoms: C_7  and  S_8
REMARK    3  A    between atoms: S_8  and  C_9
REMARK    4  A    between atoms: N_15  and  C_16
REMARK    5  A    between atoms: C_16  and  C_17
REMARK                            x       y       z     vdW  Elec       q    Type
REMARK                         _______ _______ _______ _____ _____    ______ ____
ROOT
ATOM      1  C   UNL     1       5.395   2.747  11.640  0.00  0.00    +0.000 C 
ATOM      2  C   UNL     1       5.975   3.595  12.738  0.00  0.00    +0.000 A 
ATOM      3  C   UNL     1       7.172   4.307  12.600  0.00  0.00    +0.000 A 
ATOM      4  C   UNL     1       7.669   5.105  13.659  0.00  0.00    +0.000 A 
ATOM      5  C   UNL     1       6.986   5.214  14.879  0.00  0.00    +0.000 A 
ATOM      6  N   UNL     1       7.490   6.000  15.947  0.00  0.00    +0.000 NA
ATOM      7  C   UNL     1       6.989   5.823  17.138  0.00  0.00    +0.000 A 
ATOM      8  N   UNL     1       5.943   4.933  17.380  0.00  0.00    +0.000 N 
ATOM      9  C   UNL     1       5.201   4.411  16.324  0.00  0.00    +0.000 A 
ATOM     10  O   UNL     1       4.122   3.838  16.445  0.00  0.00    +0.000 OA
ATOM     11  C   UNL     1       5.821   4.470  15.002  0.00  0.00    +0.000 A 
ATOM     12  C   UNL     1       5.305   3.680  13.957  0.00  0.00    +0.000 A 
ENDROOT
BRANCH   7  13
ATOM     13  S   UNL     1       7.811   6.574  18.520  0.00  0.00    +0.000 S 
BRANCH  13  14
ATOM     14  C   UNL     1       7.990   8.314  18.260  0.00  0.00    +0.000 A 
ATOM     15  C   UNL     1       7.461   9.185  17.328  0.00  0.00    +0.000 A 
ATOM     16  N   UNL     1       7.889  10.511  17.390  0.00  0.00    +0.000 NA
ATOM     17  C   UNL     1       8.791  10.668  18.335  0.00  0.00    +0.000 A 
ATOM     18  N   UNL     1       9.378  11.850  18.588  0.00  0.00    +0.000 N 
ATOM     19  S   UNL     1       9.147   9.226  19.204  0.00  0.00    +0.000 S 
ATOM     20  H   UNL     1       9.215  12.595  17.918  0.00  0.00    +0.000 HD
ATOM     21  H   UNL     1      10.312  11.872  18.999  0.00  0.00    +0.000 HD
ENDBRANCH  13  14
ENDBRANCH   7  13
BRANCH   8  22
ATOM     22  C   UNL     1       5.634   4.327  18.675  0.00  0.00    +0.000 C 
BRANCH  22  23
ATOM     23  C   UNL     1       4.293   4.798  19.232  0.00  0.00    +0.000 A 
ATOM     24  C   UNL     1       3.479   3.892  19.927  0.00  0.00    +0.000 A 
ATOM     25  C   UNL     1       2.256   4.295  20.470  0.00  0.00    +0.000 A 
ATOM     26  C   UNL     1       1.822   5.610  20.327  0.00  0.00    +0.000 A 
ATOM     27  C   UNL     1       2.618   6.528  19.649  0.00  0.00    +0.000 A 
ATOM     28  C   UNL     1       3.847   6.129  19.113  0.00  0.00    +0.000 A 
ENDBRANCH  22  23
ENDBRANCH   8  22
TORSDOF 4
ENDMDL
MODEL 9
REMARK VINA RESULT:      -6.3      3.521      5.884
REMARK  Name = 
REMARK  5 active torsions:
REMARK  status: ('A' for Active; 'I' for Inactive)
REMARK    1  A    between atoms: C_1  and  C_2
REMARK    2  A    between atoms: C_7  and  S_8
REMARK    3  A    between atoms: S_8  and  C_9
REMARK    4  A    between atoms: N_15  and  C_16
REMARK    5  A    between atoms: C_16  and  C_17
REMARK                            x       y       z     vdW  Elec       q    Type
REMARK                         _______ _______ _______ _____ _____    ______ ____
ROOT
ATOM      1  C   UNL     1       4.032   5.907  17.096  0.00  0.00    +0.000 C 
ATOM      2  C   UNL     1       3.212   6.663  18.104  0.00  0.00    +0.000 A 
ATOM      3  C   UNL     1       2.705   6.076  19.268  0.00  0.00    +0.000 A 
ATOM      4  C   UNL     1       1.951   6.835  20.196  0.00  0.00    +0.000 A 
ATOM      5  C   UNL     1       1.686   8.197  19.987  0.00  0.00    +0.000 A 
ATOM      6  N   UNL     1       0.917   8.956  20.907  0.00  0.00    +0.000 NA
ATOM      7  C   UNL     1       0.449  10.110  20.520  0.00  0.00    +0.000 A 
ATOM      8  N   UNL     1       0.727  10.641  19.261  0.00  0.00    +0.000 N 
ATOM      9  C   UNL     1       1.740  10.101  18.474  0.00  0.00    +0.000 A 
ATOM     10  O   UNL     1       2.224  10.648  17.486  0.00  0.00    +0.000 OA
ATOM     11  C   UNL     1       2.171   8.745  18.808  0.00  0.00    +0.000 A 
ATOM     12  C   UNL     1       2.931   8.010  17.879  0.00  0.00    +0.000 A 
ENDROOT
BRANCH   7  13
ATOM     13  S   UNL     1      -0.752  10.920  21.546  0.00  0.00    +0.000 S 
BRANCH  13  14
ATOM     14  C   UNL     1      -0.248  12.578  21.893  0.00  0.00    +0.000 A 
ATOM     15  C   UNL     1       0.904  13.288  21.620  0.00  0.00    +0.000 A 
ATOM     16  N   UNL     1       0.979  14.589  22.119  0.00  0.00    +0.000 NA
ATOM     17  C   UNL     1      -0.092  14.879  22.827  0.00  0.00    +0.000 A 
ATOM     18  N   UNL     1      -0.260  16.066  23.434  0.00  0.00    +0.000 N 
ATOM     19  S   UNL     1      -1.244  13.603  22.904  0.00  0.00    +0.000 S 
ATOM     20  H   UNL     1       0.544  16.685  23.458  0.00  0.00    +0.000 HD
ATOM     21  H   UNL     1      -0.845  16.128  24.268  0.00  0.00    +0.000 HD
ENDBRANCH  13  14
ENDBRANCH   7  13
BRANCH   8  22
ATOM     22  C   UNL     1      -0.084  11.644  18.572  0.00  0.00    +0.000 C 
BRANCH  22  23
ATOM     23  C   UNL     1      -1.444  11.099  18.143  0.00  0.00    +0.000 A 
ATOM     24  C   UNL     1      -2.612  11.756  18.555  0.00  0.00    +0.000 A 
ATOM     25  C   UNL     1      -3.872  11.297  18.162  0.00  0.00    +0.000 A 
ATOM     26  C   UNL     1      -3.989  10.171  17.351  0.00  0.00    +0.000 A 
ATOM     27  C   UNL     1      -2.843   9.509  16.922  0.00  0.00    +0.000 A 
ATOM     28  C   UNL     1      -1.580   9.973  17.306  0.00  0.00    +0.000 A 
ENDBRANCH  22  23
ENDBRANCH   8  22
TORSDOF 4
ENDMDL
