MODEL 1
REMARK VINA RESULT:      -8.3      0.000      0.000
REMARK  Name = 
REMARK  7 active torsions:
REMARK  status: ('A' for Active; 'I' for Inactive)
REMARK    1  A    between atoms: S_2  and  N_4
REMARK    2  A    between atoms: S_2  and  C_20
REMARK    3  A    between atoms: N_4  and  C_5
REMARK    4  A    between atoms: C_5  and  C_6
REMARK    5  A    between atoms: C_6  and  C_7
REMARK    6  A    between atoms: C_7  and  N_8
REMARK    7  A    between atoms: N_8  and  C_9
REMARK                            x       y       z     vdW  Elec       q    Type
REMARK                         _______ _______ _______ _____ _____    ______ ____
ROOT
ATOM      1  C   UNL     1       1.987   2.583  20.143  0.00  0.00    +0.000 C 
ENDROOT
BRANCH   1   2
ATOM      2  N   UNL     1       3.369   2.882  19.745  0.00  0.00    +0.000 NA
ATOM      3  H   UNL     1       3.831   3.665  20.219  0.00  0.00    +0.000 HD
BRANCH   2   5
ATOM      4  O   UNL     1       4.001   1.706  17.568  0.00  0.00    +0.000 OA
ATOM      5  S   UNL     1       3.650   3.015  18.074  0.00  0.00    +0.000 S 
ATOM      6  O   UNL     1       2.531   3.748  17.519  0.00  0.00    +0.000 OA
BRANCH   5   7
ATOM      7  C   UNL     1       5.080   4.062  17.965  0.00  0.00    +0.000 A 
ATOM      8  C   UNL     1       5.538   4.680  19.141  0.00  0.00    +0.000 A 
ATOM      9  C   UNL     1       6.625   5.541  19.094  0.00  0.00    +0.000 A 
ATOM     10  C   UNL     1       7.239   5.795  17.873  0.00  0.00    +0.000 A 
ATOM     11  C   UNL     1       6.778   5.176  16.699  0.00  0.00    +0.000 A 
ATOM     12  C   UNL     1       7.403   5.455  15.477  0.00  0.00    +0.000 A 
ATOM     13  C   UNL     1       6.950   4.852  14.313  0.00  0.00    +0.000 A 
ATOM     14  C   UNL     1       5.898   3.965  14.418  0.00  0.00    +0.000 A 
ATOM     15  N   UNL     1       5.289   3.648  15.586  0.00  0.00    +0.000 NA
ATOM     16  C   UNL     1       5.689   4.272  16.723  0.00  0.00    +0.000 A 
ENDBRANCH   5   7
ENDBRANCH   2   5
ENDBRANCH   1   2
BRANCH   1  17
ATOM     17  C   UNL     1       1.488   3.579  21.190  0.00  0.00    +0.000 C 
BRANCH  17  18
ATOM     18  C   UNL     1       1.179   4.903  20.492  0.00  0.00    +0.000 C 
BRANCH  18  19
ATOM     19  N   UNL     1       2.309   5.831  20.573  0.00  0.00    +0.000 N 
ATOM     20  H   UNL     1       3.193   5.361  20.410  0.00  0.00    +0.000 HD
BRANCH  19  21
ATOM     21  C   UNL     1       2.203   7.033  19.821  0.00  0.00    +0.000 A 
ATOM     22  C   UNL     1       2.644   7.082  18.493  0.00  0.00    +0.000 A 
ATOM     23  C   UNL     1       2.482   8.239  17.762  0.00  0.00    +0.000 A 
ATOM     24  N   UNL     1       1.880   9.344  18.233  0.00  0.00    +0.000 NA
ATOM     25  C   UNL     1       1.399   9.307  19.483  0.00  0.00    +0.000 A 
ATOM     26  C   UNL     1       0.754  10.448  19.932  0.00  0.00    +0.000 A 
ATOM     27  C   UNL     1       0.219  10.517  21.214  0.00  0.00    +0.000 A 
ATOM     28 CL   UNL     1      -0.578  11.951  21.734  0.00  0.00    +0.000 Cl
ATOM     29  C   UNL     1       0.329   9.437  22.075  0.00  0.00    +0.000 A 
ATOM     30  C   UNL     1       0.976   8.277  21.642  0.00  0.00    +0.000 A 
ATOM     31  C   UNL     1       1.523   8.178  20.336  0.00  0.00    +0.000 A 
ENDBRANCH  19  21
ENDBRANCH  18  19
ENDBRANCH  17  18
ENDBRANCH   1  17
TORSDOF 7
ENDMDL
MODEL 2
REMARK VINA RESULT:      -8.2      0.951      2.028
REMARK  Name = 
REMARK  7 active torsions:
REMARK  status: ('A' for Active; 'I' for Inactive)
REMARK    1  A    between atoms: S_2  and  N_4
REMARK    2  A    between atoms: S_2  and  C_20
REMARK    3  A    between atoms: N_4  and  C_5
REMARK    4  A    between atoms: C_5  and  C_6
REMARK    5  A    between atoms: C_6  and  C_7
REMARK    6  A    between atoms: C_7  and  N_8
REMARK    7  A    between atoms: N_8  and  C_9
REMARK                            x       y       z     vdW  Elec       q    Type
REMARK                         _______ _______ _______ _____ _____    ______ ____
ROOT
ATOM      1  C   UNL     1       2.722   2.763  20.466  0.00  0.00    +0.000 C 
ENDROOT
BRANCH   1   2
ATOM      2  N   UNL     1       3.459   3.536  19.457  0.00  0.00    +0.000 NA
ATOM      3  H   UNL     1       3.282   4.545  19.421  0.00  0.00    +0.000 HD
BRANCH   2   5
ATOM      4  O   UNL     1       3.888   1.552  17.906  0.00  0.00    +0.000 OA
ATOM      5  S   UNL     1       3.420   2.920  17.873  0.00  0.00    +0.000 S 
ATOM      6  O   UNL     1       2.115   3.243  17.332  0.00  0.00    +0.000 OA
BRANCH   5   7
ATOM      7  C   UNL     1       4.616   3.904  17.004  0.00  0.00    +0.000 A 
ATOM      8  C   UNL     1       4.556   3.928  15.601  0.00  0.00    +0.000 A 
ATOM      9  C   UNL     1       5.497   4.649  14.879  0.00  0.00    +0.000 A 
ATOM     10  C   UNL     1       6.503   5.326  15.559  0.00  0.00    +0.000 A 
ATOM     11  C   UNL     1       6.561   5.298  16.963  0.00  0.00    +0.000 A 
ATOM     12  C   UNL     1       7.589   5.976  17.628  0.00  0.00    +0.000 A 
ATOM     13  C   UNL     1       7.656   5.948  19.013  0.00  0.00    +0.000 A 
ATOM     14  C   UNL     1       6.669   5.260  19.688  0.00  0.00    +0.000 A 
ATOM     15  N   UNL     1       5.642   4.618  19.080  0.00  0.00    +0.000 NA
ATOM     16  C   UNL     1       5.596   4.594  17.724  0.00  0.00    +0.000 A 
ENDBRANCH   5   7
ENDBRANCH   2   5
ENDBRANCH   1   2
BRANCH   1  17
ATOM     17  C   UNL     1       1.957   3.687  21.413  0.00  0.00    +0.000 C 
BRANCH  17  18
ATOM     18  C   UNL     1       1.451   4.889  20.616  0.00  0.00    +0.000 C 
BRANCH  18  19
ATOM     19  N   UNL     1       2.190   6.108  20.951  0.00  0.00    +0.000 N 
ATOM     20  H   UNL     1       3.147   5.905  21.216  0.00  0.00    +0.000 HD
BRANCH  19  21
ATOM     21  C   UNL     1       2.115   7.177  20.017  0.00  0.00    +0.000 A 
ATOM     22  C   UNL     1       2.658   7.039  18.734  0.00  0.00    +0.000 A 
ATOM     23  C   UNL     1       2.527   8.066  17.824  0.00  0.00    +0.000 A 
ATOM     24  N   UNL     1       1.865   9.207  18.073  0.00  0.00    +0.000 NA
ATOM     25  C   UNL     1       1.288   9.344  19.274  0.00  0.00    +0.000 A 
ATOM     26  C   UNL     1       0.583  10.516  19.493  0.00  0.00    +0.000 A 
ATOM     27  C   UNL     1      -0.052  10.761  20.706  0.00  0.00    +0.000 A 
ATOM     28 CL   UNL     1      -0.920  12.228  20.938  0.00  0.00    +0.000 Cl
ATOM     29  C   UNL     1       0.015   9.829  21.729  0.00  0.00    +0.000 A 
ATOM     30  C   UNL     1       0.721   8.640  21.529  0.00  0.00    +0.000 A 
ATOM     31  C   UNL     1       1.370   8.363  20.298  0.00  0.00    +0.000 A 
ENDBRANCH  19  21
ENDBRANCH  18  19
ENDBRANCH  17  18
ENDBRANCH   1  17
TORSDOF 7
ENDMDL
MODEL 3
REMARK VINA RESULT:      -7.9      1.350      2.416
REMARK  Name = 
REMARK  7 active torsions:
REMARK  status: ('A' for Active; 'I' for Inactive)
REMARK    1  A    between atoms: S_2  and  N_4
REMARK    2  A    between atoms: S_2  and  C_20
REMARK    3  A    between atoms: N_4  and  C_5
REMARK    4  A    between atoms: C_5  and  C_6
REMARK    5  A    between atoms: C_6  and  C_7
REMARK    6  A    between atoms: C_7  and  N_8
REMARK    7  A    between atoms: N_8  and  C_9
REMARK                            x       y       z     vdW  Elec       q    Type
REMARK                         _______ _______ _______ _____ _____    ______ ____
ROOT
ATOM      1  C   UNL     1       2.604   3.652  20.145  0.00  0.00    +0.000 C 
ENDROOT
BRANCH   1   2
ATOM      2  N   UNL     1       2.859   4.164  18.792  0.00  0.00    +0.000 NA
ATOM      3  H   UNL     1       2.108   4.701  18.348  0.00  0.00    +0.000 HD
BRANCH   2   5
ATOM      4  O   UNL     1       4.069   1.948  18.402  0.00  0.00    +0.000 OA
ATOM      5  S   UNL     1       3.460   3.036  17.670  0.00  0.00    +0.000 S 
ATOM      6  O   UNL     1       2.395   2.786  16.721  0.00  0.00    +0.000 OA
BRANCH   5   7
ATOM      7  C   UNL     1       4.738   3.925  16.816  0.00  0.00    +0.000 A 
ATOM      8  C   UNL     1       4.777   3.841  15.414  0.00  0.00    +0.000 A 
ATOM      9  C   UNL     1       5.784   4.484  14.709  0.00  0.00    +0.000 A 
ATOM     10  C   UNL     1       6.757   5.192  15.405  0.00  0.00    +0.000 A 
ATOM     11  C   UNL     1       6.715   5.273  16.807  0.00  0.00    +0.000 A 
ATOM     12  C   UNL     1       7.712   5.981  17.490  0.00  0.00    +0.000 A 
ATOM     13  C   UNL     1       7.681   6.060  18.874  0.00  0.00    +0.000 A 
ATOM     14  C   UNL     1       6.632   5.447  19.528  0.00  0.00    +0.000 A 
ATOM     15  N   UNL     1       5.635   4.780  18.899  0.00  0.00    +0.000 NA
ATOM     16  C   UNL     1       5.683   4.650  17.549  0.00  0.00    +0.000 A 
ENDBRANCH   5   7
ENDBRANCH   2   5
ENDBRANCH   1   2
BRANCH   1  17
ATOM     17  C   UNL     1       2.077   4.757  21.060  0.00  0.00    +0.000 C 
BRANCH  17  18
ATOM     18  C   UNL     1       1.942   6.041  20.242  0.00  0.00    +0.000 C 
BRANCH  18  19
ATOM     19  N   UNL     1       1.864   7.223  21.103  0.00  0.00    +0.000 N 
ATOM     20  H   UNL     1       2.725   7.370  21.616  0.00  0.00    +0.000 HD
BRANCH  19  21
ATOM     21  C   UNL     1       1.395   8.422  20.500  0.00  0.00    +0.000 A 
ATOM     22  C   UNL     1       1.639   8.679  19.146  0.00  0.00    +0.000 A 
ATOM     23  C   UNL     1       1.130   9.822  18.566  0.00  0.00    +0.000 A 
ATOM     24  N   UNL     1       0.362  10.712  19.215  0.00  0.00    +0.000 NA
ATOM     25  C   UNL     1       0.067  10.463  20.497  0.00  0.00    +0.000 A 
ATOM     26  C   UNL     1      -0.755  11.380  21.133  0.00  0.00    +0.000 A 
ATOM     27  C   UNL     1      -1.122  11.219  22.465  0.00  0.00    +0.000 A 
ATOM     28 CL   UNL     1      -2.146  12.378  23.218  0.00  0.00    +0.000 Cl
ATOM     29  C   UNL     1      -0.663  10.129  23.188  0.00  0.00    +0.000 A 
ATOM     30  C   UNL     1       0.166   9.193  22.566  0.00  0.00    +0.000 A 
ATOM     31  C   UNL     1       0.548   9.330  21.206  0.00  0.00    +0.000 A 
ENDBRANCH  19  21
ENDBRANCH  18  19
ENDBRANCH  17  18
ENDBRANCH   1  17
TORSDOF 7
ENDMDL
MODEL 4
REMARK VINA RESULT:      -7.8      2.752      4.244
REMARK  Name = 
REMARK  7 active torsions:
REMARK  status: ('A' for Active; 'I' for Inactive)
REMARK    1  A    between atoms: S_2  and  N_4
REMARK    2  A    between atoms: S_2  and  C_20
REMARK    3  A    between atoms: N_4  and  C_5
REMARK    4  A    between atoms: C_5  and  C_6
REMARK    5  A    between atoms: C_6  and  C_7
REMARK    6  A    between atoms: C_7  and  N_8
REMARK    7  A    between atoms: N_8  and  C_9
REMARK                            x       y       z     vdW  Elec       q    Type
REMARK                         _______ _______ _______ _____ _____    ______ ____
ROOT
ATOM      1  C   UNL     1       2.105   7.098  19.681  0.00  0.00    +0.000 C 
ENDROOT
BRANCH   1   2
ATOM      2  N   UNL     1       3.046   6.091  20.188  0.00  0.00    +0.000 NA
ATOM      3  H   UNL     1       4.045   6.312  20.123  0.00  0.00    +0.000 HD
BRANCH   2   5
ATOM      4  O   UNL     1       3.227   3.591  20.679  0.00  0.00    +0.000 OA
ATOM      5  S   UNL     1       2.803   4.501  19.639  0.00  0.00    +0.000 S 
ATOM      6  O   UNL     1       1.455   4.444  19.110  0.00  0.00    +0.000 OA
BRANCH   5   7
ATOM      7  C   UNL     1       3.920   4.349  18.267  0.00  0.00    +0.000 A 
ATOM      8  C   UNL     1       3.425   3.810  17.068  0.00  0.00    +0.000 A 
ATOM      9  C   UNL     1       4.274   3.633  15.985  0.00  0.00    +0.000 A 
ATOM     10  C   UNL     1       5.615   3.976  16.108  0.00  0.00    +0.000 A 
ATOM     11  C   UNL     1       6.107   4.514  17.309  0.00  0.00    +0.000 A 
ATOM     12  C   UNL     1       7.465   4.842  17.417  0.00  0.00    +0.000 A 
ATOM     13  C   UNL     1       7.959   5.367  18.601  0.00  0.00    +0.000 A 
ATOM     14  C   UNL     1       7.066   5.572  19.633  0.00  0.00    +0.000 A 
ATOM     15  N   UNL     1       5.743   5.295  19.555  0.00  0.00    +0.000 NA
ATOM     16  C   UNL     1       5.257   4.731  18.420  0.00  0.00    +0.000 A 
ENDBRANCH   5   7
ENDBRANCH   2   5
ENDBRANCH   1   2
BRANCH   1  17
ATOM     17  C   UNL     1       2.452   7.502  18.249  0.00  0.00    +0.000 C 
BRANCH  17  18
ATOM     18  C   UNL     1       2.298   9.018  18.120  0.00  0.00    +0.000 C 
BRANCH  18  19
ATOM     19  N   UNL     1       0.974   9.384  17.612  0.00  0.00    +0.000 N 
ATOM     20  H   UNL     1       0.455   8.571  17.299  0.00  0.00    +0.000 HD
BRANCH  19  21
ATOM     21  C   UNL     1       0.185  10.230  18.438  0.00  0.00    +0.000 A 
ATOM     22  C   UNL     1       0.770  10.940  19.492  0.00  0.00    +0.000 A 
ATOM     23  C   UNL     1      -0.001  11.799  20.247  0.00  0.00    +0.000 A 
ATOM     24  N   UNL     1      -1.301  12.039  20.013  0.00  0.00    +0.000 NA
ATOM     25  C   UNL     1      -1.873  11.414  18.976  0.00  0.00    +0.000 A 
ATOM     26  C   UNL     1      -3.207  11.706  18.737  0.00  0.00    +0.000 A 
ATOM     27  C   UNL     1      -3.899  11.112  17.686  0.00  0.00    +0.000 A 
ATOM     28 CL   UNL     1      -5.553  11.501  17.420  0.00  0.00    +0.000 Cl
ATOM     29  C   UNL     1      -3.260  10.204  16.856  0.00  0.00    +0.000 A 
ATOM     30  C   UNL     1      -1.916   9.896  17.080  0.00  0.00    +0.000 A 
ATOM     31  C   UNL     1      -1.186  10.495  18.139  0.00  0.00    +0.000 A 
ENDBRANCH  19  21
ENDBRANCH  18  19
ENDBRANCH  17  18
ENDBRANCH   1  17
TORSDOF 7
ENDMDL
MODEL 5
REMARK VINA RESULT:      -7.7      5.417      7.387
REMARK  Name = 
REMARK  7 active torsions:
REMARK  status: ('A' for Active; 'I' for Inactive)
REMARK    1  A    between atoms: S_2  and  N_4
REMARK    2  A    between atoms: S_2  and  C_20
REMARK    3  A    between atoms: N_4  and  C_5
REMARK    4  A    between atoms: C_5  and  C_6
REMARK    5  A    between atoms: C_6  and  C_7
REMARK    6  A    between atoms: C_7  and  N_8
REMARK    7  A    between atoms: N_8  and  C_9
REMARK                            x       y       z     vdW  Elec       q    Type
REMARK                         _______ _______ _______ _____ _____    ______ ____
ROOT
ATOM      1  C   UNL     1       7.404   6.901  17.091  0.00  0.00    +0.000 C 
ENDROOT
BRANCH   1   2
ATOM      2  N   UNL     1       5.961   6.691  17.266  0.00  0.00    +0.000 NA
ATOM      3  H   UNL     1       5.449   7.398  17.803  0.00  0.00    +0.000 HD
BRANCH   2   5
ATOM      4  O   UNL     1       5.099   4.363  16.663  0.00  0.00    +0.000 OA
ATOM      5  S   UNL     1       5.493   5.150  17.810  0.00  0.00    +0.000 S 
ATOM      6  O   UNL     1       6.538   4.687  18.701  0.00  0.00    +0.000 OA
BRANCH   5   7
ATOM      7  C   UNL     1       4.052   5.466  18.798  0.00  0.00    +0.000 A 
ATOM      8  C   UNL     1       3.462   6.738  18.718  0.00  0.00    +0.000 A 
ATOM      9  C   UNL     1       2.361   7.043  19.504  0.00  0.00    +0.000 A 
ATOM     10  C   UNL     1       1.865   6.085  20.381  0.00  0.00    +0.000 A 
ATOM     11  C   UNL     1       2.458   4.814  20.460  0.00  0.00    +0.000 A 
ATOM     12  C   UNL     1       1.950   3.866  21.358  0.00  0.00    +0.000 A 
ATOM     13  C   UNL     1       2.535   2.612  21.446  0.00  0.00    +0.000 A 
ATOM     14  C   UNL     1       3.596   2.339  20.607  0.00  0.00    +0.000 A 
ATOM     15  N   UNL     1       4.094   3.219  19.705  0.00  0.00    +0.000 NA
ATOM     16  C   UNL     1       3.565   4.467  19.647  0.00  0.00    +0.000 A 
ENDBRANCH   5   7
ENDBRANCH   2   5
ENDBRANCH   1   2
BRANCH   1  17
ATOM     17  C   UNL     1       8.035   7.467  18.363  0.00  0.00    +0.000 C 
BRANCH  17  18
ATOM     18  C   UNL     1       8.345   8.946  18.135  0.00  0.00    +0.000 C 
BRANCH  18  19
ATOM     19  N   UNL     1       9.142   9.505  19.229  0.00  0.00    +0.000 N 
ATOM     20  H   UNL     1       9.894   8.880  19.501  0.00  0.00    +0.000 HD
BRANCH  19  21
ATOM     21  C   UNL     1       9.597  10.842  19.069  0.00  0.00    +0.000 A 
ATOM     22  C   UNL     1      10.026  11.302  17.819  0.00  0.00    +0.000 A 
ATOM     23  C   UNL     1      10.411  12.618  17.672  0.00  0.00    +0.000 A 
ATOM     24  N   UNL     1      10.367  13.526  18.661  0.00  0.00    +0.000 NA
ATOM     25  C   UNL     1       9.908  13.126  19.854  0.00  0.00    +0.000 A 
ATOM     26  C   UNL     1       9.842  14.091  20.846  0.00  0.00    +0.000 A 
ATOM     27  C   UNL     1       9.382  13.783  22.123  0.00  0.00    +0.000 A 
ATOM     28 CL   UNL     1       9.311  15.009  23.327  0.00  0.00    +0.000 Cl
ATOM     29  C   UNL     1       8.984  12.491  22.428  0.00  0.00    +0.000 A 
ATOM     30  C   UNL     1       9.044  11.503  21.441  0.00  0.00    +0.000 A 
ATOM     31  C   UNL     1       9.501  11.794  20.130  0.00  0.00    +0.000 A 
ENDBRANCH  19  21
ENDBRANCH  18  19
ENDBRANCH  17  18
ENDBRANCH   1  17
TORSDOF 7
ENDMDL
MODEL 6
REMARK VINA RESULT:      -7.6      5.589      7.483
REMARK  Name = 
REMARK  7 active torsions:
REMARK  status: ('A' for Active; 'I' for Inactive)
REMARK    1  A    between atoms: S_2  and  N_4
REMARK    2  A    between atoms: S_2  and  C_20
REMARK    3  A    between atoms: N_4  and  C_5
REMARK    4  A    between atoms: C_5  and  C_6
REMARK    5  A    between atoms: C_6  and  C_7
REMARK    6  A    between atoms: C_7  and  N_8
REMARK    7  A    between atoms: N_8  and  C_9
REMARK                            x       y       z     vdW  Elec       q    Type
REMARK                         _______ _______ _______ _____ _____    ______ ____
ROOT
ATOM      1  C   UNL     1       6.949   7.179  17.463  0.00  0.00    +0.000 C 
ENDROOT
BRANCH   1   2
ATOM      2  N   UNL     1       6.338   5.928  17.931  0.00  0.00    +0.000 NA
ATOM      3  H   UNL     1       6.934   5.292  18.472  0.00  0.00    +0.000 HD
BRANCH   2   5
ATOM      4  O   UNL     1       4.785   5.945  15.903  0.00  0.00    +0.000 OA
ATOM      5  S   UNL     1       5.499   5.025  16.761  0.00  0.00    +0.000 S 
ATOM      6  O   UNL     1       6.446   4.079  16.206  0.00  0.00    +0.000 OA
BRANCH   5   7
ATOM      7  C   UNL     1       4.313   4.101  17.706  0.00  0.00    +0.000 A 
ATOM      8  C   UNL     1       4.217   2.719  17.474  0.00  0.00    +0.000 A 
ATOM      9  C   UNL     1       3.274   1.965  18.158  0.00  0.00    +0.000 A 
ATOM     10  C   UNL     1       2.420   2.596  19.056  0.00  0.00    +0.000 A 
ATOM     11  C   UNL     1       2.518   3.979  19.284  0.00  0.00    +0.000 A 
ATOM     12  C   UNL     1       1.640   4.597  20.184  0.00  0.00    +0.000 A 
ATOM     13  C   UNL     1       1.727   5.962  20.409  0.00  0.00    +0.000 A 
ATOM     14  C   UNL     1       2.714   6.661  19.743  0.00  0.00    +0.000 A 
ATOM     15  N   UNL     1       3.599   6.091  18.890  0.00  0.00    +0.000 NA
ATOM     16  C   UNL     1       3.490   4.766  18.620  0.00  0.00    +0.000 A 
ENDBRANCH   5   7
ENDBRANCH   2   5
ENDBRANCH   1   2
BRANCH   1  17
ATOM     17  C   UNL     1       8.111   7.594  18.365  0.00  0.00    +0.000 C 
BRANCH  17  18
ATOM     18  C   UNL     1       8.359   9.091  18.181  0.00  0.00    +0.000 C 
BRANCH  18  19
ATOM     19  N   UNL     1       9.125   9.652  19.295  0.00  0.00    +0.000 N 
ATOM     20  H   UNL     1       9.776   8.976  19.680  0.00  0.00    +0.000 HD
BRANCH  19  21
ATOM     21  C   UNL     1       9.742  10.913  19.075  0.00  0.00    +0.000 A 
ATOM     22  C   UNL     1      10.287  11.231  17.826  0.00  0.00    +0.000 A 
ATOM     23  C   UNL     1      10.831  12.480  17.615  0.00  0.00    +0.000 A 
ATOM     24  N   UNL     1      10.842  13.456  18.537  0.00  0.00    +0.000 NA
ATOM     25  C   UNL     1      10.277  13.199  19.724  0.00  0.00    +0.000 A 
ATOM     26  C   UNL     1      10.273  14.234  20.645  0.00  0.00    +0.000 A 
ATOM     27  C   UNL     1       9.714  14.074  21.909  0.00  0.00    +0.000 A 
ATOM     28 CL   UNL     1       9.725  15.385  23.023  0.00  0.00    +0.000 Cl
ATOM     29  C   UNL     1       9.152  12.861  22.275  0.00  0.00    +0.000 A 
ATOM     30  C   UNL     1       9.147  11.804  21.361  0.00  0.00    +0.000 A 
ATOM     31  C   UNL     1       9.703  11.945  20.063  0.00  0.00    +0.000 A 
ENDBRANCH  19  21
ENDBRANCH  18  19
ENDBRANCH  17  18
ENDBRANCH   1  17
TORSDOF 7
ENDMDL
MODEL 7
REMARK VINA RESULT:      -7.6      5.719      7.426
REMARK  Name = 
REMARK  7 active torsions:
REMARK  status: ('A' for Active; 'I' for Inactive)
REMARK    1  A    between atoms: S_2  and  N_4
REMARK    2  A    between atoms: S_2  and  C_20
REMARK    3  A    between atoms: N_4  and  C_5
REMARK    4  A    between atoms: C_5  and  C_6
REMARK    5  A    between atoms: C_6  and  C_7
REMARK    6  A    between atoms: C_7  and  N_8
REMARK    7  A    between atoms: N_8  and  C_9
REMARK                            x       y       z     vdW  Elec       q    Type
REMARK                         _______ _______ _______ _____ _____    ______ ____
ROOT
ATOM      1  C   UNL     1       7.777   7.318  17.986  0.00  0.00    +0.000 C 
ENDROOT
BRANCH   1   2
ATOM      2  N   UNL     1       7.391   6.440  16.874  0.00  0.00    +0.000 NA
ATOM      3  H   UNL     1       6.819   6.853  16.130  0.00  0.00    +0.000 HD
BRANCH   2   5
ATOM      4  O   UNL     1       6.585   4.138  16.112  0.00  0.00    +0.000 OA
ATOM      5  S   UNL     1       6.717   4.941  17.308  0.00  0.00    +0.000 S 
ATOM      6  O   UNL     1       7.475   4.457  18.444  0.00  0.00    +0.000 OA
BRANCH   5   7
ATOM      7  C   UNL     1       5.092   5.356  17.890  0.00  0.00    +0.000 A 
ATOM      8  C   UNL     1       4.529   6.571  17.465  0.00  0.00    +0.000 A 
ATOM      9  C   UNL     1       3.279   6.956  17.929  0.00  0.00    +0.000 A 
ATOM     10  C   UNL     1       2.605   6.138  18.828  0.00  0.00    +0.000 A 
ATOM     11  C   UNL     1       3.172   4.924  19.252  0.00  0.00    +0.000 A 
ATOM     12  C   UNL     1       2.482   4.119  20.168  0.00  0.00    +0.000 A 
ATOM     13  C   UNL     1       3.038   2.923  20.595  0.00  0.00    +0.000 A 
ATOM     14  C   UNL     1       4.260   2.559  20.067  0.00  0.00    +0.000 A 
ATOM     15  N   UNL     1       4.941   3.296  19.157  0.00  0.00    +0.000 NA
ATOM     16  C   UNL     1       4.433   4.494  18.772  0.00  0.00    +0.000 A 
ENDBRANCH   5   7
ENDBRANCH   2   5
ENDBRANCH   1   2
BRANCH   1  17
ATOM     17  C   UNL     1       8.046   8.740  17.494  0.00  0.00    +0.000 C 
BRANCH  17  18
ATOM     18  C   UNL     1       8.751   9.514  18.608  0.00  0.00    +0.000 C 
BRANCH  18  19
ATOM     19  N   UNL     1       9.322  10.769  18.115  0.00  0.00    +0.000 N 
ATOM     20  H   UNL     1       8.839  11.100  17.287  0.00  0.00    +0.000 HD
BRANCH  19  21
ATOM     21  C   UNL     1       9.505  11.806  19.070  0.00  0.00    +0.000 A 
ATOM     22  C   UNL     1      10.403  11.644  20.131  0.00  0.00    +0.000 A 
ATOM     23  C   UNL     1      10.609  12.681  21.016  0.00  0.00    +0.000 A 
ATOM     24  N   UNL     1      10.023  13.884  20.907  0.00  0.00    +0.000 NA
ATOM     25  C   UNL     1       9.201  14.086  19.869  0.00  0.00    +0.000 A 
ATOM     26  C   UNL     1       8.636  15.347  19.762  0.00  0.00    +0.000 A 
ATOM     27  C   UNL     1       7.767  15.663  18.723  0.00  0.00    +0.000 A 
ATOM     28 CL   UNL     1       7.088  17.241  18.623  0.00  0.00    +0.000 Cl
ATOM     29  C   UNL     1       7.443  14.710  17.770  0.00  0.00    +0.000 A 
ATOM     30  C   UNL     1       8.002  13.433  17.860  0.00  0.00    +0.000 A 
ATOM     31  C   UNL     1       8.898  13.088  18.905  0.00  0.00    +0.000 A 
ENDBRANCH  19  21
ENDBRANCH  18  19
ENDBRANCH  17  18
ENDBRANCH   1  17
TORSDOF 7
ENDMDL
MODEL 8
REMARK VINA RESULT:      -7.5      2.495      3.528
REMARK  Name = 
REMARK  7 active torsions:
REMARK  status: ('A' for Active; 'I' for Inactive)
REMARK    1  A    between atoms: S_2  and  N_4
REMARK    2  A    between atoms: S_2  and  C_20
REMARK    3  A    between atoms: N_4  and  C_5
REMARK    4  A    between atoms: C_5  and  C_6
REMARK    5  A    between atoms: C_6  and  C_7
REMARK    6  A    between atoms: C_7  and  N_8
REMARK    7  A    between atoms: N_8  and  C_9
REMARK                            x       y       z     vdW  Elec       q    Type
REMARK                         _______ _______ _______ _____ _____    ______ ____
ROOT
ATOM      1  C   UNL     1       2.104   5.891  18.655  0.00  0.00    +0.000 C 
ENDROOT
BRANCH   1   2
ATOM      2  N   UNL     1       2.504   4.706  17.885  0.00  0.00    +0.000 NA
ATOM      3  H   UNL     1       1.753   4.137  17.482  0.00  0.00    +0.000 HD
BRANCH   2   5
ATOM      4  O   UNL     1       3.392   3.708  20.063  0.00  0.00    +0.000 OA
ATOM      5  S   UNL     1       3.626   3.673  18.636  0.00  0.00    +0.000 S 
ATOM      6  O   UNL     1       3.590   2.420  17.911  0.00  0.00    +0.000 OA
BRANCH   5   7
ATOM      7  C   UNL     1       5.195   4.436  18.305  0.00  0.00    +0.000 A 
ATOM      8  C   UNL     1       5.907   4.980  19.387  0.00  0.00    +0.000 A 
ATOM      9  C   UNL     1       7.116   5.623  19.168  0.00  0.00    +0.000 A 
ATOM     10  C   UNL     1       7.601   5.738  17.870  0.00  0.00    +0.000 A 
ATOM     11  C   UNL     1       6.886   5.194  16.790  0.00  0.00    +0.000 A 
ATOM     12  C   UNL     1       7.385   5.330  15.488  0.00  0.00    +0.000 A 
ATOM     13  C   UNL     1       6.681   4.802  14.417  0.00  0.00    +0.000 A 
ATOM     14  C   UNL     1       5.509   4.127  14.690  0.00  0.00    +0.000 A 
ATOM     15  N   UNL     1       5.012   3.949  15.938  0.00  0.00    +0.000 NA
ATOM     16  C   UNL     1       5.663   4.507  16.989  0.00  0.00    +0.000 A 
ENDBRANCH   5   7
ENDBRANCH   2   5
ENDBRANCH   1   2
BRANCH   1  17
ATOM     17  C   UNL     1       2.468   7.177  17.913  0.00  0.00    +0.000 C 
BRANCH  17  18
ATOM     18  C   UNL     1       2.001   8.369  18.748  0.00  0.00    +0.000 C 
BRANCH  18  19
ATOM     19  N   UNL     1       1.257   9.336  17.939  0.00  0.00    +0.000 N 
ATOM     20  H   UNL     1       0.756   8.884  17.182  0.00  0.00    +0.000 HD
BRANCH  19  21
ATOM     21  C   UNL     1       0.435  10.258  18.642  0.00  0.00    +0.000 A 
ATOM     22  C   UNL     1       0.977  11.077  19.639  0.00  0.00    +0.000 A 
ATOM     23  C   UNL     1       0.176  12.005  20.271  0.00  0.00    +0.000 A 
ATOM     24  N   UNL     1      -1.115  12.211  19.964  0.00  0.00    +0.000 NA
ATOM     25  C   UNL     1      -1.646  11.479  18.975  0.00  0.00    +0.000 A 
ATOM     26  C   UNL     1      -2.969  11.736  18.656  0.00  0.00    +0.000 A 
ATOM     27  C   UNL     1      -3.619  11.033  17.647  0.00  0.00    +0.000 A 
ATOM     28 CL   UNL     1      -5.262  11.383  17.279  0.00  0.00    +0.000 Cl
ATOM     29  C   UNL     1      -2.947  10.048  16.940  0.00  0.00    +0.000 A 
ATOM     30  C   UNL     1      -1.612   9.773  17.246  0.00  0.00    +0.000 A 
ATOM     31  C   UNL     1      -0.925  10.483  18.265  0.00  0.00    +0.000 A 
ENDBRANCH  19  21
ENDBRANCH  18  19
ENDBRANCH  17  18
ENDBRANCH   1  17
TORSDOF 7
ENDMDL
MODEL 9
REMARK VINA RESULT:      -7.5      1.804      3.188
REMARK  Name = 
REMARK  7 active torsions:
REMARK  status: ('A' for Active; 'I' for Inactive)
REMARK    1  A    between atoms: S_2  and  N_4
REMARK    2  A    between atoms: S_2  and  C_20
REMARK    3  A    between atoms: N_4  and  C_5
REMARK    4  A    between atoms: C_5  and  C_6
REMARK    5  A    between atoms: C_6  and  C_7
REMARK    6  A    between atoms: C_7  and  N_8
REMARK    7  A    between atoms: N_8  and  C_9
REMARK                            x       y       z     vdW  Elec       q    Type
REMARK                         _______ _______ _______ _____ _____    ______ ____
ROOT
ATOM      1  C   UNL     1       1.971   4.666  19.978  0.00  0.00    +0.000 C 
ENDROOT
BRANCH   1   2
ATOM      2  N   UNL     1       3.327   4.210  20.311  0.00  0.00    +0.000 NA
ATOM      3  H   UNL     1       4.038   4.932  20.462  0.00  0.00    +0.000 HD
BRANCH   2   5
ATOM      4  O   UNL     1       5.004   2.302  20.034  0.00  0.00    +0.000 OA
ATOM      5  S   UNL     1       3.977   3.008  19.300  0.00  0.00    +0.000 S 
ATOM      6  O   UNL     1       2.855   2.294  18.725  0.00  0.00    +0.000 OA
BRANCH   5   7
ATOM      7  C   UNL     1       4.751   3.925  17.992  0.00  0.00    +0.000 A 
ATOM      8  C   UNL     1       4.283   3.732  16.682  0.00  0.00    +0.000 A 
ATOM      9  C   UNL     1       4.887   4.395  15.623  0.00  0.00    +0.000 A 
ATOM     10  C   UNL     1       5.967   5.234  15.874  0.00  0.00    +0.000 A 
ATOM     11  C   UNL     1       6.434   5.425  17.185  0.00  0.00    +0.000 A 
ATOM     12  C   UNL     1       7.531   6.264  17.415  0.00  0.00    +0.000 A 
ATOM     13  C   UNL     1       8.002   6.453  18.706  0.00  0.00    +0.000 A 
ATOM     14  C   UNL     1       7.336   5.811  19.731  0.00  0.00    +0.000 A 
ATOM     15  N   UNL     1       6.254   5.016  19.549  0.00  0.00    +0.000 NA
ATOM     16  C   UNL     1       5.817   4.782  18.286  0.00  0.00    +0.000 A 
ENDBRANCH   5   7
ENDBRANCH   2   5
ENDBRANCH   1   2
BRANCH   1  17
ATOM     17  C   UNL     1       2.000   5.693  18.846  0.00  0.00    +0.000 C 
BRANCH  17  18
ATOM     18  C   UNL     1       2.623   6.984  19.377  0.00  0.00    +0.000 C 
BRANCH  18  19
ATOM     19  N   UNL     1       1.822   8.156  19.018  0.00  0.00    +0.000 N 
ATOM     20  H   UNL     1       1.110   7.928  18.332  0.00  0.00    +0.000 HD
BRANCH  19  21
ATOM     21  C   UNL     1       1.294   8.922  20.093  0.00  0.00    +0.000 A 
ATOM     22  C   UNL     1       1.146   8.355  21.364  0.00  0.00    +0.000 A 
ATOM     23  C   UNL     1       0.684   9.129  22.407  0.00  0.00    +0.000 A 
ATOM     24  N   UNL     1       0.394  10.436  22.298  0.00  0.00    +0.000 NA
ATOM     25  C   UNL     1       0.578  11.018  21.106  0.00  0.00    +0.000 A 
ATOM     26  C   UNL     1       0.303  12.374  21.029  0.00  0.00    +0.000 A 
ATOM     27  C   UNL     1       0.460  13.076  19.839  0.00  0.00    +0.000 A 
ATOM     28 CL   UNL     1       0.110  14.760  19.785  0.00  0.00    +0.000 Cl
ATOM     29  C   UNL     1       0.892  12.423  18.695  0.00  0.00    +0.000 A 
ATOM     30  C   UNL     1       1.175  11.056  18.751  0.00  0.00    +0.000 A 
ATOM     31  C   UNL     1       1.031  10.319  19.955  0.00  0.00    +0.000 A 
ENDBRANCH  19  21
ENDBRANCH  18  19
ENDBRANCH  17  18
ENDBRANCH   1  17
TORSDOF 7
ENDMDL
