MODEL 1
REMARK VINA RESULT:      -6.9      0.000      0.000
REMARK  Name = 
REMARK  14 active torsions:
REMARK  status: ('A' for Active; 'I' for Inactive)
REMARK    1  A    between atoms: C_1  and  C_2
REMARK    2  A    between atoms: C_2  and  O_3
REMARK    3  A    between atoms: O_3  and  C_4
REMARK    4  A    between atoms: C_4  and  C_6
REMARK    5  A    between atoms: C_7  and  C_8
REMARK    6  A    between atoms: C_15  and  C_16
REMARK    7  A    between atoms: C_17  and  C_18
REMARK    8  A    between atoms: C_18  and  S_20
REMARK    9  A    between atoms: S_20  and  C_21
REMARK   10  A    between atoms: C_21  and  C_22
REMARK   11  A    between atoms: C_22  and  O_23
REMARK   12  A    between atoms: O_23  and  C_24
REMARK   13  A    between atoms: C_25  and  C_26
REMARK   14  A    between atoms: C_26  and  C_27
REMARK                            x       y       z     vdW  Elec       q    Type
REMARK                         _______ _______ _______ _____ _____    ______ ____
ROOT
ATOM      1  C   UNL     1       3.208   5.413  18.007  0.00  0.00    +0.000 A 
ATOM      2  C   UNL     1       3.368   6.797  18.181  0.00  0.00    +0.000 A 
ATOM      3  N   UNL     1       4.548   7.386  17.877  0.00  0.00    +0.000 NA
ATOM      4  C   UNL     1       5.586   6.631  17.424  0.00  0.00    +0.000 A 
ATOM      5  C   UNL     1       6.796   7.466  17.077  0.00  0.00    +0.000 C 
ATOM      6  C   UNL     1       5.519   5.231  17.246  0.00  0.00    +0.000 A 
ATOM      7  C   UNL     1       4.291   4.578  17.543  0.00  0.00    +0.000 A 
ENDROOT
BRANCH   2   8
ATOM      8  C   UNL     1       2.338   7.765  18.659  0.00  0.00    +0.000 A 
ATOM      9  C   UNL     1       1.973   7.890  20.012  0.00  0.00    +0.000 A 
ATOM     10  C   UNL     1       0.971   8.778  20.426  0.00  0.00    +0.000 A 
ATOM     11  C   UNL     1       0.340   9.603  19.502  0.00  0.00    +0.000 A 
ATOM     12  C   UNL     1       0.711   9.542  18.164  0.00  0.00    +0.000 A 
ATOM     13  C   UNL     1       1.695   8.635  17.752  0.00  0.00    +0.000 A 
ENDBRANCH   2   8
BRANCH   1  14
ATOM     14  C   UNL     1       1.840   4.876  18.177  0.00  0.00    +0.000 C 
ATOM     15  O   UNL     1       1.091   4.654  17.242  0.00  0.00    +0.000 OA
BRANCH  14  16
ATOM     16  O   UNL     1       1.580   4.690  19.489  0.00  0.00    +0.000 OA
BRANCH  16  18
ATOM     17  C   UNL     1       1.402   2.822  21.120  0.00  0.00    +0.000 C 
ATOM     18  C   UNL     1       0.870   3.485  19.855  0.00  0.00    +0.000 C 
ENDBRANCH  16  18
ENDBRANCH  14  16
ENDBRANCH   1  14
BRANCH   6  19
ATOM     19  C   UNL     1       6.789   4.565  16.838  0.00  0.00    +0.000 C 
ATOM     20  O   UNL     1       7.455   3.971  17.675  0.00  0.00    +0.000 OA
BRANCH  19  21
ATOM     21  S   UNL     1       7.369   4.751  15.188  0.00  0.00    +0.000 S 
BRANCH  21  22
ATOM     22  C   UNL     1       5.966   3.966  14.286  0.00  0.00    +0.000 C 
BRANCH  22  23
ATOM     23  C   UNL     1       6.275   3.760  12.799  0.00  0.00    +0.000 C 
BRANCH  23  24
ATOM     24  O   UNL     1       5.195   3.052  12.184  0.00  0.00    +0.000 OA
ATOM     25  C   UNL     1       5.643   1.940  11.421  0.00  0.00    +0.000 C 
ENDBRANCH  23  24
ENDBRANCH  22  23
ENDBRANCH  21  22
ENDBRANCH  19  21
ENDBRANCH   6  19
BRANCH   7  26
ATOM     26  C   UNL     1       3.998   3.109  17.252  0.00  0.00    +0.000 C 
ATOM     27  C   UNL     1       3.912   2.053  18.349  0.00  0.00    +0.000 C 
ENDBRANCH   7  26
TORSDOF 10
ENDMDL
MODEL 2
REMARK VINA RESULT:      -6.2      1.089      1.163
REMARK  Name = 
REMARK  14 active torsions:
REMARK  status: ('A' for Active; 'I' for Inactive)
REMARK    1  A    between atoms: C_1  and  C_2
REMARK    2  A    between atoms: C_2  and  O_3
REMARK    3  A    between atoms: O_3  and  C_4
REMARK    4  A    between atoms: C_4  and  C_6
REMARK    5  A    between atoms: C_7  and  C_8
REMARK    6  A    between atoms: C_15  and  C_16
REMARK    7  A    between atoms: C_17  and  C_18
REMARK    8  A    between atoms: C_18  and  S_20
REMARK    9  A    between atoms: S_20  and  C_21
REMARK   10  A    between atoms: C_21  and  C_22
REMARK   11  A    between atoms: C_22  and  O_23
REMARK   12  A    between atoms: O_23  and  C_24
REMARK   13  A    between atoms: C_25  and  C_26
REMARK   14  A    between atoms: C_26  and  C_27
REMARK                            x       y       z     vdW  Elec       q    Type
REMARK                         _______ _______ _______ _____ _____    ______ ____
ROOT
ATOM      1  C   UNL     1       3.192   5.338  18.667  0.00  0.00    +0.000 A 
ATOM      2  C   UNL     1       3.138   6.697  18.319  0.00  0.00    +0.000 A 
ATOM      3  N   UNL     1       3.960   7.184  17.359  0.00  0.00    +0.000 NA
ATOM      4  C   UNL     1       4.851   6.358  16.747  0.00  0.00    +0.000 A 
ATOM      5  C   UNL     1       5.634   7.059  15.662  0.00  0.00    +0.000 C 
ATOM      6  C   UNL     1       4.989   4.985  17.055  0.00  0.00    +0.000 A 
ATOM      7  C   UNL     1       4.136   4.435  18.050  0.00  0.00    +0.000 A 
ENDROOT
BRANCH   2   8
ATOM      8  C   UNL     1       2.222   7.732  18.883  0.00  0.00    +0.000 A 
ATOM      9  C   UNL     1       1.903   7.808  20.251  0.00  0.00    +0.000 A 
ATOM     10  C   UNL     1       1.005   8.764  20.745  0.00  0.00    +0.000 A 
ATOM     11  C   UNL     1       0.439   9.703  19.891  0.00  0.00    +0.000 A 
ATOM     12  C   UNL     1       0.772   9.688  18.542  0.00  0.00    +0.000 A 
ATOM     13  C   UNL     1       1.650   8.715  18.048  0.00  0.00    +0.000 A 
ENDBRANCH   2   8
BRANCH   1  14
ATOM     14  C   UNL     1       2.139   4.845  19.582  0.00  0.00    +0.000 C 
ATOM     15  O   UNL     1       1.012   4.567  19.211  0.00  0.00    +0.000 OA
BRANCH  14  16
ATOM     16  O   UNL     1       2.625   4.766  20.839  0.00  0.00    +0.000 OA
BRANCH  16  18
ATOM     17  C   UNL     1       2.653   2.382  21.544  0.00  0.00    +0.000 C 
ATOM     18  C   UNL     1       2.041   3.769  21.708  0.00  0.00    +0.000 C 
ENDBRANCH  16  18
ENDBRANCH  14  16
ENDBRANCH   1  14
BRANCH   6  19
ATOM     19  C   UNL     1       6.090   4.268  16.350  0.00  0.00    +0.000 C 
ATOM     20  O   UNL     1       7.240   4.379  16.757  0.00  0.00    +0.000 OA
BRANCH  19  21
ATOM     21  S   UNL     1       5.735   3.377  14.876  0.00  0.00    +0.000 S 
BRANCH  21  22
ATOM     22  C   UNL     1       6.832   4.286  13.705  0.00  0.00    +0.000 C 
BRANCH  22  23
ATOM     23  C   UNL     1       6.572   3.895  12.246  0.00  0.00    +0.000 C 
BRANCH  23  24
ATOM     24  O   UNL     1       5.611   2.837  12.202  0.00  0.00    +0.000 OA
ATOM     25  C   UNL     1       4.478   3.169  11.409  0.00  0.00    +0.000 C 
ENDBRANCH  23  24
ENDBRANCH  22  23
ENDBRANCH  21  22
ENDBRANCH  19  21
ENDBRANCH   6  19
BRANCH   7  26
ATOM     26  C   UNL     1       4.039   2.949  18.384  0.00  0.00    +0.000 C 
ATOM     27  C   UNL     1       3.029   2.020  17.720  0.00  0.00    +0.000 C 
ENDBRANCH   7  26
TORSDOF 10
ENDMDL
MODEL 3
REMARK VINA RESULT:      -6.2      1.089      1.370
REMARK  Name = 
REMARK  14 active torsions:
REMARK  status: ('A' for Active; 'I' for Inactive)
REMARK    1  A    between atoms: C_1  and  C_2
REMARK    2  A    between atoms: C_2  and  O_3
REMARK    3  A    between atoms: O_3  and  C_4
REMARK    4  A    between atoms: C_4  and  C_6
REMARK    5  A    between atoms: C_7  and  C_8
REMARK    6  A    between atoms: C_15  and  C_16
REMARK    7  A    between atoms: C_17  and  C_18
REMARK    8  A    between atoms: C_18  and  S_20
REMARK    9  A    between atoms: S_20  and  C_21
REMARK   10  A    between atoms: C_21  and  C_22
REMARK   11  A    between atoms: C_22  and  O_23
REMARK   12  A    between atoms: O_23  and  C_24
REMARK   13  A    between atoms: C_25  and  C_26
REMARK   14  A    between atoms: C_26  and  C_27
REMARK                            x       y       z     vdW  Elec       q    Type
REMARK                         _______ _______ _______ _____ _____    ______ ____
ROOT
ATOM      1  C   UNL     1       3.373   5.442  18.912  0.00  0.00    +0.000 A 
ATOM      2  C   UNL     1       3.172   6.743  18.421  0.00  0.00    +0.000 A 
ATOM      3  N   UNL     1       3.868   7.175  17.344  0.00  0.00    +0.000 NA
ATOM      4  C   UNL     1       4.777   6.356  16.749  0.00  0.00    +0.000 A 
ATOM      5  C   UNL     1       5.405   6.983  15.528  0.00  0.00    +0.000 C 
ATOM      6  C   UNL     1       5.059   5.044  17.194  0.00  0.00    +0.000 A 
ATOM      7  C   UNL     1       4.341   4.550  18.317  0.00  0.00    +0.000 A 
ENDROOT
BRANCH   2   8
ATOM      8  C   UNL     1       2.216   7.761  18.947  0.00  0.00    +0.000 A 
ATOM      9  C   UNL     1       1.847   7.838  20.302  0.00  0.00    +0.000 A 
ATOM     10  C   UNL     1       0.914   8.778  20.759  0.00  0.00    +0.000 A 
ATOM     11  C   UNL     1       0.359   9.701  19.880  0.00  0.00    +0.000 A 
ATOM     12  C   UNL     1       0.740   9.687  18.544  0.00  0.00    +0.000 A 
ATOM     13  C   UNL     1       1.654   8.728  18.086  0.00  0.00    +0.000 A 
ENDBRANCH   2   8
BRANCH   1  14
ATOM     14  C   UNL     1       2.444   4.980  19.967  0.00  0.00    +0.000 C 
ATOM     15  O   UNL     1       2.703   5.046  21.155  0.00  0.00    +0.000 OA
BRANCH  14  16
ATOM     16  O   UNL     1       1.318   4.491  19.405  0.00  0.00    +0.000 OA
BRANCH  16  18
ATOM     17  C   UNL     1       0.528   2.199  18.852  0.00  0.00    +0.000 C 
ATOM     18  C   UNL     1       0.812   3.241  19.927  0.00  0.00    +0.000 C 
ENDBRANCH  16  18
ENDBRANCH  14  16
ENDBRANCH   1  14
BRANCH   6  19
ATOM     19  C   UNL     1       6.159   4.337  16.478  0.00  0.00    +0.000 C 
ATOM     20  O   UNL     1       7.321   4.536  16.810  0.00  0.00    +0.000 OA
BRANCH  19  21
ATOM     21  S   UNL     1       5.776   3.328  15.089  0.00  0.00    +0.000 S 
BRANCH  21  22
ATOM     22  C   UNL     1       6.583   4.323  13.764  0.00  0.00    +0.000 C 
BRANCH  22  23
ATOM     23  C   UNL     1       6.543   3.617  12.403  0.00  0.00    +0.000 C 
BRANCH  23  24
ATOM     24  O   UNL     1       5.372   2.798  12.329  0.00  0.00    +0.000 OA
ATOM     25  C   UNL     1       4.427   3.292  11.389  0.00  0.00    +0.000 C 
ENDBRANCH  23  24
ENDBRANCH  22  23
ENDBRANCH  21  22
ENDBRANCH  19  21
ENDBRANCH   6  19
BRANCH   7  26
ATOM     26  C   UNL     1       4.403   3.111  18.821  0.00  0.00    +0.000 C 
ATOM     27  C   UNL     1       3.803   1.941  18.048  0.00  0.00    +0.000 C 
ENDBRANCH   7  26
TORSDOF 10
ENDMDL
MODEL 4
REMARK VINA RESULT:      -6.2      1.864      3.245
REMARK  Name = 
REMARK  14 active torsions:
REMARK  status: ('A' for Active; 'I' for Inactive)
REMARK    1  A    between atoms: C_1  and  C_2
REMARK    2  A    between atoms: C_2  and  O_3
REMARK    3  A    between atoms: O_3  and  C_4
REMARK    4  A    between atoms: C_4  and  C_6
REMARK    5  A    between atoms: C_7  and  C_8
REMARK    6  A    between atoms: C_15  and  C_16
REMARK    7  A    between atoms: C_17  and  C_18
REMARK    8  A    between atoms: C_18  and  S_20
REMARK    9  A    between atoms: S_20  and  C_21
REMARK   10  A    between atoms: C_21  and  C_22
REMARK   11  A    between atoms: C_22  and  O_23
REMARK   12  A    between atoms: O_23  and  C_24
REMARK   13  A    between atoms: C_25  and  C_26
REMARK   14  A    between atoms: C_26  and  C_27
REMARK                            x       y       z     vdW  Elec       q    Type
REMARK                         _______ _______ _______ _____ _____    ______ ____
ROOT
ATOM      1  C   UNL     1       3.087   5.416  18.665  0.00  0.00    +0.000 A 
ATOM      2  C   UNL     1       2.985   6.756  18.261  0.00  0.00    +0.000 A 
ATOM      3  N   UNL     1       3.758   7.219  17.250  0.00  0.00    +0.000 NA
ATOM      4  C   UNL     1       4.649   6.390  16.642  0.00  0.00    +0.000 A 
ATOM      5  C   UNL     1       5.373   7.061  15.499  0.00  0.00    +0.000 C 
ATOM      6  C   UNL     1       4.834   5.036  17.005  0.00  0.00    +0.000 A 
ATOM      7  C   UNL     1       4.032   4.510  18.054  0.00  0.00    +0.000 A 
ENDROOT
BRANCH   2   8
ATOM      8  C   UNL     1       2.063   7.792  18.812  0.00  0.00    +0.000 A 
ATOM      9  C   UNL     1       1.359   8.701  18.002  0.00  0.00    +0.000 A 
ATOM     10  C   UNL     1       0.533   9.691  18.551  0.00  0.00    +0.000 A 
ATOM     11  C   UNL     1       0.350   9.768  19.927  0.00  0.00    +0.000 A 
ATOM     12  C   UNL     1       0.990   8.853  20.754  0.00  0.00    +0.000 A 
ATOM     13  C   UNL     1       1.835   7.882  20.203  0.00  0.00    +0.000 A 
ENDBRANCH   2   8
BRANCH   1  14
ATOM     14  C   UNL     1       2.082   4.938  19.640  0.00  0.00    +0.000 C 
ATOM     15  O   UNL     1       0.934   4.667  19.333  0.00  0.00    +0.000 OA
BRANCH  14  16
ATOM     16  O   UNL     1       2.634   4.865  20.870  0.00  0.00    +0.000 OA
BRANCH  16  18
ATOM     17  C   UNL     1       2.589   2.469  21.535  0.00  0.00    +0.000 C 
ATOM     18  C   UNL     1       2.083   3.886  21.781  0.00  0.00    +0.000 C 
ENDBRANCH  16  18
ENDBRANCH  14  16
ENDBRANCH   1  14
BRANCH   6  19
ATOM     19  C   UNL     1       5.927   4.316  16.292  0.00  0.00    +0.000 C 
ATOM     20  O   UNL     1       5.650   3.557  15.372  0.00  0.00    +0.000 OA
BRANCH  19  21
ATOM     21  S   UNL     1       7.582   4.474  16.866  0.00  0.00    +0.000 S 
BRANCH  21  22
ATOM     22  C   UNL     1       7.258   5.244  18.509  0.00  0.00    +0.000 C 
BRANCH  22  23
ATOM     23  C   UNL     1       8.054   6.539  18.710  0.00  0.00    +0.000 C 
BRANCH  23  24
ATOM     24  O   UNL     1       7.661   7.495  17.721  0.00  0.00    +0.000 OA
ATOM     25  C   UNL     1       8.192   8.788  17.980  0.00  0.00    +0.000 C 
ENDBRANCH  23  24
ENDBRANCH  22  23
ENDBRANCH  21  22
ENDBRANCH  19  21
ENDBRANCH   6  19
BRANCH   7  26
ATOM     26  C   UNL     1       3.987   3.039  18.456  0.00  0.00    +0.000 C 
ATOM     27  C   UNL     1       3.082   2.023  17.766  0.00  0.00    +0.000 C 
ENDBRANCH   7  26
TORSDOF 10
ENDMDL
MODEL 5
REMARK VINA RESULT:      -6.1      2.434      4.363
REMARK  Name = 
REMARK  14 active torsions:
REMARK  status: ('A' for Active; 'I' for Inactive)
REMARK    1  A    between atoms: C_1  and  C_2
REMARK    2  A    between atoms: C_2  and  O_3
REMARK    3  A    between atoms: O_3  and  C_4
REMARK    4  A    between atoms: C_4  and  C_6
REMARK    5  A    between atoms: C_7  and  C_8
REMARK    6  A    between atoms: C_15  and  C_16
REMARK    7  A    between atoms: C_17  and  C_18
REMARK    8  A    between atoms: C_18  and  S_20
REMARK    9  A    between atoms: S_20  and  C_21
REMARK   10  A    between atoms: C_21  and  C_22
REMARK   11  A    between atoms: C_22  and  O_23
REMARK   12  A    between atoms: O_23  and  C_24
REMARK   13  A    between atoms: C_25  and  C_26
REMARK   14  A    between atoms: C_26  and  C_27
REMARK                            x       y       z     vdW  Elec       q    Type
REMARK                         _______ _______ _______ _____ _____    ______ ____
ROOT
ATOM      1  C   UNL     1       1.400   7.985  20.183  0.00  0.00    +0.000 A 
ATOM      2  C   UNL     1       1.507   9.011  19.230  0.00  0.00    +0.000 A 
ATOM      3  N   UNL     1       2.264   8.830  18.122  0.00  0.00    +0.000 NA
ATOM      4  C   UNL     1       2.938   7.662  17.944  0.00  0.00    +0.000 A 
ATOM      5  C   UNL     1       3.673   7.616  16.625  0.00  0.00    +0.000 C 
ATOM      6  C   UNL     1       2.907   6.589  18.864  0.00  0.00    +0.000 A 
ATOM      7  C   UNL     1       2.114   6.737  20.035  0.00  0.00    +0.000 A 
ENDROOT
BRANCH   2   8
ATOM      8  C   UNL     1       0.835  10.342  19.268  0.00  0.00    +0.000 A 
ATOM      9  C   UNL     1       1.438  11.490  19.814  0.00  0.00    +0.000 A 
ATOM     10  C   UNL     1       0.765  12.718  19.874  0.00  0.00    +0.000 A 
ATOM     11  C   UNL     1      -0.514  12.844  19.345  0.00  0.00    +0.000 A 
ATOM     12  C   UNL     1      -1.120  11.742  18.753  0.00  0.00    +0.000 A 
ATOM     13  C   UNL     1      -0.454  10.511  18.717  0.00  0.00    +0.000 A 
ENDBRANCH   2   8
BRANCH   1  14
ATOM     14  C   UNL     1       0.410   8.183  21.264  0.00  0.00    +0.000 C 
ATOM     15  O   UNL     1      -0.722   7.736  21.219  0.00  0.00    +0.000 OA
BRANCH  14  16
ATOM     16  O   UNL     1       0.957   8.914  22.258  0.00  0.00    +0.000 OA
BRANCH  16  18
ATOM     17  C   UNL     1      -0.665  10.729  22.765  0.00  0.00    +0.000 C 
ATOM     18  C   UNL     1       0.053   9.471  23.239  0.00  0.00    +0.000 C 
ENDBRANCH  16  18
ENDBRANCH  14  16
ENDBRANCH   1  14
BRANCH   6  19
ATOM     19  C   UNL     1       3.790   5.432  18.544  0.00  0.00    +0.000 C 
ATOM     20  O   UNL     1       3.346   4.496  17.892  0.00  0.00    +0.000 OA
BRANCH  19  21
ATOM     21  S   UNL     1       5.415   5.375  19.214  0.00  0.00    +0.000 S 
BRANCH  21  22
ATOM     22  C   UNL     1       6.239   4.359  17.916  0.00  0.00    +0.000 C 
BRANCH  22  23
ATOM     23  C   UNL     1       7.404   5.102  17.251  0.00  0.00    +0.000 C 
BRANCH  23  24
ATOM     24  O   UNL     1       7.594   4.596  15.927  0.00  0.00    +0.000 OA
ATOM     25  C   UNL     1       6.535   4.962  15.052  0.00  0.00    +0.000 C 
ENDBRANCH  23  24
ENDBRANCH  22  23
ENDBRANCH  21  22
ENDBRANCH  19  21
ENDBRANCH   6  19
BRANCH   7  26
ATOM     26  C   UNL     1       1.839   5.624  21.042  0.00  0.00    +0.000 C 
ATOM     27  C   UNL     1       1.135   4.325  20.662  0.00  0.00    +0.000 C 
ENDBRANCH   7  26
TORSDOF 10
ENDMDL
MODEL 6
REMARK VINA RESULT:      -6.1      2.924      4.791
REMARK  Name = 
REMARK  14 active torsions:
REMARK  status: ('A' for Active; 'I' for Inactive)
REMARK    1  A    between atoms: C_1  and  C_2
REMARK    2  A    between atoms: C_2  and  O_3
REMARK    3  A    between atoms: O_3  and  C_4
REMARK    4  A    between atoms: C_4  and  C_6
REMARK    5  A    between atoms: C_7  and  C_8
REMARK    6  A    between atoms: C_15  and  C_16
REMARK    7  A    between atoms: C_17  and  C_18
REMARK    8  A    between atoms: C_18  and  S_20
REMARK    9  A    between atoms: S_20  and  C_21
REMARK   10  A    between atoms: C_21  and  C_22
REMARK   11  A    between atoms: C_22  and  O_23
REMARK   12  A    between atoms: O_23  and  C_24
REMARK   13  A    between atoms: C_25  and  C_26
REMARK   14  A    between atoms: C_26  and  C_27
REMARK                            x       y       z     vdW  Elec       q    Type
REMARK                         _______ _______ _______ _____ _____    ______ ____
ROOT
ATOM      1  C   UNL     1       1.477   7.909  20.143  0.00  0.00    +0.000 A 
ATOM      2  C   UNL     1       1.588   8.926  19.181  0.00  0.00    +0.000 A 
ATOM      3  N   UNL     1       2.351   8.736  18.080  0.00  0.00    +0.000 NA
ATOM      4  C   UNL     1       3.027   7.567  17.916  0.00  0.00    +0.000 A 
ATOM      5  C   UNL     1       3.770   7.510  16.602  0.00  0.00    +0.000 C 
ATOM      6  C   UNL     1       2.993   6.503  18.847  0.00  0.00    +0.000 A 
ATOM      7  C   UNL     1       2.193   6.661  20.012  0.00  0.00    +0.000 A 
ENDROOT
BRANCH   2   8
ATOM      8  C   UNL     1       0.914  10.257  19.202  0.00  0.00    +0.000 A 
ATOM      9  C   UNL     1      -0.413  10.450  18.778  0.00  0.00    +0.000 A 
ATOM     10  C   UNL     1      -1.006  11.720  18.768  0.00  0.00    +0.000 A 
ATOM     11  C   UNL     1      -0.303  12.827  19.230  0.00  0.00    +0.000 A 
ATOM     12  C   UNL     1       0.993  12.664  19.704  0.00  0.00    +0.000 A 
ATOM     13  C   UNL     1       1.591  11.397  19.687  0.00  0.00    +0.000 A 
ENDBRANCH   2   8
BRANCH   1  14
ATOM     14  C   UNL     1       0.481   8.117  21.217  0.00  0.00    +0.000 C 
ATOM     15  O   UNL     1      -0.642   7.647  21.182  0.00  0.00    +0.000 OA
BRANCH  14  16
ATOM     16  O   UNL     1       1.011   8.885  22.193  0.00  0.00    +0.000 OA
BRANCH  16  18
ATOM     17  C   UNL     1      -0.546  10.760  22.684  0.00  0.00    +0.000 C 
ATOM     18  C   UNL     1       0.093   9.457  23.151  0.00  0.00    +0.000 C 
ENDBRANCH  16  18
ENDBRANCH  14  16
ENDBRANCH   1  14
BRANCH   6  19
ATOM     19  C   UNL     1       3.879   5.344  18.543  0.00  0.00    +0.000 C 
ATOM     20  O   UNL     1       3.458   4.427  17.849  0.00  0.00    +0.000 OA
BRANCH  19  21
ATOM     21  S   UNL     1       5.469   5.255  19.289  0.00  0.00    +0.000 S 
BRANCH  21  22
ATOM     22  C   UNL     1       6.517   5.483  17.790  0.00  0.00    +0.000 C 
BRANCH  22  23
ATOM     23  C   UNL     1       7.659   6.478  18.026  0.00  0.00    +0.000 C 
BRANCH  23  24
ATOM     24  O   UNL     1       7.512   7.587  17.135  0.00  0.00    +0.000 OA
ATOM     25  C   UNL     1       7.916   8.814  17.730  0.00  0.00    +0.000 C 
ENDBRANCH  23  24
ENDBRANCH  22  23
ENDBRANCH  21  22
ENDBRANCH  19  21
ENDBRANCH   6  19
BRANCH   7  26
ATOM     26  C   UNL     1       1.914   5.558  21.028  0.00  0.00    +0.000 C 
ATOM     27  C   UNL     1       1.181   4.270  20.666  0.00  0.00    +0.000 C 
ENDBRANCH   7  26
TORSDOF 10
ENDMDL
MODEL 7
REMARK VINA RESULT:      -6.0      2.342      4.132
REMARK  Name = 
REMARK  14 active torsions:
REMARK  status: ('A' for Active; 'I' for Inactive)
REMARK    1  A    between atoms: C_1  and  C_2
REMARK    2  A    between atoms: C_2  and  O_3
REMARK    3  A    between atoms: O_3  and  C_4
REMARK    4  A    between atoms: C_4  and  C_6
REMARK    5  A    between atoms: C_7  and  C_8
REMARK    6  A    between atoms: C_15  and  C_16
REMARK    7  A    between atoms: C_17  and  C_18
REMARK    8  A    between atoms: C_18  and  S_20
REMARK    9  A    between atoms: S_20  and  C_21
REMARK   10  A    between atoms: C_21  and  C_22
REMARK   11  A    between atoms: C_22  and  O_23
REMARK   12  A    between atoms: O_23  and  C_24
REMARK   13  A    between atoms: C_25  and  C_26
REMARK   14  A    between atoms: C_26  and  C_27
REMARK                            x       y       z     vdW  Elec       q    Type
REMARK                         _______ _______ _______ _____ _____    ______ ____
ROOT
ATOM      1  C   UNL     1       1.763   7.801  19.914  0.00  0.00    +0.000 A 
ATOM      2  C   UNL     1       1.824   8.765  18.895  0.00  0.00    +0.000 A 
ATOM      3  N   UNL     1       2.583   8.542  17.797  0.00  0.00    +0.000 NA
ATOM      4  C   UNL     1       3.304   7.393  17.692  0.00  0.00    +0.000 A 
ATOM      5  C   UNL     1       4.035   7.291  16.374  0.00  0.00    +0.000 C 
ATOM      6  C   UNL     1       3.321   6.384  18.681  0.00  0.00    +0.000 A 
ATOM      7  C   UNL     1       2.527   6.576  19.845  0.00  0.00    +0.000 A 
ENDROOT
BRANCH   2   8
ATOM      8  C   UNL     1       1.097  10.067  18.849  0.00  0.00    +0.000 A 
ATOM      9  C   UNL     1      -0.274  10.169  18.552  0.00  0.00    +0.000 A 
ATOM     10  C   UNL     1      -0.921  11.410  18.474  0.00  0.00    +0.000 A 
ATOM     11  C   UNL     1      -0.223  12.583  18.737  0.00  0.00    +0.000 A 
ATOM     12  C   UNL     1       1.122  12.515  19.083  0.00  0.00    +0.000 A 
ATOM     13  C   UNL     1       1.770  11.275  19.135  0.00  0.00    +0.000 A 
ENDBRANCH   2   8
BRANCH   1  14
ATOM     14  C   UNL     1       0.770   8.030  20.986  0.00  0.00    +0.000 C 
ATOM     15  O   UNL     1      -0.340   7.527  20.983  0.00  0.00    +0.000 OA
BRANCH  14  16
ATOM     16  O   UNL     1       1.285   8.857  21.920  0.00  0.00    +0.000 OA
BRANCH  16  18
ATOM     17  C   UNL     1      -0.314  10.721  22.306  0.00  0.00    +0.000 C 
ATOM     18  C   UNL     1       0.356   9.464  22.847  0.00  0.00    +0.000 C 
ENDBRANCH  16  18
ENDBRANCH  14  16
ENDBRANCH   1  14
BRANCH   6  19
ATOM     19  C   UNL     1       4.250   5.245  18.433  0.00  0.00    +0.000 C 
ATOM     20  O   UNL     1       3.898   4.325  17.706  0.00  0.00    +0.000 OA
BRANCH  19  21
ATOM     21  S   UNL     1       5.786   5.182  19.287  0.00  0.00    +0.000 S 
BRANCH  21  22
ATOM     22  C   UNL     1       6.869   5.963  18.016  0.00  0.00    +0.000 C 
BRANCH  22  23
ATOM     23  C   UNL     1       7.310   4.966  16.938  0.00  0.00    +0.000 C 
BRANCH  23  24
ATOM     24  O   UNL     1       7.309   5.616  15.664  0.00  0.00    +0.000 OA
ATOM     25  C   UNL     1       6.657   4.842  14.664  0.00  0.00    +0.000 C 
ENDBRANCH  23  24
ENDBRANCH  22  23
ENDBRANCH  21  22
ENDBRANCH  19  21
ENDBRANCH   6  19
BRANCH   7  26
ATOM     26  C   UNL     1       2.303   5.522  20.925  0.00  0.00    +0.000 C 
ATOM     27  C   UNL     1       1.399   4.311  20.719  0.00  0.00    +0.000 C 
ENDBRANCH   7  26
TORSDOF 10
ENDMDL
MODEL 8
REMARK VINA RESULT:      -6.0      2.518      4.136
REMARK  Name = 
REMARK  14 active torsions:
REMARK  status: ('A' for Active; 'I' for Inactive)
REMARK    1  A    between atoms: C_1  and  C_2
REMARK    2  A    between atoms: C_2  and  O_3
REMARK    3  A    between atoms: O_3  and  C_4
REMARK    4  A    between atoms: C_4  and  C_6
REMARK    5  A    between atoms: C_7  and  C_8
REMARK    6  A    between atoms: C_15  and  C_16
REMARK    7  A    between atoms: C_17  and  C_18
REMARK    8  A    between atoms: C_18  and  S_20
REMARK    9  A    between atoms: S_20  and  C_21
REMARK   10  A    between atoms: C_21  and  C_22
REMARK   11  A    between atoms: C_22  and  O_23
REMARK   12  A    between atoms: O_23  and  C_24
REMARK   13  A    between atoms: C_25  and  C_26
REMARK   14  A    between atoms: C_26  and  C_27
REMARK                            x       y       z     vdW  Elec       q    Type
REMARK                         _______ _______ _______ _____ _____    ______ ____
ROOT
ATOM      1  C   UNL     1       1.392   8.000  20.237  0.00  0.00    +0.000 A 
ATOM      2  C   UNL     1       1.479   9.007  19.263  0.00  0.00    +0.000 A 
ATOM      3  N   UNL     1       2.258   8.827  18.170  0.00  0.00    +0.000 NA
ATOM      4  C   UNL     1       2.973   7.678  18.028  0.00  0.00    +0.000 A 
ATOM      5  C   UNL     1       3.730   7.628  16.722  0.00  0.00    +0.000 C 
ATOM      6  C   UNL     1       2.963   6.626  18.973  0.00  0.00    +0.000 A 
ATOM      7  C   UNL     1       2.148   6.773  20.128  0.00  0.00    +0.000 A 
ENDROOT
BRANCH   2   8
ATOM      8  C   UNL     1       0.763  10.316  19.260  0.00  0.00    +0.000 A 
ATOM      9  C   UNL     1       1.327  11.499  19.769  0.00  0.00    +0.000 A 
ATOM     10  C   UNL     1       0.614  12.705  19.792  0.00  0.00    +0.000 A 
ATOM     11  C   UNL     1      -0.669  12.772  19.261  0.00  0.00    +0.000 A 
ATOM     12  C   UNL     1      -1.238  11.633  18.704  0.00  0.00    +0.000 A 
ATOM     13  C   UNL     1      -0.531  10.424  18.706  0.00  0.00    +0.000 A 
ENDBRANCH   2   8
BRANCH   1  14
ATOM     14  C   UNL     1       0.379   8.189  21.299  0.00  0.00    +0.000 C 
ATOM     15  O   UNL     1      -0.751   7.740  21.227  0.00  0.00    +0.000 OA
BRANCH  14  16
ATOM     16  O   UNL     1       0.904   8.916  22.308  0.00  0.00    +0.000 OA
BRANCH  16  18
ATOM     17  C   UNL     1      -0.703  10.761  22.751  0.00  0.00    +0.000 C 
ATOM     18  C   UNL     1      -0.025   9.492  23.255  0.00  0.00    +0.000 C 
ENDBRANCH  16  18
ENDBRANCH  14  16
ENDBRANCH   1  14
BRANCH   6  19
ATOM     19  C   UNL     1       3.889   5.492  18.693  0.00  0.00    +0.000 C 
ATOM     20  O   UNL     1       5.003   5.481  19.202  0.00  0.00    +0.000 OA
BRANCH  19  21
ATOM     21  S   UNL     1       3.413   4.254  17.538  0.00  0.00    +0.000 S 
BRANCH  21  22
ATOM     22  C   UNL     1       5.070   3.830  16.851  0.00  0.00    +0.000 C 
BRANCH  22  23
ATOM     23  C   UNL     1       5.280   4.404  15.445  0.00  0.00    +0.000 C 
BRANCH  23  24
ATOM     24  O   UNL     1       6.271   3.632  14.761  0.00  0.00    +0.000 OA
ATOM     25  C   UNL     1       6.238   3.836  13.355  0.00  0.00    +0.000 C 
ENDBRANCH  23  24
ENDBRANCH  22  23
ENDBRANCH  21  22
ENDBRANCH  19  21
ENDBRANCH   6  19
BRANCH   7  26
ATOM     26  C   UNL     1       1.895   5.675  21.156  0.00  0.00    +0.000 C 
ATOM     27  C   UNL     1       1.293   4.323  20.786  0.00  0.00    +0.000 C 
ENDBRANCH   7  26
TORSDOF 10
ENDMDL
MODEL 9
REMARK VINA RESULT:      -6.0      1.867      3.267
REMARK  Name = 
REMARK  14 active torsions:
REMARK  status: ('A' for Active; 'I' for Inactive)
REMARK    1  A    between atoms: C_1  and  C_2
REMARK    2  A    between atoms: C_2  and  O_3
REMARK    3  A    between atoms: O_3  and  C_4
REMARK    4  A    between atoms: C_4  and  C_6
REMARK    5  A    between atoms: C_7  and  C_8
REMARK    6  A    between atoms: C_15  and  C_16
REMARK    7  A    between atoms: C_17  and  C_18
REMARK    8  A    between atoms: C_18  and  S_20
REMARK    9  A    between atoms: S_20  and  C_21
REMARK   10  A    between atoms: C_21  and  C_22
REMARK   11  A    between atoms: C_22  and  O_23
REMARK   12  A    between atoms: O_23  and  C_24
REMARK   13  A    between atoms: C_25  and  C_26
REMARK   14  A    between atoms: C_26  and  C_27
REMARK                            x       y       z     vdW  Elec       q    Type
REMARK                         _______ _______ _______ _____ _____    ______ ____
ROOT
ATOM      1  C   UNL     1       3.137   5.366  18.935  0.00  0.00    +0.000 A 
ATOM      2  C   UNL     1       2.985   6.694  18.503  0.00  0.00    +0.000 A 
ATOM      3  N   UNL     1       3.648   7.129  17.406  0.00  0.00    +0.000 NA
ATOM      4  C   UNL     1       4.479   6.285  16.735  0.00  0.00    +0.000 A 
ATOM      5  C   UNL     1       5.078   6.923  15.505  0.00  0.00    +0.000 C 
ATOM      6  C   UNL     1       4.709   4.943  17.117  0.00  0.00    +0.000 A 
ATOM      7  C   UNL     1       4.022   4.446  18.258  0.00  0.00    +0.000 A 
ENDROOT
BRANCH   2   8
ATOM      8  C   UNL     1       2.117   7.742  19.114  0.00  0.00    +0.000 A 
ATOM      9  C   UNL     1       1.460   8.729  18.358  0.00  0.00    +0.000 A 
ATOM     10  C   UNL     1       0.685   9.727  18.964  0.00  0.00    +0.000 A 
ATOM     11  C   UNL     1       0.505   9.736  20.343  0.00  0.00    +0.000 A 
ATOM     12  C   UNL     1       1.099   8.745  21.116  0.00  0.00    +0.000 A 
ATOM     13  C   UNL     1       1.893   7.765  20.508  0.00  0.00    +0.000 A 
ENDBRANCH   2   8
BRANCH   1  14
ATOM     14  C   UNL     1       2.240   4.915  20.021  0.00  0.00    +0.000 C 
ATOM     15  O   UNL     1       2.548   4.954  21.198  0.00  0.00    +0.000 OA
BRANCH  14  16
ATOM     16  O   UNL     1       1.077   4.469  19.499  0.00  0.00    +0.000 OA
BRANCH  16  18
ATOM     17  C   UNL     1       0.668   2.079  18.947  0.00  0.00    +0.000 C 
ATOM     18  C   UNL     1       0.586   3.197  19.980  0.00  0.00    +0.000 C 
ENDBRANCH  16  18
ENDBRANCH  14  16
ENDBRANCH   1  14
BRANCH   6  19
ATOM     19  C   UNL     1       5.730   4.206  16.319  0.00  0.00    +0.000 C 
ATOM     20  O   UNL     1       5.390   3.235  15.655  0.00  0.00    +0.000 OA
BRANCH  19  21
ATOM     21  S   UNL     1       7.422   4.669  16.443  0.00  0.00    +0.000 S 
BRANCH  21  22
ATOM     22  C   UNL     1       7.568   4.784  18.277  0.00  0.00    +0.000 C 
BRANCH  22  23
ATOM     23  C   UNL     1       7.706   6.232  18.758  0.00  0.00    +0.000 C 
BRANCH  23  24
ATOM     24  O   UNL     1       8.174   7.047  17.680  0.00  0.00    +0.000 OA
ATOM     25  C   UNL     1       7.835   8.417  17.852  0.00  0.00    +0.000 C 
ENDBRANCH  23  24
ENDBRANCH  22  23
ENDBRANCH  21  22
ENDBRANCH  19  21
ENDBRANCH   6  19
BRANCH   7  26
ATOM     26  C   UNL     1       4.028   2.988  18.707  0.00  0.00    +0.000 C 
ATOM     27  C   UNL     1       4.720   2.522  19.984  0.00  0.00    +0.000 C 
ENDBRANCH   7  26
TORSDOF 10
ENDMDL
