MODEL 1
REMARK VINA RESULT:      -8.4      0.000      0.000
REMARK  Name = 
REMARK  15 active torsions:
REMARK  status: ('A' for Active; 'I' for Inactive)
REMARK    1  A    between atoms: C_4  and  C_5
REMARK    2  A    between atoms: C_10  and  C_11
REMARK    3  A    between atoms: C_15  and  C_16
REMARK    4  A    between atoms: C_16  and  C_17
REMARK    5  A    between atoms: C_16  and  C_18
REMARK    6  A    between atoms: C_18  and  C_19
REMARK    7  A    between atoms: C_19  and  C_20
REMARK    8  A    between atoms: C_20  and  C_21
REMARK    9  A    between atoms: C_21  and  O_22
REMARK   10  A    between atoms: C_21  and  C_23
REMARK   11  A    between atoms: C_21  and  C_25
REMARK   12  A    between atoms: C_23  and  C_24
REMARK   13  A    between atoms: C_25  and  C_26
REMARK   14  A    between atoms: C_28  and  O_29
REMARK   15  A    between atoms: C_31  and  O_32
REMARK                            x       y       z     vdW  Elec       q    Type
REMARK                         _______ _______ _______ _____ _____    ______ ____
ROOT
ATOM      1  C   UNL     1       1.402   6.556  20.937  0.00  0.00    +0.000 C 
ATOM      2  C   UNL     1       2.096   5.519  20.433  0.00  0.00    +0.000 C 
ATOM      3  C   UNL     1       1.955   4.130  21.060  0.00  0.00    +0.000 C 
ATOM      4  C   UNL     1       1.761   3.001  20.032  0.00  0.00    +0.000 C 
ATOM      5  C   UNL     1       2.777   3.048  18.872  0.00  0.00    +0.000 C 
ATOM      6  C   UNL     1       2.838   4.456  18.230  0.00  0.00    +0.000 C 
ATOM      7  C   UNL     1       1.480   4.674  17.502  0.00  0.00    +0.000 C 
ATOM      8  C   UNL     1       3.141   5.491  19.348  0.00  0.00    +0.000 C 
ATOM      9  C   UNL     1       3.784   6.708  18.678  0.00  0.00    +0.000 C 
ATOM     10  C   UNL     1       4.073   6.288  17.241  0.00  0.00    +0.000 C 
ATOM     11  C   UNL     1       3.974   4.748  17.199  0.00  0.00    +0.000 C 
ENDROOT
BRANCH   1  15
ATOM     12  C   UNL     1       0.549  10.399  19.048  0.00  0.00    +0.000 C 
ATOM     13  C   UNL     1       0.387  10.213  20.367  0.00  0.00    +0.000 C 
ATOM     14  C   UNL     1       0.496   8.870  20.973  0.00  0.00    +0.000 C 
ATOM     15  C   UNL     1       1.371   7.940  20.522  0.00  0.00    +0.000 C 
ATOM     16  C   UNL     1      -0.453   8.571  22.129  0.00  0.00    +0.000 C 
ATOM     17  C   UNL     1      -0.769   9.755  23.051  0.00  0.00    +0.000 C 
ATOM     18  C   UNL     1      -1.117  10.998  22.254  0.00  0.00    +0.000 C 
ATOM     19  C   UNL     1       0.017  11.370  21.304  0.00  0.00    +0.000 C 
BRANCH  17  20
ATOM     20  O   UNL     1       0.300  10.036  23.954  0.00  0.00    +0.000 OA
ATOM     21  H   UNL     1       0.276   9.392  24.684  0.00  0.00    +0.000 HD
ENDBRANCH  17  20
BRANCH  19  22
ATOM     22  O   UNL     1      -0.402  12.521  20.565  0.00  0.00    +0.000 OA
ATOM     23  H   UNL     1      -1.035  12.214  19.894  0.00  0.00    +0.000 HD
ENDBRANCH  19  22
ENDBRANCH   1  15
BRANCH  11  24
ATOM     24  C   UNL     1       5.336   4.016  17.374  0.00  0.00    +0.000 C 
ATOM     25  C   UNL     1       6.100   4.270  18.678  0.00  0.00    +0.000 C 
BRANCH  24  26
ATOM     26  C   UNL     1       6.259   4.323  16.164  0.00  0.00    +0.000 C 
BRANCH  26  27
ATOM     27  C   UNL     1       5.644   4.025  14.794  0.00  0.00    +0.000 C 
BRANCH  27  28
ATOM     28  C   UNL     1       6.687   3.581  13.764  0.00  0.00    +0.000 C 
BRANCH  28  29
ATOM     29  C   UNL     1       6.156   3.434  12.321  0.00  0.00    +0.000 C 
BRANCH  29  30
ATOM     30  O   UNL     1       6.427   2.094  11.888  0.00  0.00    +0.000 OA
ATOM     31  H   UNL     1       7.362   2.040  11.632  0.00  0.00    +0.000 HD
ENDBRANCH  29  30
BRANCH  29  32
ATOM     32  C   UNL     1       4.630   3.665  12.205  0.00  0.00    +0.000 C 
ATOM     33  C   UNL     1       3.971   3.190  10.917  0.00  0.00    +0.000 C 
ENDBRANCH  29  32
BRANCH  29  34
ATOM     34  C   UNL     1       6.988   4.376  11.421  0.00  0.00    +0.000 C 
ATOM     35  C   UNL     1       7.798   5.419  12.178  0.00  0.00    +0.000 C 
ENDBRANCH  29  34
ENDBRANCH  28  29
ENDBRANCH  27  28
ENDBRANCH  26  27
ENDBRANCH  24  26
ENDBRANCH  11  24
TORSDOF 11
ENDMDL
MODEL 2
REMARK VINA RESULT:      -8.3      0.950      1.444
REMARK  Name = 
REMARK  15 active torsions:
REMARK  status: ('A' for Active; 'I' for Inactive)
REMARK    1  A    between atoms: C_4  and  C_5
REMARK    2  A    between atoms: C_10  and  C_11
REMARK    3  A    between atoms: C_15  and  C_16
REMARK    4  A    between atoms: C_16  and  C_17
REMARK    5  A    between atoms: C_16  and  C_18
REMARK    6  A    between atoms: C_18  and  C_19
REMARK    7  A    between atoms: C_19  and  C_20
REMARK    8  A    between atoms: C_20  and  C_21
REMARK    9  A    between atoms: C_21  and  O_22
REMARK   10  A    between atoms: C_21  and  C_23
REMARK   11  A    between atoms: C_21  and  C_25
REMARK   12  A    between atoms: C_23  and  C_24
REMARK   13  A    between atoms: C_25  and  C_26
REMARK   14  A    between atoms: C_28  and  O_29
REMARK   15  A    between atoms: C_31  and  O_32
REMARK                            x       y       z     vdW  Elec       q    Type
REMARK                         _______ _______ _______ _____ _____    ______ ____
ROOT
ATOM      1  C   UNL     1       1.865   6.447  20.676  0.00  0.00    +0.000 C 
ATOM      2  C   UNL     1       2.560   5.431  20.133  0.00  0.00    +0.000 C 
ATOM      3  C   UNL     1       2.478   4.033  20.750  0.00  0.00    +0.000 C 
ATOM      4  C   UNL     1       2.268   2.910  19.720  0.00  0.00    +0.000 C 
ATOM      5  C   UNL     1       3.233   2.991  18.520  0.00  0.00    +0.000 C 
ATOM      6  C   UNL     1       3.235   4.407  17.890  0.00  0.00    +0.000 C 
ATOM      7  C   UNL     1       1.843   4.600  17.221  0.00  0.00    +0.000 C 
ATOM      8  C   UNL     1       3.561   5.438  19.006  0.00  0.00    +0.000 C 
ATOM      9  C   UNL     1       4.147   6.675  18.323  0.00  0.00    +0.000 C 
ATOM     10  C   UNL     1       4.386   6.277  16.871  0.00  0.00    +0.000 C 
ATOM     11  C   UNL     1       4.321   4.735  16.817  0.00  0.00    +0.000 C 
ENDROOT
BRANCH   1  15
ATOM     12  C   UNL     1       0.871  10.281  18.837  0.00  0.00    +0.000 C 
ATOM     13  C   UNL     1       0.725  10.075  20.155  0.00  0.00    +0.000 C 
ATOM     14  C   UNL     1       0.882   8.729  20.745  0.00  0.00    +0.000 C 
ATOM     15  C   UNL     1       1.785   7.834  20.277  0.00  0.00    +0.000 C 
ATOM     16  C   UNL     1      -0.048   8.385  21.903  0.00  0.00    +0.000 C 
ATOM     17  C   UNL     1      -0.397   9.547  22.841  0.00  0.00    +0.000 C 
ATOM     18  C   UNL     1      -0.792  10.788  22.060  0.00  0.00    +0.000 C 
ATOM     19  C   UNL     1       0.324  11.207  21.108  0.00  0.00    +0.000 C 
BRANCH  17  20
ATOM     20  O   UNL     1       0.669   9.853  23.741  0.00  0.00    +0.000 OA
ATOM     21  H   UNL     1       1.412  10.230  23.237  0.00  0.00    +0.000 HD
ENDBRANCH  17  20
BRANCH  19  22
ATOM     22  O   UNL     1      -0.139  12.353  20.385  0.00  0.00    +0.000 OA
ATOM     23  H   UNL     1       0.166  12.251  19.467  0.00  0.00    +0.000 HD
ENDBRANCH  19  22
ENDBRANCH   1  15
BRANCH  11  24
ATOM     24  C   UNL     1       5.705   4.033  16.927  0.00  0.00    +0.000 C 
ATOM     25  C   UNL     1       6.679   4.578  17.978  0.00  0.00    +0.000 C 
BRANCH  24  26
ATOM     26  C   UNL     1       6.399   4.012  15.539  0.00  0.00    +0.000 C 
BRANCH  26  27
ATOM     27  C   UNL     1       5.523   4.486  14.376  0.00  0.00    +0.000 C 
BRANCH  27  28
ATOM     28  C   UNL     1       5.014   3.328  13.513  0.00  0.00    +0.000 C 
BRANCH  28  29
ATOM     29  C   UNL     1       5.621   3.256  12.094  0.00  0.00    +0.000 C 
BRANCH  29  30
ATOM     30  O   UNL     1       6.813   4.051  12.086  0.00  0.00    +0.000 OA
ATOM     31  H   UNL     1       6.574   4.954  11.820  0.00  0.00    +0.000 HD
ENDBRANCH  29  30
BRANCH  29  32
ATOM     32  C   UNL     1       6.013   1.819  11.670  0.00  0.00    +0.000 C 
ATOM     33  C   UNL     1       7.356   1.665  10.969  0.00  0.00    +0.000 C 
ENDBRANCH  29  32
BRANCH  29  34
ATOM     34  C   UNL     1       4.622   3.928  11.125  0.00  0.00    +0.000 C 
ATOM     35  C   UNL     1       3.350   3.130  10.876  0.00  0.00    +0.000 C 
ENDBRANCH  29  34
ENDBRANCH  28  29
ENDBRANCH  27  28
ENDBRANCH  26  27
ENDBRANCH  24  26
ENDBRANCH  11  24
TORSDOF 11
ENDMDL
MODEL 3
REMARK VINA RESULT:      -7.8      0.732      1.368
REMARK  Name = 
REMARK  15 active torsions:
REMARK  status: ('A' for Active; 'I' for Inactive)
REMARK    1  A    between atoms: C_4  and  C_5
REMARK    2  A    between atoms: C_10  and  C_11
REMARK    3  A    between atoms: C_15  and  C_16
REMARK    4  A    between atoms: C_16  and  C_17
REMARK    5  A    between atoms: C_16  and  C_18
REMARK    6  A    between atoms: C_18  and  C_19
REMARK    7  A    between atoms: C_19  and  C_20
REMARK    8  A    between atoms: C_20  and  C_21
REMARK    9  A    between atoms: C_21  and  O_22
REMARK   10  A    between atoms: C_21  and  C_23
REMARK   11  A    between atoms: C_21  and  C_25
REMARK   12  A    between atoms: C_23  and  C_24
REMARK   13  A    between atoms: C_25  and  C_26
REMARK   14  A    between atoms: C_28  and  O_29
REMARK   15  A    between atoms: C_31  and  O_32
REMARK                            x       y       z     vdW  Elec       q    Type
REMARK                         _______ _______ _______ _____ _____    ______ ____
ROOT
ATOM      1  C   UNL     1       1.463   6.541  20.927  0.00  0.00    +0.000 C 
ATOM      2  C   UNL     1       2.129   5.516  20.364  0.00  0.00    +0.000 C 
ATOM      3  C   UNL     1       2.000   4.109  20.950  0.00  0.00    +0.000 C 
ATOM      4  C   UNL     1       1.760   3.015  19.895  0.00  0.00    +0.000 C 
ATOM      5  C   UNL     1       2.733   3.092  18.701  0.00  0.00    +0.000 C 
ATOM      6  C   UNL     1       2.782   4.520  18.102  0.00  0.00    +0.000 C 
ATOM      7  C   UNL     1       1.401   4.771  17.432  0.00  0.00    +0.000 C 
ATOM      8  C   UNL     1       3.135   5.517  19.242  0.00  0.00    +0.000 C 
ATOM      9  C   UNL     1       3.763   6.750  18.588  0.00  0.00    +0.000 C 
ATOM     10  C   UNL     1       3.996   6.375  17.129  0.00  0.00    +0.000 C 
ATOM     11  C   UNL     1       3.883   4.838  17.041  0.00  0.00    +0.000 C 
ENDROOT
BRANCH   1  15
ATOM     12  C   UNL     1       0.597  10.443  19.168  0.00  0.00    +0.000 C 
ATOM     13  C   UNL     1       0.439  10.213  20.481  0.00  0.00    +0.000 C 
ATOM     14  C   UNL     1       0.552   8.851  21.042  0.00  0.00    +0.000 C 
ATOM     15  C   UNL     1       1.428   7.938  20.558  0.00  0.00    +0.000 C 
ATOM     16  C   UNL     1      -0.394   8.511  22.189  0.00  0.00    +0.000 C 
ATOM     17  C   UNL     1      -0.710   9.663  23.151  0.00  0.00    +0.000 C 
ATOM     18  C   UNL     1      -1.062  10.932  22.397  0.00  0.00    +0.000 C 
ATOM     19  C   UNL     1       0.070  11.337  21.457  0.00  0.00    +0.000 C 
BRANCH  17  20
ATOM     20  O   UNL     1       0.361   9.916  24.061  0.00  0.00    +0.000 OA
ATOM     21  H   UNL     1       0.983  10.544  23.653  0.00  0.00    +0.000 HD
ENDBRANCH  17  20
BRANCH  19  22
ATOM     22  O   UNL     1      -0.354  12.512  20.758  0.00  0.00    +0.000 OA
ATOM     23  H   UNL     1      -0.277  12.320  19.808  0.00  0.00    +0.000 HD
ENDBRANCH  19  22
ENDBRANCH   1  15
BRANCH  11  24
ATOM     24  C   UNL     1       5.245   4.091  17.142  0.00  0.00    +0.000 C 
ATOM     25  C   UNL     1       5.990   4.182  18.478  0.00  0.00    +0.000 C 
BRANCH  24  26
ATOM     26  C   UNL     1       6.183   4.546  15.992  0.00  0.00    +0.000 C 
BRANCH  26  27
ATOM     27  C   UNL     1       5.587   4.417  14.588  0.00  0.00    +0.000 C 
BRANCH  27  28
ATOM     28  C   UNL     1       6.227   3.286  13.778  0.00  0.00    +0.000 C 
BRANCH  28  29
ATOM     29  C   UNL     1       5.999   3.365  12.252  0.00  0.00    +0.000 C 
BRANCH  29  30
ATOM     30  O   UNL     1       4.714   3.960  12.031  0.00  0.00    +0.000 OA
ATOM     31  H   UNL     1       4.044   3.258  12.067  0.00  0.00    +0.000 HD
ENDBRANCH  29  30
BRANCH  29  32
ATOM     32  C   UNL     1       7.050   4.237  11.522  0.00  0.00    +0.000 C 
ATOM     33  C   UNL     1       7.752   5.294  12.363  0.00  0.00    +0.000 C 
ENDBRANCH  29  32
BRANCH  29  34
ATOM     34  C   UNL     1       5.926   1.917  11.717  0.00  0.00    +0.000 C 
ATOM     35  C   UNL     1       7.152   1.472  10.933  0.00  0.00    +0.000 C 
ENDBRANCH  29  34
ENDBRANCH  28  29
ENDBRANCH  27  28
ENDBRANCH  26  27
ENDBRANCH  24  26
ENDBRANCH  11  24
TORSDOF 11
ENDMDL
MODEL 4
REMARK VINA RESULT:      -7.6      3.631     11.480
REMARK  Name = 
REMARK  15 active torsions:
REMARK  status: ('A' for Active; 'I' for Inactive)
REMARK    1  A    between atoms: C_4  and  C_5
REMARK    2  A    between atoms: C_10  and  C_11
REMARK    3  A    between atoms: C_15  and  C_16
REMARK    4  A    between atoms: C_16  and  C_17
REMARK    5  A    between atoms: C_16  and  C_18
REMARK    6  A    between atoms: C_18  and  C_19
REMARK    7  A    between atoms: C_19  and  C_20
REMARK    8  A    between atoms: C_20  and  C_21
REMARK    9  A    between atoms: C_21  and  O_22
REMARK   10  A    between atoms: C_21  and  C_23
REMARK   11  A    between atoms: C_21  and  C_25
REMARK   12  A    between atoms: C_23  and  C_24
REMARK   13  A    between atoms: C_25  and  C_26
REMARK   14  A    between atoms: C_28  and  O_29
REMARK   15  A    between atoms: C_31  and  O_32
REMARK                            x       y       z     vdW  Elec       q    Type
REMARK                         _______ _______ _______ _____ _____    ______ ____
ROOT
ATOM      1  C   UNL     1       1.193   7.907  21.003  0.00  0.00    +0.000 C 
ATOM      2  C   UNL     1       0.248   8.813  21.312  0.00  0.00    +0.000 C 
ATOM      3  C   UNL     1      -0.291   8.896  22.742  0.00  0.00    +0.000 C 
ATOM      4  C   UNL     1      -0.381  10.331  23.289  0.00  0.00    +0.000 C 
ATOM      5  C   UNL     1      -1.068  11.315  22.320  0.00  0.00    +0.000 C 
ATOM      6  C   UNL     1      -0.447  11.239  20.903  0.00  0.00    +0.000 C 
ATOM      7  C   UNL     1       0.993  11.819  21.014  0.00  0.00    +0.000 C 
ATOM      8  C   UNL     1      -0.509   9.763  20.420  0.00  0.00    +0.000 C 
ATOM      9  C   UNL     1      -0.483   9.784  18.890  0.00  0.00    +0.000 C 
ATOM     10  C   UNL     1      -0.651  11.246  18.490  0.00  0.00    +0.000 C 
ATOM     11  C   UNL     1      -1.168  11.992  19.740  0.00  0.00    +0.000 C 
ENDROOT
BRANCH   1  15
ATOM     12  C   UNL     1       4.025   7.380  17.721  0.00  0.00    +0.000 C 
ATOM     13  C   UNL     1       3.301   6.355  18.196  0.00  0.00    +0.000 C 
ATOM     14  C   UNL     1       2.486   6.491  19.421  0.00  0.00    +0.000 C 
ATOM     15  C   UNL     1       1.846   7.642  19.741  0.00  0.00    +0.000 C 
ATOM     16  C   UNL     1       2.420   5.268  20.329  0.00  0.00    +0.000 C 
ATOM     17  C   UNL     1       2.427   3.911  19.615  0.00  0.00    +0.000 C 
ATOM     18  C   UNL     1       3.509   3.851  18.553  0.00  0.00    +0.000 C 
ATOM     19  C   UNL     1       3.332   4.972  17.533  0.00  0.00    +0.000 C 
BRANCH  17  20
ATOM     20  O   UNL     1       1.158   3.597  19.040  0.00  0.00    +0.000 OA
ATOM     21  H   UNL     1       0.828   2.769  19.432  0.00  0.00    +0.000 HD
ENDBRANCH  17  20
BRANCH  19  22
ATOM     22  O   UNL     1       4.407   4.872  16.594  0.00  0.00    +0.000 OA
ATOM     23  H   UNL     1       4.311   5.612  15.971  0.00  0.00    +0.000 HD
ENDBRANCH  19  22
ENDBRANCH   1  15
BRANCH  11  24
ATOM     24  C   UNL     1      -2.716  12.138  19.802  0.00  0.00    +0.000 C 
ATOM     25  C   UNL     1      -3.491  11.881  18.505  0.00  0.00    +0.000 C 
BRANCH  24  26
ATOM     26  C   UNL     1      -3.091  13.536  20.362  0.00  0.00    +0.000 C 
BRANCH  26  27
ATOM     27  C   UNL     1      -4.548  13.679  20.811  0.00  0.00    +0.000 C 
BRANCH  27  28
ATOM     28  C   UNL     1      -4.962  12.597  21.814  0.00  0.00    +0.000 C 
BRANCH  28  29
ATOM     29  C   UNL     1      -5.056  13.070  23.282  0.00  0.00    +0.000 C 
BRANCH  29  30
ATOM     30  O   UNL     1      -6.020  12.244  23.949  0.00  0.00    +0.000 OA
ATOM     31  H   UNL     1      -5.616  11.904  24.764  0.00  0.00    +0.000 HD
ENDBRANCH  29  30
BRANCH  29  32
ATOM     32  C   UNL     1      -3.718  12.943  24.051  0.00  0.00    +0.000 C 
ATOM     33  C   UNL     1      -3.030  14.247  24.428  0.00  0.00    +0.000 C 
ENDBRANCH  29  32
BRANCH  29  34
ATOM     34  C   UNL     1      -5.622  14.508  23.272  0.00  0.00    +0.000 C 
ATOM     35  C   UNL     1      -7.062  14.623  23.753  0.00  0.00    +0.000 C 
ENDBRANCH  29  34
ENDBRANCH  28  29
ENDBRANCH  27  28
ENDBRANCH  26  27
ENDBRANCH  24  26
ENDBRANCH  11  24
TORSDOF 11
ENDMDL
MODEL 5
REMARK VINA RESULT:      -7.6      3.831     11.487
REMARK  Name = 
REMARK  15 active torsions:
REMARK  status: ('A' for Active; 'I' for Inactive)
REMARK    1  A    between atoms: C_4  and  C_5
REMARK    2  A    between atoms: C_10  and  C_11
REMARK    3  A    between atoms: C_15  and  C_16
REMARK    4  A    between atoms: C_16  and  C_17
REMARK    5  A    between atoms: C_16  and  C_18
REMARK    6  A    between atoms: C_18  and  C_19
REMARK    7  A    between atoms: C_19  and  C_20
REMARK    8  A    between atoms: C_20  and  C_21
REMARK    9  A    between atoms: C_21  and  O_22
REMARK   10  A    between atoms: C_21  and  C_23
REMARK   11  A    between atoms: C_21  and  C_25
REMARK   12  A    between atoms: C_23  and  C_24
REMARK   13  A    between atoms: C_25  and  C_26
REMARK   14  A    between atoms: C_28  and  O_29
REMARK   15  A    between atoms: C_31  and  O_32
REMARK                            x       y       z     vdW  Elec       q    Type
REMARK                         _______ _______ _______ _____ _____    ______ ____
ROOT
ATOM      1  C   UNL     1       1.226   7.987  20.991  0.00  0.00    +0.000 C 
ATOM      2  C   UNL     1       0.246   8.866  21.269  0.00  0.00    +0.000 C 
ATOM      3  C   UNL     1      -0.299   8.975  22.694  0.00  0.00    +0.000 C 
ATOM      4  C   UNL     1      -0.444  10.423  23.195  0.00  0.00    +0.000 C 
ATOM      5  C   UNL     1      -1.165  11.348  22.193  0.00  0.00    +0.000 C 
ATOM      6  C   UNL     1      -0.538  11.250  20.780  0.00  0.00    +0.000 C 
ATOM      7  C   UNL     1       0.879  11.887  20.875  0.00  0.00    +0.000 C 
ATOM      8  C   UNL     1      -0.543   9.758  20.345  0.00  0.00    +0.000 C 
ATOM      9  C   UNL     1      -0.514   9.731  18.816  0.00  0.00    +0.000 C 
ATOM     10  C   UNL     1      -0.736  11.171  18.369  0.00  0.00    +0.000 C 
ATOM     11  C   UNL     1      -1.284  11.937  19.593  0.00  0.00    +0.000 C 
ENDROOT
BRANCH   1  15
ATOM     12  C   UNL     1       4.095   7.390  17.753  0.00  0.00    +0.000 C 
ATOM     13  C   UNL     1       3.338   6.384  18.216  0.00  0.00    +0.000 C 
ATOM     14  C   UNL     1       2.507   6.539  19.428  0.00  0.00    +0.000 C 
ATOM     15  C   UNL     1       1.892   7.706  19.739  0.00  0.00    +0.000 C 
ATOM     16  C   UNL     1       2.396   5.318  20.333  0.00  0.00    +0.000 C 
ATOM     17  C   UNL     1       2.379   3.962  19.618  0.00  0.00    +0.000 C 
ATOM     18  C   UNL     1       3.476   3.875  18.573  0.00  0.00    +0.000 C 
ATOM     19  C   UNL     1       3.344   5.001  17.552  0.00  0.00    +0.000 C 
BRANCH  17  20
ATOM     20  O   UNL     1       1.112   3.681  19.023  0.00  0.00    +0.000 OA
ATOM     21  H   UNL     1       1.034   4.180  18.191  0.00  0.00    +0.000 HD
ENDBRANCH  17  20
BRANCH  19  22
ATOM     22  O   UNL     1       4.431   4.873  16.630  0.00  0.00    +0.000 OA
ATOM     23  H   UNL     1       5.234   5.161  17.096  0.00  0.00    +0.000 HD
ENDBRANCH  19  22
ENDBRANCH   1  15
BRANCH  11  24
ATOM     24  C   UNL     1      -2.836  12.027  19.648  0.00  0.00    +0.000 C 
ATOM     25  C   UNL     1      -3.595  11.756  18.344  0.00  0.00    +0.000 C 
BRANCH  24  26
ATOM     26  C   UNL     1      -3.265  13.405  20.220  0.00  0.00    +0.000 C 
BRANCH  26  27
ATOM     27  C   UNL     1      -4.189  13.335  21.439  0.00  0.00    +0.000 C 
BRANCH  27  28
ATOM     28  C   UNL     1      -5.667  13.222  21.051  0.00  0.00    +0.000 C 
BRANCH  28  29
ATOM     29  C   UNL     1      -6.620  12.861  22.212  0.00  0.00    +0.000 C 
BRANCH  29  30
ATOM     30  O   UNL     1      -5.846  12.218  23.232  0.00  0.00    +0.000 OA
ATOM     31  H   UNL     1      -5.532  11.367  22.884  0.00  0.00    +0.000 HD
ENDBRANCH  29  30
BRANCH  29  32
ATOM     32  C   UNL     1      -7.301  14.097  22.849  0.00  0.00    +0.000 C 
ATOM     33  C   UNL     1      -7.848  13.915  24.258  0.00  0.00    +0.000 C 
ENDBRANCH  29  32
BRANCH  29  34
ATOM     34  C   UNL     1      -7.626  11.815  21.679  0.00  0.00    +0.000 C 
ATOM     35  C   UNL     1      -7.263  11.224  20.325  0.00  0.00    +0.000 C 
ENDBRANCH  29  34
ENDBRANCH  28  29
ENDBRANCH  27  28
ENDBRANCH  26  27
ENDBRANCH  24  26
ENDBRANCH  11  24
TORSDOF 11
ENDMDL
MODEL 6
REMARK VINA RESULT:      -7.5      3.593     11.317
REMARK  Name = 
REMARK  15 active torsions:
REMARK  status: ('A' for Active; 'I' for Inactive)
REMARK    1  A    between atoms: C_4  and  C_5
REMARK    2  A    between atoms: C_10  and  C_11
REMARK    3  A    between atoms: C_15  and  C_16
REMARK    4  A    between atoms: C_16  and  C_17
REMARK    5  A    between atoms: C_16  and  C_18
REMARK    6  A    between atoms: C_18  and  C_19
REMARK    7  A    between atoms: C_19  and  C_20
REMARK    8  A    between atoms: C_20  and  C_21
REMARK    9  A    between atoms: C_21  and  O_22
REMARK   10  A    between atoms: C_21  and  C_23
REMARK   11  A    between atoms: C_21  and  C_25
REMARK   12  A    between atoms: C_23  and  C_24
REMARK   13  A    between atoms: C_25  and  C_26
REMARK   14  A    between atoms: C_28  and  O_29
REMARK   15  A    between atoms: C_31  and  O_32
REMARK                            x       y       z     vdW  Elec       q    Type
REMARK                         _______ _______ _______ _____ _____    ______ ____
ROOT
ATOM      1  C   UNL     1       1.329   7.915  20.940  0.00  0.00    +0.000 C 
ATOM      2  C   UNL     1       0.360   8.805  21.220  0.00  0.00    +0.000 C 
ATOM      3  C   UNL     1      -0.165   8.936  22.651  0.00  0.00    +0.000 C 
ATOM      4  C   UNL     1      -0.293  10.391  23.135  0.00  0.00    +0.000 C 
ATOM      5  C   UNL     1      -1.020  11.309  22.132  0.00  0.00    +0.000 C 
ATOM      6  C   UNL     1      -0.413  11.188  20.712  0.00  0.00    +0.000 C 
ATOM      7  C   UNL     1       1.009  11.816  20.779  0.00  0.00    +0.000 C 
ATOM      8  C   UNL     1      -0.436   9.691  20.296  0.00  0.00    +0.000 C 
ATOM      9  C   UNL     1      -0.428   9.645  18.766  0.00  0.00    +0.000 C 
ATOM     10  C   UNL     1      -0.645  11.081  18.304  0.00  0.00    +0.000 C 
ATOM     11  C   UNL     1      -1.170  11.866  19.526  0.00  0.00    +0.000 C 
ENDROOT
BRANCH   1  15
ATOM     12  C   UNL     1       4.147   7.275  17.665  0.00  0.00    +0.000 C 
ATOM     13  C   UNL     1       3.407   6.272  18.162  0.00  0.00    +0.000 C 
ATOM     14  C   UNL     1       2.597   6.446  19.385  0.00  0.00    +0.000 C 
ATOM     15  C   UNL     1       1.975   7.613  19.682  0.00  0.00    +0.000 C 
ATOM     16  C   UNL     1       2.513   5.244  20.319  0.00  0.00    +0.000 C 
ATOM     17  C   UNL     1       2.497   3.872  19.633  0.00  0.00    +0.000 C 
ATOM     18  C   UNL     1       3.576   3.773  18.571  0.00  0.00    +0.000 C 
ATOM     19  C   UNL     1       3.415   4.876  17.529  0.00  0.00    +0.000 C 
BRANCH  17  20
ATOM     20  O   UNL     1       1.222   3.567  19.067  0.00  0.00    +0.000 OA
ATOM     21  H   UNL     1       0.680   3.110  19.733  0.00  0.00    +0.000 HD
ENDBRANCH  17  20
BRANCH  19  22
ATOM     22  O   UNL     1       4.487   4.738  16.590  0.00  0.00    +0.000 OA
ATOM     23  H   UNL     1       4.443   5.506  15.995  0.00  0.00    +0.000 HD
ENDBRANCH  19  22
ENDBRANCH   1  15
BRANCH  11  24
ATOM     24  C   UNL     1      -2.721  11.969  19.601  0.00  0.00    +0.000 C 
ATOM     25  C   UNL     1      -3.495  11.787  18.290  0.00  0.00    +0.000 C 
BRANCH  24  26
ATOM     26  C   UNL     1      -3.130  13.312  20.262  0.00  0.00    +0.000 C 
BRANCH  26  27
ATOM     27  C   UNL     1      -4.318  13.220  21.224  0.00  0.00    +0.000 C 
BRANCH  27  28
ATOM     28  C   UNL     1      -4.442  14.453  22.125  0.00  0.00    +0.000 C 
BRANCH  28  29
ATOM     29  C   UNL     1      -3.754  14.326  23.502  0.00  0.00    +0.000 C 
BRANCH  29  30
ATOM     30  O   UNL     1      -4.585  14.981  24.470  0.00  0.00    +0.000 OA
ATOM     31  H   UNL     1      -4.623  15.926  24.247  0.00  0.00    +0.000 HD
ENDBRANCH  29  30
BRANCH  29  32
ATOM     32  C   UNL     1      -3.569  12.859  23.960  0.00  0.00    +0.000 C 
ATOM     33  C   UNL     1      -4.671  12.281  24.838  0.00  0.00    +0.000 C 
ENDBRANCH  29  32
BRANCH  29  34
ATOM     34  C   UNL     1      -2.428  15.118  23.434  0.00  0.00    +0.000 C 
ATOM     35  C   UNL     1      -1.451  14.810  24.559  0.00  0.00    +0.000 C 
ENDBRANCH  29  34
ENDBRANCH  28  29
ENDBRANCH  27  28
ENDBRANCH  26  27
ENDBRANCH  24  26
ENDBRANCH  11  24
TORSDOF 11
ENDMDL
MODEL 7
REMARK VINA RESULT:      -7.5      3.734     11.361
REMARK  Name = 
REMARK  15 active torsions:
REMARK  status: ('A' for Active; 'I' for Inactive)
REMARK    1  A    between atoms: C_4  and  C_5
REMARK    2  A    between atoms: C_10  and  C_11
REMARK    3  A    between atoms: C_15  and  C_16
REMARK    4  A    between atoms: C_16  and  C_17
REMARK    5  A    between atoms: C_16  and  C_18
REMARK    6  A    between atoms: C_18  and  C_19
REMARK    7  A    between atoms: C_19  and  C_20
REMARK    8  A    between atoms: C_20  and  C_21
REMARK    9  A    between atoms: C_21  and  O_22
REMARK   10  A    between atoms: C_21  and  C_23
REMARK   11  A    between atoms: C_21  and  C_25
REMARK   12  A    between atoms: C_23  and  C_24
REMARK   13  A    between atoms: C_25  and  C_26
REMARK   14  A    between atoms: C_28  and  O_29
REMARK   15  A    between atoms: C_31  and  O_32
REMARK                            x       y       z     vdW  Elec       q    Type
REMARK                         _______ _______ _______ _____ _____    ______ ____
ROOT
ATOM      1  C   UNL     1       1.207   7.909  20.989  0.00  0.00    +0.000 C 
ATOM      2  C   UNL     1       0.254   8.815  21.275  0.00  0.00    +0.000 C 
ATOM      3  C   UNL     1      -0.281   8.934  22.704  0.00  0.00    +0.000 C 
ATOM      4  C   UNL     1      -0.383  10.384  23.209  0.00  0.00    +0.000 C 
ATOM      5  C   UNL     1      -1.083  11.332  22.214  0.00  0.00    +0.000 C 
ATOM      6  C   UNL     1      -0.466  11.221  20.798  0.00  0.00    +0.000 C 
ATOM      7  C   UNL     1       0.968  11.818  20.887  0.00  0.00    +0.000 C 
ATOM      8  C   UNL     1      -0.516   9.731  20.358  0.00  0.00    +0.000 C 
ATOM      9  C   UNL     1      -0.495   9.708  18.829  0.00  0.00    +0.000 C 
ATOM     10  C   UNL     1      -0.679  11.155  18.387  0.00  0.00    +0.000 C 
ATOM     11  C   UNL     1      -1.199  11.932  19.616  0.00  0.00    +0.000 C 
ENDROOT
BRANCH   1  15
ATOM     12  C   UNL     1       4.036   7.296  17.719  0.00  0.00    +0.000 C 
ATOM     13  C   UNL     1       3.305   6.286  18.215  0.00  0.00    +0.000 C 
ATOM     14  C   UNL     1       2.491   6.453  19.436  0.00  0.00    +0.000 C 
ATOM     15  C   UNL     1       1.858   7.614  19.733  0.00  0.00    +0.000 C 
ATOM     16  C   UNL     1       2.416   5.249  20.369  0.00  0.00    +0.000 C 
ATOM     17  C   UNL     1       2.413   3.878  19.683  0.00  0.00    +0.000 C 
ATOM     18  C   UNL     1       3.495   3.789  18.622  0.00  0.00    +0.000 C 
ATOM     19  C   UNL     1       3.326   4.890  17.580  0.00  0.00    +0.000 C 
BRANCH  17  20
ATOM     20  O   UNL     1       1.143   3.561  19.114  0.00  0.00    +0.000 OA
ATOM     21  H   UNL     1       0.467   4.144  19.503  0.00  0.00    +0.000 HD
ENDBRANCH  17  20
BRANCH  19  22
ATOM     22  O   UNL     1       4.401   4.763  16.644  0.00  0.00    +0.000 OA
ATOM     23  H   UNL     1       4.577   5.651  16.292  0.00  0.00    +0.000 HD
ENDBRANCH  19  22
ENDBRANCH   1  15
BRANCH  11  24
ATOM     24  C   UNL     1      -2.748  12.065  19.680  0.00  0.00    +0.000 C 
ATOM     25  C   UNL     1      -3.520  11.840  18.375  0.00  0.00    +0.000 C 
BRANCH  24  26
ATOM     26  C   UNL     1      -3.135  13.443  20.280  0.00  0.00    +0.000 C 
BRANCH  26  27
ATOM     27  C   UNL     1      -4.616  13.596  20.635  0.00  0.00    +0.000 C 
BRANCH  27  28
ATOM     28  C   UNL     1      -5.054  12.648  21.756  0.00  0.00    +0.000 C 
BRANCH  28  29
ATOM     29  C   UNL     1      -6.361  13.049  22.476  0.00  0.00    +0.000 C 
BRANCH  29  30
ATOM     30  O   UNL     1      -6.648  14.412  22.139  0.00  0.00    +0.000 OA
ATOM     31  H   UNL     1      -6.568  14.510  21.176  0.00  0.00    +0.000 HD
ENDBRANCH  29  30
BRANCH  29  32
ATOM     32  C   UNL     1      -7.580  12.194  22.051  0.00  0.00    +0.000 C 
ATOM     33  C   UNL     1      -7.401  11.335  20.807  0.00  0.00    +0.000 C 
ENDBRANCH  29  32
BRANCH  29  34
ATOM     34  C   UNL     1      -6.085  13.008  23.997  0.00  0.00    +0.000 C 
ATOM     35  C   UNL     1      -4.703  12.494  24.374  0.00  0.00    +0.000 C 
ENDBRANCH  29  34
ENDBRANCH  28  29
ENDBRANCH  27  28
ENDBRANCH  26  27
ENDBRANCH  24  26
ENDBRANCH  11  24
TORSDOF 11
ENDMDL
MODEL 8
REMARK VINA RESULT:      -7.4      3.259     11.284
REMARK  Name = 
REMARK  15 active torsions:
REMARK  status: ('A' for Active; 'I' for Inactive)
REMARK    1  A    between atoms: C_4  and  C_5
REMARK    2  A    between atoms: C_10  and  C_11
REMARK    3  A    between atoms: C_15  and  C_16
REMARK    4  A    between atoms: C_16  and  C_17
REMARK    5  A    between atoms: C_16  and  C_18
REMARK    6  A    between atoms: C_18  and  C_19
REMARK    7  A    between atoms: C_19  and  C_20
REMARK    8  A    between atoms: C_20  and  C_21
REMARK    9  A    between atoms: C_21  and  O_22
REMARK   10  A    between atoms: C_21  and  C_23
REMARK   11  A    between atoms: C_21  and  C_25
REMARK   12  A    between atoms: C_23  and  C_24
REMARK   13  A    between atoms: C_25  and  C_26
REMARK   14  A    between atoms: C_28  and  O_29
REMARK   15  A    between atoms: C_31  and  O_32
REMARK                            x       y       z     vdW  Elec       q    Type
REMARK                         _______ _______ _______ _____ _____    ______ ____
ROOT
ATOM      1  C   UNL     1       1.407   7.824  20.850  0.00  0.00    +0.000 C 
ATOM      2  C   UNL     1       0.438   8.715  21.128  0.00  0.00    +0.000 C 
ATOM      3  C   UNL     1      -0.127   8.810  22.547  0.00  0.00    +0.000 C 
ATOM      4  C   UNL     1      -0.256  10.251  23.069  0.00  0.00    +0.000 C 
ATOM      5  C   UNL     1      -0.946  11.205  22.072  0.00  0.00    +0.000 C 
ATOM      6  C   UNL     1      -0.299  11.119  20.668  0.00  0.00    +0.000 C 
ATOM      7  C   UNL     1       1.126  11.731  20.794  0.00  0.00    +0.000 C 
ATOM      8  C   UNL     1      -0.323   9.635  20.208  0.00  0.00    +0.000 C 
ATOM      9  C   UNL     1      -0.270   9.633  18.678  0.00  0.00    +0.000 C 
ATOM     10  C   UNL     1      -0.462  11.084  18.252  0.00  0.00    +0.000 C 
ATOM     11  C   UNL     1      -1.015  11.839  19.481  0.00  0.00    +0.000 C 
ENDROOT
BRANCH   1  15
ATOM     12  C   UNL     1       4.316   7.228  17.648  0.00  0.00    +0.000 C 
ATOM     13  C   UNL     1       3.530   6.229  18.078  0.00  0.00    +0.000 C 
ATOM     14  C   UNL     1       2.684   6.380  19.280  0.00  0.00    +0.000 C 
ATOM     15  C   UNL     1       2.087   7.553  19.604  0.00  0.00    +0.000 C 
ATOM     16  C   UNL     1       2.532   5.144  20.160  0.00  0.00    +0.000 C 
ATOM     17  C   UNL     1       2.499   3.802  19.419  0.00  0.00    +0.000 C 
ATOM     18  C   UNL     1       3.610   3.712  18.390  0.00  0.00    +0.000 C 
ATOM     19  C   UNL     1       3.518   4.859  17.389  0.00  0.00    +0.000 C 
BRANCH  17  20
ATOM     20  O   UNL     1       1.236   3.559  18.799  0.00  0.00    +0.000 OA
ATOM     21  H   UNL     1       0.593   4.217  19.118  0.00  0.00    +0.000 HD
ENDBRANCH  17  20
BRANCH  19  22
ATOM     22  O   UNL     1       4.617   4.726  16.482  0.00  0.00    +0.000 OA
ATOM     23  H   UNL     1       4.330   4.126  15.774  0.00  0.00    +0.000 HD
ENDBRANCH  19  22
ENDBRANCH   1  15
BRANCH  11  24
ATOM     24  C   UNL     1      -2.567  11.954  19.514  0.00  0.00    +0.000 C 
ATOM     25  C   UNL     1      -3.314  11.652  18.210  0.00  0.00    +0.000 C 
BRANCH  24  26
ATOM     26  C   UNL     1      -2.980  13.355  20.037  0.00  0.00    +0.000 C 
BRANCH  26  27
ATOM     27  C   UNL     1      -3.815  13.341  21.321  0.00  0.00    +0.000 C 
BRANCH  27  28
ATOM     28  C   UNL     1      -3.407  14.446  22.300  0.00  0.00    +0.000 C 
BRANCH  28  29
ATOM     29  C   UNL     1      -2.963  13.950  23.695  0.00  0.00    +0.000 C 
BRANCH  29  30
ATOM     30  O   UNL     1      -1.534  13.841  23.689  0.00  0.00    +0.000 OA
ATOM     31  H   UNL     1      -1.164  14.719  23.497  0.00  0.00    +0.000 HD
ENDBRANCH  29  30
BRANCH  29  32
ATOM     32  C   UNL     1      -3.355  14.916  24.839  0.00  0.00    +0.000 C 
ATOM     33  C   UNL     1      -2.226  15.382  25.747  0.00  0.00    +0.000 C 
ENDBRANCH  29  32
BRANCH  29  34
ATOM     34  C   UNL     1      -3.525  12.522  23.880  0.00  0.00    +0.000 C 
ATOM     35  C   UNL     1      -4.586  12.397  24.963  0.00  0.00    +0.000 C 
ENDBRANCH  29  34
ENDBRANCH  28  29
ENDBRANCH  27  28
ENDBRANCH  26  27
ENDBRANCH  24  26
ENDBRANCH  11  24
TORSDOF 11
ENDMDL
MODEL 9
REMARK VINA RESULT:      -7.3      3.631     11.698
REMARK  Name = 
REMARK  15 active torsions:
REMARK  status: ('A' for Active; 'I' for Inactive)
REMARK    1  A    between atoms: C_4  and  C_5
REMARK    2  A    between atoms: C_10  and  C_11
REMARK    3  A    between atoms: C_15  and  C_16
REMARK    4  A    between atoms: C_16  and  C_17
REMARK    5  A    between atoms: C_16  and  C_18
REMARK    6  A    between atoms: C_18  and  C_19
REMARK    7  A    between atoms: C_19  and  C_20
REMARK    8  A    between atoms: C_20  and  C_21
REMARK    9  A    between atoms: C_21  and  O_22
REMARK   10  A    between atoms: C_21  and  C_23
REMARK   11  A    between atoms: C_21  and  C_25
REMARK   12  A    between atoms: C_23  and  C_24
REMARK   13  A    between atoms: C_25  and  C_26
REMARK   14  A    between atoms: C_28  and  O_29
REMARK   15  A    between atoms: C_31  and  O_32
REMARK                            x       y       z     vdW  Elec       q    Type
REMARK                         _______ _______ _______ _____ _____    ______ ____
ROOT
ATOM      1  C   UNL     1       1.275   7.945  20.972  0.00  0.00    +0.000 C 
ATOM      2  C   UNL     1       0.292   8.819  21.255  0.00  0.00    +0.000 C 
ATOM      3  C   UNL     1      -0.250   8.923  22.682  0.00  0.00    +0.000 C 
ATOM      4  C   UNL     1      -0.401  10.369  23.185  0.00  0.00    +0.000 C 
ATOM      5  C   UNL     1      -1.130  11.292  22.187  0.00  0.00    +0.000 C 
ATOM      6  C   UNL     1      -0.507  11.198  20.771  0.00  0.00    +0.000 C 
ATOM      7  C   UNL     1       0.906  11.843  20.862  0.00  0.00    +0.000 C 
ATOM      8  C   UNL     1      -0.506   9.707  20.335  0.00  0.00    +0.000 C 
ATOM      9  C   UNL     1      -0.481   9.682  18.805  0.00  0.00    +0.000 C 
ATOM     10  C   UNL     1      -0.712  11.122  18.360  0.00  0.00    +0.000 C 
ATOM     11  C   UNL     1      -1.260  11.883  19.587  0.00  0.00    +0.000 C 
ENDROOT
BRANCH   1  15
ATOM     12  C   UNL     1       4.138   7.359  17.727  0.00  0.00    +0.000 C 
ATOM     13  C   UNL     1       3.380   6.352  18.185  0.00  0.00    +0.000 C 
ATOM     14  C   UNL     1       2.552   6.503  19.400  0.00  0.00    +0.000 C 
ATOM     15  C   UNL     1       1.939   7.669  19.718  0.00  0.00    +0.000 C 
ATOM     16  C   UNL     1       2.439   5.277  20.299  0.00  0.00    +0.000 C 
ATOM     17  C   UNL     1       2.419   3.925  19.578  0.00  0.00    +0.000 C 
ATOM     18  C   UNL     1       3.514   3.841  18.530  0.00  0.00    +0.000 C 
ATOM     19  C   UNL     1       3.382   4.972  17.515  0.00  0.00    +0.000 C 
BRANCH  17  20
ATOM     20  O   UNL     1       1.150   3.649  18.983  0.00  0.00    +0.000 OA
ATOM     21  H   UNL     1       1.285   3.108  18.185  0.00  0.00    +0.000 HD
ENDBRANCH  17  20
BRANCH  19  22
ATOM     22  O   UNL     1       4.467   4.848  16.591  0.00  0.00    +0.000 OA
ATOM     23  H   UNL     1       5.277   5.093  17.069  0.00  0.00    +0.000 HD
ENDBRANCH  19  22
ENDBRANCH   1  15
BRANCH  11  24
ATOM     24  C   UNL     1      -2.813  11.965  19.647  0.00  0.00    +0.000 C 
ATOM     25  C   UNL     1      -3.572  11.751  18.333  0.00  0.00    +0.000 C 
BRANCH  24  26
ATOM     26  C   UNL     1      -3.246  13.312  20.283  0.00  0.00    +0.000 C 
BRANCH  26  27
ATOM     27  C   UNL     1      -4.168  13.182  21.499  0.00  0.00    +0.000 C 
BRANCH  27  28
ATOM     28  C   UNL     1      -3.762  14.111  22.647  0.00  0.00    +0.000 C 
BRANCH  28  29
ATOM     29  C   UNL     1      -4.783  14.204  23.803  0.00  0.00    +0.000 C 
BRANCH  29  30
ATOM     30  O   UNL     1      -4.079  13.976  25.031  0.00  0.00    +0.000 OA
ATOM     31  H   UNL     1      -4.689  13.553  25.657  0.00  0.00    +0.000 HD
ENDBRANCH  29  30
BRANCH  29  32
ATOM     32  C   UNL     1      -5.466  15.590  23.905  0.00  0.00    +0.000 C 
ATOM     33  C   UNL     1      -5.284  16.522  22.715  0.00  0.00    +0.000 C 
ENDBRANCH  29  32
BRANCH  29  34
ATOM     34  C   UNL     1      -5.786  13.040  23.633  0.00  0.00    +0.000 C 
ATOM     35  C   UNL     1      -7.196  13.345  24.117  0.00  0.00    +0.000 C 
ENDBRANCH  29  34
ENDBRANCH  28  29
ENDBRANCH  27  28
ENDBRANCH  26  27
ENDBRANCH  24  26
ENDBRANCH  11  24
TORSDOF 11
ENDMDL
