MODEL 1
REMARK VINA RESULT:      -7.8      0.000      0.000
REMARK  Name = 
REMARK  3 active torsions:
REMARK  status: ('A' for Active; 'I' for Inactive)
REMARK    1  A    between atoms: C_1  and  C_2
REMARK    2  A    between atoms: C_3  and  C_4
REMARK    3  A    between atoms: N_9  and  C_10
REMARK                            x       y       z     vdW  Elec       q    Type
REMARK                         _______ _______ _______ _____ _____    ______ ____
ROOT
ATOM      1  C   UNL     1       3.177   4.341  16.590  0.00  0.00    +0.000 C 
ATOM      2  C   UNL     1       4.378   4.665  17.407  0.00  0.00    +0.000 A 
ATOM      3  C   UNL     1       4.489   5.053  18.736  0.00  0.00    +0.000 A 
ATOM      4  C   UNL     1       5.872   5.239  18.922  0.00  0.00    +0.000 A 
ATOM      5  N   UNL     1       6.582   5.042  17.817  0.00  0.00    +0.000 NA
ATOM      6  N   UNL     1       5.664   4.653  16.887  0.00  0.00    +0.000 N 
ATOM      7  C   UNL     1       6.102   4.316  15.583  0.00  0.00    +0.000 A 
ATOM      8  N   UNL     1       5.383   3.684  14.710  0.00  0.00    +0.000 NA
ATOM      9  N   UNL     1       6.001   3.559  13.513  0.00  0.00    +0.000 N 
ATOM     10  C   UNL     1       5.625   2.757  12.470  0.00  0.00    +0.000 A 
ATOM     11  C   UNL     1       6.460   3.019  11.404  0.00  0.00    +0.000 A 
ATOM     12  C   UNL     1       7.375   4.018  11.818  0.00  0.00    +0.000 A 
ATOM     13  C   UNL     1       7.111   4.264  13.145  0.00  0.00    +0.000 A 
ATOM     14  C   UNL     1       7.741   5.095  14.111  0.00  0.00    +0.000 A 
ATOM     15  O   UNL     1       8.464   6.051  13.856  0.00  0.00    +0.000 OA
ATOM     16  N   UNL     1       7.396   4.754  15.390  0.00  0.00    +0.000 N 
ATOM     17  H   UNL     1       8.011   4.005  15.690  0.00  0.00    +0.000 HD
ENDROOT
BRANCH   3  18
ATOM     18  C   UNL     1       3.411   5.130  19.714  0.00  0.00    +0.000 C 
ATOM     19  O   UNL     1       3.308   4.268  20.586  0.00  0.00    +0.000 OA
ATOM     20  N   UNL     1       2.568   6.232  19.685  0.00  0.00    +0.000 N 
ATOM     21  C   UNL     1       1.657   6.436  20.817  0.00  0.00    +0.000 C 
ATOM     22  C   UNL     1       1.539   7.929  21.181  0.00  0.00    +0.000 C 
ATOM     23  N   UNL     1       1.188   8.701  19.974  0.00  0.00    +0.000 N 
ATOM     24  C   UNL     1       2.120   8.525  18.843  0.00  0.00    +0.000 C 
ATOM     25  C   UNL     1       2.212   7.028  18.494  0.00  0.00    +0.000 C 
BRANCH  23  26
ATOM     26  C   UNL     1       0.380   9.817  20.038  0.00  0.00    +0.000 A 
ATOM     27  C   UNL     1       0.144  10.516  21.235  0.00  0.00    +0.000 A 
ATOM     28  C   UNL     1      -0.739  11.600  21.292  0.00  0.00    +0.000 A 
ATOM     29  C   UNL     1      -1.413  11.998  20.139  0.00  0.00    +0.000 A 
ATOM     30 CL   UNL     1      -2.520  13.313  20.210  0.00  0.00    +0.000 Cl
ATOM     31  C   UNL     1      -1.200  11.336  18.940  0.00  0.00    +0.000 A 
ATOM     32  C   UNL     1      -0.309  10.255  18.892  0.00  0.00    +0.000 A 
ENDBRANCH  23  26
ENDBRANCH   3  18
TORSDOF 2
ENDMDL
MODEL 2
REMARK VINA RESULT:      -7.4      5.630     12.621
REMARK  Name = 
REMARK  3 active torsions:
REMARK  status: ('A' for Active; 'I' for Inactive)
REMARK    1  A    between atoms: C_1  and  C_2
REMARK    2  A    between atoms: C_3  and  C_4
REMARK    3  A    between atoms: N_9  and  C_10
REMARK                            x       y       z     vdW  Elec       q    Type
REMARK                         _______ _______ _______ _____ _____    ______ ____
ROOT
ATOM      1  C   UNL     1      -3.106  13.052  20.307  0.00  0.00    +0.000 C 
ATOM      2  C   UNL     1      -1.683  13.255  20.694  0.00  0.00    +0.000 A 
ATOM      3  C   UNL     1      -0.522  12.676  20.198  0.00  0.00    +0.000 A 
ATOM      4  C   UNL     1       0.502  13.246  20.979  0.00  0.00    +0.000 A 
ATOM      5  N   UNL     1       0.050  14.069  21.918  0.00  0.00    +0.000 NA
ATOM      6  N   UNL     1      -1.299  14.103  21.721  0.00  0.00    +0.000 N 
ATOM      7  C   UNL     1      -2.095  14.937  22.543  0.00  0.00    +0.000 A 
ATOM      8  N   UNL     1      -3.324  15.260  22.285  0.00  0.00    +0.000 NA
ATOM      9  N   UNL     1      -3.889  15.998  23.268  0.00  0.00    +0.000 N 
ATOM     10  C   UNL     1      -5.069  16.689  23.206  0.00  0.00    +0.000 A 
ATOM     11  C   UNL     1      -5.330  17.207  24.458  0.00  0.00    +0.000 A 
ATOM     12  C   UNL     1      -4.267  16.813  25.309  0.00  0.00    +0.000 A 
ATOM     13  C   UNL     1      -3.363  16.142  24.520  0.00  0.00    +0.000 A 
ATOM     14  C   UNL     1      -2.081  15.587  24.787  0.00  0.00    +0.000 A 
ATOM     15  O   UNL     1      -1.659  15.289  25.898  0.00  0.00    +0.000 OA
ATOM     16  N   UNL     1      -1.372  15.351  23.642  0.00  0.00    +0.000 N 
ATOM     17  H   UNL     1      -0.902  16.212  23.381  0.00  0.00    +0.000 HD
ENDROOT
BRANCH   3  18
ATOM     18  C   UNL     1      -0.415  11.777  19.056  0.00  0.00    +0.000 C 
ATOM     19  O   UNL     1      -0.715  12.172  17.931  0.00  0.00    +0.000 OA
ATOM     20  N   UNL     1       0.108  10.508  19.259  0.00  0.00    +0.000 N 
ATOM     21  C   UNL     1       0.454   9.705  18.081  0.00  0.00    +0.000 C 
ATOM     22  C   UNL     1       1.756   8.911  18.304  0.00  0.00    +0.000 C 
ATOM     23  N   UNL     1       1.648   8.136  19.555  0.00  0.00    +0.000 N 
ATOM     24  C   UNL     1       1.333   8.944  20.749  0.00  0.00    +0.000 C 
ATOM     25  C   UNL     1       0.025   9.719  20.503  0.00  0.00    +0.000 C 
BRANCH  23  26
ATOM     26  C   UNL     1       2.240   6.898  19.692  0.00  0.00    +0.000 A 
ATOM     27  C   UNL     1       3.276   6.454  18.852  0.00  0.00    +0.000 A 
ATOM     28  C   UNL     1       3.810   5.166  18.961  0.00  0.00    +0.000 A 
ATOM     29  C   UNL     1       3.303   4.290  19.920  0.00  0.00    +0.000 A 
ATOM     30 CL   UNL     1       3.939   2.695  20.040  0.00  0.00    +0.000 Cl
ATOM     31  C   UNL     1       2.287   4.696  20.769  0.00  0.00    +0.000 A 
ATOM     32  C   UNL     1       1.762   5.991  20.656  0.00  0.00    +0.000 A 
ENDBRANCH  23  26
ENDBRANCH   3  18
TORSDOF 2
ENDMDL
MODEL 3
REMARK VINA RESULT:      -7.3      7.847      9.508
REMARK  Name = 
REMARK  3 active torsions:
REMARK  status: ('A' for Active; 'I' for Inactive)
REMARK    1  A    between atoms: C_1  and  C_2
REMARK    2  A    between atoms: C_3  and  C_4
REMARK    3  A    between atoms: N_9  and  C_10
REMARK                            x       y       z     vdW  Elec       q    Type
REMARK                         _______ _______ _______ _____ _____    ______ ____
ROOT
ATOM      1  C   UNL     1       5.885  14.874  18.148  0.00  0.00    +0.000 C 
ATOM      2  C   UNL     1       6.072  15.316  19.557  0.00  0.00    +0.000 A 
ATOM      3  C   UNL     1       5.225  16.024  20.400  0.00  0.00    +0.000 A 
ATOM      4  C   UNL     1       5.966  16.159  21.590  0.00  0.00    +0.000 A 
ATOM      5  N   UNL     1       7.185  15.638  21.512  0.00  0.00    +0.000 NA
ATOM      6  N   UNL     1       7.240  15.084  20.267  0.00  0.00    +0.000 N 
ATOM      7  C   UNL     1       8.411  14.396  19.869  0.00  0.00    +0.000 A 
ATOM      8  N   UNL     1       8.485  13.610  18.841  0.00  0.00    +0.000 NA
ATOM      9  N   UNL     1       9.736  13.141  18.627  0.00  0.00    +0.000 N 
ATOM     10  C   UNL     1      10.103  12.124  17.789  0.00  0.00    +0.000 A 
ATOM     11  C   UNL     1      11.481  12.047  17.786  0.00  0.00    +0.000 A 
ATOM     12  C   UNL     1      11.963  13.056  18.655  0.00  0.00    +0.000 A 
ATOM     13  C   UNL     1      10.858  13.652  19.215  0.00  0.00    +0.000 A 
ATOM     14  C   UNL     1      10.708  14.660  20.207  0.00  0.00    +0.000 A 
ATOM     15  O   UNL     1      11.572  15.467  20.527  0.00  0.00    +0.000 OA
ATOM     16  N   UNL     1       9.447  14.682  20.735  0.00  0.00    +0.000 N 
ATOM     17  H   UNL     1       9.408  13.996  21.481  0.00  0.00    +0.000 HD
ENDROOT
BRANCH   3  18
ATOM     18  C   UNL     1       3.850  16.421  20.123  0.00  0.00    +0.000 C 
ATOM     19  O   UNL     1       3.575  17.607  19.951  0.00  0.00    +0.000 OA
ATOM     20  N   UNL     1       2.892  15.428  19.976  0.00  0.00    +0.000 N 
ATOM     21  C   UNL     1       1.577  15.809  19.446  0.00  0.00    +0.000 C 
ATOM     22  C   UNL     1       1.026  14.736  18.488  0.00  0.00    +0.000 C 
ATOM     23  N   UNL     1       1.052  13.422  19.157  0.00  0.00    +0.000 N 
ATOM     24  C   UNL     1       2.378  13.019  19.663  0.00  0.00    +0.000 C 
ATOM     25  C   UNL     1       2.902  14.103  20.624  0.00  0.00    +0.000 C 
BRANCH  23  26
ATOM     26  C   UNL     1       0.083  12.469  18.919  0.00  0.00    +0.000 A 
ATOM     27  C   UNL     1       0.392  11.133  18.611  0.00  0.00    +0.000 A 
ATOM     28  C   UNL     1      -0.604  10.201  18.299  0.00  0.00    +0.000 A 
ATOM     29  C   UNL     1      -1.939  10.602  18.281  0.00  0.00    +0.000 A 
ATOM     30 CL   UNL     1      -3.165   9.466  17.871  0.00  0.00    +0.000 Cl
ATOM     31  C   UNL     1      -2.281  11.909  18.585  0.00  0.00    +0.000 A 
ATOM     32  C   UNL     1      -1.276  12.834  18.903  0.00  0.00    +0.000 A 
ENDBRANCH  23  26
ENDBRANCH   3  18
TORSDOF 2
ENDMDL
MODEL 4
REMARK VINA RESULT:      -7.3      8.083      9.711
REMARK  Name = 
REMARK  3 active torsions:
REMARK  status: ('A' for Active; 'I' for Inactive)
REMARK    1  A    between atoms: C_1  and  C_2
REMARK    2  A    between atoms: C_3  and  C_4
REMARK    3  A    between atoms: N_9  and  C_10
REMARK                            x       y       z     vdW  Elec       q    Type
REMARK                         _______ _______ _______ _____ _____    ______ ____
ROOT
ATOM      1  C   UNL     1       6.749  16.180  20.854  0.00  0.00    +0.000 C 
ATOM      2  C   UNL     1       6.050  15.692  19.634  0.00  0.00    +0.000 A 
ATOM      3  C   UNL     1       4.737  15.868  19.214  0.00  0.00    +0.000 A 
ATOM      4  C   UNL     1       4.668  15.150  18.004  0.00  0.00    +0.000 A 
ATOM      5  N   UNL     1       5.802  14.531  17.695  0.00  0.00    +0.000 NA
ATOM      6  N   UNL     1       6.668  14.894  18.684  0.00  0.00    +0.000 N 
ATOM      7  C   UNL     1       8.006  14.432  18.632  0.00  0.00    +0.000 A 
ATOM      8  N   UNL     1       8.975  14.915  19.344  0.00  0.00    +0.000 NA
ATOM      9  N   UNL     1      10.138  14.245  19.172  0.00  0.00    +0.000 N 
ATOM     10  C   UNL     1      11.383  14.635  19.583  0.00  0.00    +0.000 A 
ATOM     11  C   UNL     1      12.266  13.611  19.308  0.00  0.00    +0.000 A 
ATOM     12  C   UNL     1      11.525  12.562  18.708  0.00  0.00    +0.000 A 
ATOM     13  C   UNL     1      10.238  13.023  18.569  0.00  0.00    +0.000 A 
ATOM     14  C   UNL     1       9.076  12.462  17.971  0.00  0.00    +0.000 A 
ATOM     15  O   UNL     1       8.900  11.269  17.755  0.00  0.00    +0.000 OA
ATOM     16  N   UNL     1       8.118  13.405  17.717  0.00  0.00    +0.000 N 
ATOM     17  H   UNL     1       8.327  13.829  16.820  0.00  0.00    +0.000 HD
ENDROOT
BRANCH   3  18
ATOM     18  C   UNL     1       3.724  16.703  19.847  0.00  0.00    +0.000 C 
ATOM     19  O   UNL     1       3.748  17.923  19.696  0.00  0.00    +0.000 OA
ATOM     20  N   UNL     1       2.698  16.082  20.546  0.00  0.00    +0.000 N 
ATOM     21  C   UNL     1       1.549  16.898  20.958  0.00  0.00    +0.000 C 
ATOM     22  C   UNL     1       0.226  16.122  20.808  0.00  0.00    +0.000 C 
ATOM     23  N   UNL     1       0.334  14.830  21.511  0.00  0.00    +0.000 N 
ATOM     24  C   UNL     1       1.468  13.990  21.077  0.00  0.00    +0.000 C 
ATOM     25  C   UNL     1       2.777  14.785  21.246  0.00  0.00    +0.000 C 
BRANCH  23  26
ATOM     26  C   UNL     1      -0.750  14.256  22.142  0.00  0.00    +0.000 A 
ATOM     27  C   UNL     1      -1.849  15.006  22.595  0.00  0.00    +0.000 A 
ATOM     28  C   UNL     1      -2.903  14.414  23.299  0.00  0.00    +0.000 A 
ATOM     29  C   UNL     1      -2.866  13.048  23.572  0.00  0.00    +0.000 A 
ATOM     30 CL   UNL     1      -4.147  12.320  24.462  0.00  0.00    +0.000 Cl
ATOM     31  C   UNL     1      -1.801  12.277  23.135  0.00  0.00    +0.000 A 
ATOM     32  C   UNL     1      -0.753  12.877  22.425  0.00  0.00    +0.000 A 
ENDBRANCH  23  26
ENDBRANCH   3  18
TORSDOF 2
ENDMDL
MODEL 5
REMARK VINA RESULT:      -7.3      8.271      9.853
REMARK  Name = 
REMARK  3 active torsions:
REMARK  status: ('A' for Active; 'I' for Inactive)
REMARK    1  A    between atoms: C_1  and  C_2
REMARK    2  A    between atoms: C_3  and  C_4
REMARK    3  A    between atoms: N_9  and  C_10
REMARK                            x       y       z     vdW  Elec       q    Type
REMARK                         _______ _______ _______ _____ _____    ______ ____
ROOT
ATOM      1  C   UNL     1       6.239  17.147  19.740  0.00  0.00    +0.000 C 
ATOM      2  C   UNL     1       5.441  16.111  19.029  0.00  0.00    +0.000 A 
ATOM      3  C   UNL     1       4.070  15.886  19.004  0.00  0.00    +0.000 A 
ATOM      4  C   UNL     1       3.926  14.752  18.183  0.00  0.00    +0.000 A 
ATOM      5  N   UNL     1       5.085  14.260  17.758  0.00  0.00    +0.000 NA
ATOM      6  N   UNL     1       6.021  15.120  18.252  0.00  0.00    +0.000 N 
ATOM      7  C   UNL     1       7.386  14.905  17.943  0.00  0.00    +0.000 A 
ATOM      8  N   UNL     1       8.323  15.783  18.118  0.00  0.00    +0.000 NA
ATOM      9  N   UNL     1       9.554  15.303  17.824  0.00  0.00    +0.000 N 
ATOM     10  C   UNL     1      10.706  16.025  17.676  0.00  0.00    +0.000 A 
ATOM     11  C   UNL     1      11.748  15.139  17.493  0.00  0.00    +0.000 A 
ATOM     12  C   UNL     1      11.202  13.831  17.533  0.00  0.00    +0.000 A 
ATOM     13  C   UNL     1       9.842  13.979  17.656  0.00  0.00    +0.000 A 
ATOM     14  C   UNL     1       8.771  13.043  17.668  0.00  0.00    +0.000 A 
ATOM     15  O   UNL     1       8.881  11.849  17.921  0.00  0.00    +0.000 OA
ATOM     16  N   UNL     1       7.563  13.637  17.429  0.00  0.00    +0.000 N 
ATOM     17  H   UNL     1       7.441  13.704  16.424  0.00  0.00    +0.000 HD
ENDROOT
BRANCH   3  18
ATOM     18  C   UNL     1       3.039  16.720  19.609  0.00  0.00    +0.000 C 
ATOM     19  O   UNL     1       2.997  17.924  19.362  0.00  0.00    +0.000 OA
ATOM     20  N   UNL     1       2.071  16.110  20.394  0.00  0.00    +0.000 N 
ATOM     21  C   UNL     1       0.898  16.901  20.785  0.00  0.00    +0.000 C 
ATOM     22  C   UNL     1      -0.389  16.054  20.748  0.00  0.00    +0.000 C 
ATOM     23  N   UNL     1      -0.191  14.828  21.546  0.00  0.00    +0.000 N 
ATOM     24  C   UNL     1       0.967  14.012  21.135  0.00  0.00    +0.000 C 
ATOM     25  C   UNL     1       2.240  14.878  21.190  0.00  0.00    +0.000 C 
BRANCH  23  26
ATOM     26  C   UNL     1      -1.222  14.257  22.261  0.00  0.00    +0.000 A 
ATOM     27  C   UNL     1      -2.187  15.018  22.943  0.00  0.00    +0.000 A 
ATOM     28  C   UNL     1      -3.180  14.418  23.725  0.00  0.00    +0.000 A 
ATOM     29  C   UNL     1      -3.216  13.030  23.844  0.00  0.00    +0.000 A 
ATOM     30 CL   UNL     1      -4.418  12.288  24.827  0.00  0.00    +0.000 Cl
ATOM     31  C   UNL     1      -2.284  12.247  23.181  0.00  0.00    +0.000 A 
ATOM     32  C   UNL     1      -1.297  12.858  22.395  0.00  0.00    +0.000 A 
ENDBRANCH  23  26
ENDBRANCH   3  18
TORSDOF 2
ENDMDL
MODEL 6
REMARK VINA RESULT:      -7.3      5.715     12.497
REMARK  Name = 
REMARK  3 active torsions:
REMARK  status: ('A' for Active; 'I' for Inactive)
REMARK    1  A    between atoms: C_1  and  C_2
REMARK    2  A    between atoms: C_3  and  C_4
REMARK    3  A    between atoms: N_9  and  C_10
REMARK                            x       y       z     vdW  Elec       q    Type
REMARK                         _______ _______ _______ _____ _____    ______ ____
ROOT
ATOM      1  C   UNL     1      -2.832  12.238  23.628  0.00  0.00    +0.000 C 
ATOM      2  C   UNL     1      -2.367  12.307  22.216  0.00  0.00    +0.000 A 
ATOM      3  C   UNL     1      -1.261  11.734  21.600  0.00  0.00    +0.000 A 
ATOM      4  C   UNL     1      -1.344  12.181  20.268  0.00  0.00    +0.000 A 
ATOM      5  N   UNL     1      -2.368  12.999  20.051  0.00  0.00    +0.000 NA
ATOM      6  N   UNL     1      -3.022  13.050  21.246  0.00  0.00    +0.000 N 
ATOM      7  C   UNL     1      -4.208  13.817  21.351  0.00  0.00    +0.000 A 
ATOM      8  N   UNL     1      -5.051  13.729  22.331  0.00  0.00    +0.000 NA
ATOM      9  N   UNL     1      -6.058  14.628  22.238  0.00  0.00    +0.000 N 
ATOM     10  C   UNL     1      -7.218  14.645  22.964  0.00  0.00    +0.000 A 
ATOM     11  C   UNL     1      -7.913  15.791  22.637  0.00  0.00    +0.000 A 
ATOM     12  C   UNL     1      -7.142  16.494  21.677  0.00  0.00    +0.000 A 
ATOM     13  C   UNL     1      -6.051  15.706  21.400  0.00  0.00    +0.000 A 
ATOM     14  C   UNL     1      -4.980  15.840  20.473  0.00  0.00    +0.000 A 
ATOM     15  O   UNL     1      -4.623  16.891  19.956  0.00  0.00    +0.000 OA
ATOM     16  N   UNL     1      -4.328  14.657  20.263  0.00  0.00    +0.000 N 
ATOM     17  H   UNL     1      -4.832  14.145  19.547  0.00  0.00    +0.000 HD
ENDROOT
BRANCH   3  18
ATOM     18  C   UNL     1      -0.317  10.799  22.199  0.00  0.00    +0.000 C 
ATOM     19  O   UNL     1      -0.302  10.635  23.418  0.00  0.00    +0.000 OA
ATOM     20  N   UNL     1       0.496  10.049  21.360  0.00  0.00    +0.000 N 
ATOM     21  C   UNL     1       1.252   8.935  21.943  0.00  0.00    +0.000 C 
ATOM     22  C   UNL     1       1.286   7.722  20.994  0.00  0.00    +0.000 C 
ATOM     23  N   UNL     1       1.767   8.151  19.667  0.00  0.00    +0.000 N 
ATOM     24  C   UNL     1       0.989   9.249  19.061  0.00  0.00    +0.000 C 
ATOM     25  C   UNL     1       0.978  10.451  20.025  0.00  0.00    +0.000 C 
BRANCH  23  26
ATOM     26  C   UNL     1       2.532   7.324  18.872  0.00  0.00    +0.000 A 
ATOM     27  C   UNL     1       2.727   5.962  19.159  0.00  0.00    +0.000 A 
ATOM     28  C   UNL     1       3.569   5.160  18.381  0.00  0.00    +0.000 A 
ATOM     29  C   UNL     1       4.242   5.719  17.296  0.00  0.00    +0.000 A 
ATOM     30 CL   UNL     1       5.299   4.742  16.352  0.00  0.00    +0.000 Cl
ATOM     31  C   UNL     1       4.068   7.056  16.980  0.00  0.00    +0.000 A 
ATOM     32  C   UNL     1       3.218   7.851  17.761  0.00  0.00    +0.000 A 
ENDBRANCH  23  26
ENDBRANCH   3  18
TORSDOF 2
ENDMDL
MODEL 7
REMARK VINA RESULT:      -7.2      5.434     12.270
REMARK  Name = 
REMARK  3 active torsions:
REMARK  status: ('A' for Active; 'I' for Inactive)
REMARK    1  A    between atoms: C_1  and  C_2
REMARK    2  A    between atoms: C_3  and  C_4
REMARK    3  A    between atoms: N_9  and  C_10
REMARK                            x       y       z     vdW  Elec       q    Type
REMARK                         _______ _______ _______ _____ _____    ______ ____
ROOT
ATOM      1  C   UNL     1      -2.413  12.875  20.127  0.00  0.00    +0.000 C 
ATOM      2  C   UNL     1      -0.997  13.087  20.533  0.00  0.00    +0.000 A 
ATOM      3  C   UNL     1       0.177  12.532  20.039  0.00  0.00    +0.000 A 
ATOM      4  C   UNL     1       1.185  13.098  20.843  0.00  0.00    +0.000 A 
ATOM      5  N   UNL     1       0.713  13.898  21.793  0.00  0.00    +0.000 NA
ATOM      6  N   UNL     1      -0.634  13.920  21.580  0.00  0.00    +0.000 N 
ATOM      7  C   UNL     1      -1.450  14.729  22.409  0.00  0.00    +0.000 A 
ATOM      8  N   UNL     1      -2.679  15.042  22.144  0.00  0.00    +0.000 NA
ATOM      9  N   UNL     1      -3.264  15.755  23.134  0.00  0.00    +0.000 N 
ATOM     10  C   UNL     1      -4.451  16.432  23.072  0.00  0.00    +0.000 A 
ATOM     11  C   UNL     1      -4.732  16.923  24.330  0.00  0.00    +0.000 A 
ATOM     12  C   UNL     1      -3.674  16.525  25.185  0.00  0.00    +0.000 A 
ATOM     13  C   UNL     1      -2.754  15.880  24.395  0.00  0.00    +0.000 A 
ATOM     14  C   UNL     1      -1.468  15.336  24.665  0.00  0.00    +0.000 A 
ATOM     15  O   UNL     1      -1.055  15.021  25.775  0.00  0.00    +0.000 OA
ATOM     16  N   UNL     1      -0.743  15.130  23.524  0.00  0.00    +0.000 N 
ATOM     17  H   UNL     1      -0.281  16.001  23.285  0.00  0.00    +0.000 HD
ENDROOT
BRANCH   3  18
ATOM     18  C   UNL     1       0.307  11.657  18.882  0.00  0.00    +0.000 C 
ATOM     19  O   UNL     1       0.180  12.113  17.747  0.00  0.00    +0.000 OA
ATOM     20  N   UNL     1       0.657  10.330  19.091  0.00  0.00    +0.000 N 
ATOM     21  C   UNL     1       1.039   9.523  17.926  0.00  0.00    +0.000 C 
ATOM     22  C   UNL     1       2.209   8.577  18.257  0.00  0.00    +0.000 C 
ATOM     23  N   UNL     1       1.876   7.787  19.459  0.00  0.00    +0.000 N 
ATOM     24  C   UNL     1       1.524   8.595  20.643  0.00  0.00    +0.000 C 
ATOM     25  C   UNL     1       0.348   9.524  20.288  0.00  0.00    +0.000 C 
BRANCH  23  26
ATOM     26  C   UNL     1       2.305   6.486  19.611  0.00  0.00    +0.000 A 
ATOM     27  C   UNL     1       1.915   5.679  20.694  0.00  0.00    +0.000 A 
ATOM     28  C   UNL     1       2.422   4.387  20.869  0.00  0.00    +0.000 A 
ATOM     29  C   UNL     1       3.346   3.881  19.956  0.00  0.00    +0.000 A 
ATOM     30 CL   UNL     1       3.993   2.303  20.183  0.00  0.00    +0.000 Cl
ATOM     31  C   UNL     1       3.749   4.646  18.873  0.00  0.00    +0.000 A 
ATOM     32  C   UNL     1       3.230   5.937  18.703  0.00  0.00    +0.000 A 
ENDBRANCH  23  26
ENDBRANCH   3  18
TORSDOF 2
ENDMDL
MODEL 8
REMARK VINA RESULT:      -7.2      8.555     11.339
REMARK  Name = 
REMARK  3 active torsions:
REMARK  status: ('A' for Active; 'I' for Inactive)
REMARK    1  A    between atoms: C_1  and  C_2
REMARK    2  A    between atoms: C_3  and  C_4
REMARK    3  A    between atoms: N_9  and  C_10
REMARK                            x       y       z     vdW  Elec       q    Type
REMARK                         _______ _______ _______ _____ _____    ______ ____
ROOT
ATOM      1  C   UNL     1      -0.858  14.378  20.715  0.00  0.00    +0.000 C 
ATOM      2  C   UNL     1       0.092  13.429  20.072  0.00  0.00    +0.000 A 
ATOM      3  C   UNL     1       1.479  13.371  20.116  0.00  0.00    +0.000 A 
ATOM      4  C   UNL     1       1.800  12.277  19.290  0.00  0.00    +0.000 A 
ATOM      5  N   UNL     1       0.737  11.713  18.728  0.00  0.00    +0.000 NA
ATOM      6  N   UNL     1      -0.324  12.403  19.237  0.00  0.00    +0.000 N 
ATOM      7  C   UNL     1      -1.636  12.021  18.868  0.00  0.00    +0.000 A 
ATOM      8  N   UNL     1      -2.711  12.409  19.480  0.00  0.00    +0.000 NA
ATOM      9  N   UNL     1      -3.842  11.972  18.880  0.00  0.00    +0.000 N 
ATOM     10  C   UNL     1      -5.111  12.002  19.392  0.00  0.00    +0.000 A 
ATOM     11  C   UNL     1      -5.979  11.567  18.413  0.00  0.00    +0.000 A 
ATOM     12  C   UNL     1      -5.206  11.264  17.265  0.00  0.00    +0.000 A 
ATOM     13  C   UNL     1      -3.891  11.448  17.620  0.00  0.00    +0.000 A 
ATOM     14  C   UNL     1      -2.669  11.228  16.927  0.00  0.00    +0.000 A 
ATOM     15  O   UNL     1      -2.552  11.148  15.710  0.00  0.00    +0.000 OA
ATOM     16  N   UNL     1      -1.596  11.181  17.774  0.00  0.00    +0.000 N 
ATOM     17  H   UNL     1      -1.520  10.234  18.130  0.00  0.00    +0.000 HD
ENDROOT
BRANCH   3  18
ATOM     18  C   UNL     1       2.360  14.198  20.931  0.00  0.00    +0.000 C 
ATOM     19  O   UNL     1       2.144  14.330  22.134  0.00  0.00    +0.000 OA
ATOM     20  N   UNL     1       3.483  14.756  20.334  0.00  0.00    +0.000 N 
ATOM     21  C   UNL     1       4.497  15.366  21.203  0.00  0.00    +0.000 C 
ATOM     22  C   UNL     1       5.921  15.068  20.697  0.00  0.00    +0.000 C 
ATOM     23  N   UNL     1       6.028  15.454  19.278  0.00  0.00    +0.000 N 
ATOM     24  C   UNL     1       5.032  14.818  18.394  0.00  0.00    +0.000 C 
ATOM     25  C   UNL     1       3.618  15.138  18.916  0.00  0.00    +0.000 C 
BRANCH  23  26
ATOM     26  C   UNL     1       7.199  15.958  18.751  0.00  0.00    +0.000 A 
ATOM     27  C   UNL     1       8.180  15.141  18.162  0.00  0.00    +0.000 A 
ATOM     28  C   UNL     1       9.393  15.665  17.702  0.00  0.00    +0.000 A 
ATOM     29  C   UNL     1       9.648  17.029  17.835  0.00  0.00    +0.000 A 
ATOM     30 CL   UNL     1      11.150  17.672  17.296  0.00  0.00    +0.000 Cl
ATOM     31  C   UNL     1       8.701  17.864  18.405  0.00  0.00    +0.000 A 
ATOM     32  C   UNL     1       7.487  17.332  18.857  0.00  0.00    +0.000 A 
ENDBRANCH  23  26
ENDBRANCH   3  18
TORSDOF 2
ENDMDL
MODEL 9
REMARK VINA RESULT:      -7.1      8.405      9.842
REMARK  Name = 
REMARK  3 active torsions:
REMARK  status: ('A' for Active; 'I' for Inactive)
REMARK    1  A    between atoms: C_1  and  C_2
REMARK    2  A    between atoms: C_3  and  C_4
REMARK    3  A    between atoms: N_9  and  C_10
REMARK                            x       y       z     vdW  Elec       q    Type
REMARK                         _______ _______ _______ _____ _____    ______ ____
ROOT
ATOM      1  C   UNL     1       5.945  14.158  17.872  0.00  0.00    +0.000 C 
ATOM      2  C   UNL     1       6.231  15.408  18.627  0.00  0.00    +0.000 A 
ATOM      3  C   UNL     1       5.427  16.511  18.887  0.00  0.00    +0.000 A 
ATOM      4  C   UNL     1       6.261  17.375  19.621  0.00  0.00    +0.000 A 
ATOM      5  N   UNL     1       7.495  16.906  19.779  0.00  0.00    +0.000 NA
ATOM      6  N   UNL     1       7.468  15.674  19.195  0.00  0.00    +0.000 N 
ATOM      7  C   UNL     1       8.634  14.871  19.226  0.00  0.00    +0.000 A 
ATOM      8  N   UNL     1       8.657  13.604  18.955  0.00  0.00    +0.000 NA
ATOM      9  N   UNL     1       9.907  13.086  18.973  0.00  0.00    +0.000 N 
ATOM     10  C   UNL     1      10.251  11.762  18.966  0.00  0.00    +0.000 A 
ATOM     11  C   UNL     1      11.625  11.676  18.875  0.00  0.00    +0.000 A 
ATOM     12  C   UNL     1      12.129  12.999  18.825  0.00  0.00    +0.000 A 
ATOM     13  C   UNL     1      11.049  13.836  18.970  0.00  0.00    +0.000 A 
ATOM     14  C   UNL     1      10.935  15.249  19.077  0.00  0.00    +0.000 A 
ATOM     15  O   UNL     1      11.780  16.054  18.707  0.00  0.00    +0.000 OA
ATOM     16  N   UNL     1       9.726  15.633  19.587  0.00  0.00    +0.000 N 
ATOM     17  H   UNL     1       9.788  15.601  20.599  0.00  0.00    +0.000 HD
ENDROOT
BRANCH   3  18
ATOM     18  C   UNL     1       4.015  16.656  18.558  0.00  0.00    +0.000 C 
ATOM     19  O   UNL     1       3.679  17.222  17.519  0.00  0.00    +0.000 OA
ATOM     20  N   UNL     1       3.076  16.072  19.397  0.00  0.00    +0.000 N 
ATOM     21  C   UNL     1       1.685  15.995  18.933  0.00  0.00    +0.000 C 
ATOM     22  C   UNL     1       1.031  14.661  19.338  0.00  0.00    +0.000 C 
ATOM     23  N   UNL     1       1.197  14.454  20.789  0.00  0.00    +0.000 N 
ATOM     24  C   UNL     1       2.597  14.496  21.256  0.00  0.00    +0.000 C 
ATOM     25  C   UNL     1       3.224  15.842  20.847  0.00  0.00    +0.000 C 
BRANCH  23  26
ATOM     26  C   UNL     1       0.234  13.818  21.545  0.00  0.00    +0.000 A 
ATOM     27  C   UNL     1      -0.137  12.480  21.333  0.00  0.00    +0.000 A 
ATOM     28  C   UNL     1      -1.169  11.878  22.061  0.00  0.00    +0.000 A 
ATOM     29  C   UNL     1      -1.859  12.621  23.018  0.00  0.00    +0.000 A 
ATOM     30 CL   UNL     1      -3.147  11.894  23.896  0.00  0.00    +0.000 Cl
ATOM     31  C   UNL     1      -1.516  13.941  23.258  0.00  0.00    +0.000 A 
ATOM     32  C   UNL     1      -0.476  14.533  22.528  0.00  0.00    +0.000 A 
ENDBRANCH  23  26
ENDBRANCH   3  18
TORSDOF 2
ENDMDL
