MODEL 1
REMARK VINA RESULT:      -5.8      0.000      0.000
REMARK  Name = 
REMARK  5 active torsions:
REMARK  status: ('A' for Active; 'I' for Inactive)
REMARK    1  A    between atoms: C_2  and  C_3
REMARK    2  A    between atoms: C_2  and  C_4
REMARK    3  A    between atoms: C_4  and  C_5
REMARK    4  A    between atoms: C_4  and  N_6
REMARK    5  A    between atoms: N_6  and  O_7
REMARK                            x       y       z     vdW  Elec       q    Type
REMARK                         _______ _______ _______ _____ _____    ______ ____
ROOT
ATOM      1  N   UNL     1       3.508   3.952  18.009  0.00  0.00    +0.000 N 
ATOM      2  C   UNL     1       4.645   4.796  18.012  0.00  0.00    +0.000 A 
ATOM      3  C   UNL     1       4.679   5.906  17.161  0.00  0.00    +0.000 A 
ATOM      4  C   UNL     1       5.765   6.787  17.186  0.00  0.00    +0.000 A 
ATOM      5  C   UNL     1       6.808   6.531  18.057  0.00  0.00    +0.000 A 
ATOM      6 CL   UNL     1       8.140   7.608  18.171  0.00  0.00    +0.000 Cl
ATOM      7  C   UNL     1       6.739   5.395  18.837  0.00  0.00    +0.000 A 
ATOM      8  N   UNL     1       5.697   4.524  18.820  0.00  0.00    +0.000 NA
ENDROOT
BRANCH   1   9
ATOM      9  C   UNL     1       3.308   3.117  19.213  0.00  0.00    +0.000 C 
ATOM     10  C   UNL     1       3.176   1.633  18.840  0.00  0.00    +0.000 C 
BRANCH   9  12
ATOM     11  C   UNL     1       0.959   2.899  20.056  0.00  0.00    +0.000 C 
ATOM     12  C   UNL     1       2.111   3.593  20.040  0.00  0.00    +0.000 C 
ATOM     13  C   UNL     1       2.233   4.876  20.812  0.00  0.00    +0.000 C 
ENDBRANCH   9  12
ENDBRANCH   1   9
BRANCH   1  14
ATOM     14  O   UNL     1       2.320   4.381  17.394  0.00  0.00    +0.000 OA
ATOM     15  H   UNL     1       1.648   4.190  18.072  0.00  0.00    +0.000 HD
ENDBRANCH   1  14
TORSDOF 3
ENDMDL
MODEL 2
REMARK VINA RESULT:      -5.7      0.447      1.035
REMARK  Name = 
REMARK  5 active torsions:
REMARK  status: ('A' for Active; 'I' for Inactive)
REMARK    1  A    between atoms: C_2  and  C_3
REMARK    2  A    between atoms: C_2  and  C_4
REMARK    3  A    between atoms: C_4  and  C_5
REMARK    4  A    between atoms: C_4  and  N_6
REMARK    5  A    between atoms: N_6  and  O_7
REMARK                            x       y       z     vdW  Elec       q    Type
REMARK                         _______ _______ _______ _____ _____    ______ ____
ROOT
ATOM      1  N   UNL     1       3.894   3.639  17.791  0.00  0.00    +0.000 N 
ATOM      2  C   UNL     1       4.918   4.618  17.784  0.00  0.00    +0.000 A 
ATOM      3  C   UNL     1       4.894   5.630  16.818  0.00  0.00    +0.000 A 
ATOM      4  C   UNL     1       5.860   6.640  16.824  0.00  0.00    +0.000 A 
ATOM      5  C   UNL     1       6.846   6.610  17.794  0.00  0.00    +0.000 A 
ATOM      6 CL   UNL     1       8.024   7.856  17.884  0.00  0.00    +0.000 Cl
ATOM      7  C   UNL     1       6.845   5.561  18.689  0.00  0.00    +0.000 A 
ATOM      8  N   UNL     1       5.920   4.567  18.694  0.00  0.00    +0.000 NA
ENDROOT
BRANCH   1   9
ATOM      9  C   UNL     1       3.690   2.912  19.063  0.00  0.00    +0.000 C 
ATOM     10  C   UNL     1       3.532   1.405  18.819  0.00  0.00    +0.000 C 
BRANCH   9  12
ATOM     11  C   UNL     1       2.623   4.628  20.543  0.00  0.00    +0.000 C 
ATOM     12  C   UNL     1       2.509   3.477  19.854  0.00  0.00    +0.000 C 
ATOM     13  C   UNL     1       1.220   2.705  19.878  0.00  0.00    +0.000 C 
ENDBRANCH   9  12
ENDBRANCH   1   9
BRANCH   1  14
ATOM     14  O   UNL     1       2.722   3.847  17.045  0.00  0.00    +0.000 OA
ATOM     15  H   UNL     1       2.468   4.753  17.296  0.00  0.00    +0.000 HD
ENDBRANCH   1  14
TORSDOF 3
ENDMDL
MODEL 3
REMARK VINA RESULT:      -5.7      2.795      5.224
REMARK  Name = 
REMARK  5 active torsions:
REMARK  status: ('A' for Active; 'I' for Inactive)
REMARK    1  A    between atoms: C_2  and  C_3
REMARK    2  A    between atoms: C_2  and  C_4
REMARK    3  A    between atoms: C_4  and  C_5
REMARK    4  A    between atoms: C_4  and  N_6
REMARK    5  A    between atoms: N_6  and  O_7
REMARK                            x       y       z     vdW  Elec       q    Type
REMARK                         _______ _______ _______ _____ _____    ______ ____
ROOT
ATOM      1  N   UNL     1       4.733   4.498  17.117  0.00  0.00    +0.000 N 
ATOM      2  C   UNL     1       3.855   4.056  18.136  0.00  0.00    +0.000 A 
ATOM      3  C   UNL     1       3.785   2.691  18.439  0.00  0.00    +0.000 A 
ATOM      4  C   UNL     1       2.970   2.236  19.479  0.00  0.00    +0.000 A 
ATOM      5  C   UNL     1       2.224   3.158  20.191  0.00  0.00    +0.000 A 
ATOM      6 CL   UNL     1       1.249   2.663  21.514  0.00  0.00    +0.000 Cl
ATOM      7  C   UNL     1       2.298   4.483  19.814  0.00  0.00    +0.000 A 
ATOM      8  N   UNL     1       3.078   4.943  18.802  0.00  0.00    +0.000 NA
ENDROOT
BRANCH   1   9
ATOM      9  C   UNL     1       5.124   5.924  17.160  0.00  0.00    +0.000 C 
ATOM     10  C   UNL     1       5.151   6.532  15.750  0.00  0.00    +0.000 C 
BRANCH   9  12
ATOM     11  C   UNL     1       7.456   6.824  17.311  0.00  0.00    +0.000 C 
ATOM     12  C   UNL     1       6.459   6.123  17.881  0.00  0.00    +0.000 C 
ATOM     13  C   UNL     1       6.652   5.490  19.230  0.00  0.00    +0.000 C 
ENDBRANCH   9  12
ENDBRANCH   1   9
BRANCH   1  14
ATOM     14  O   UNL     1       5.729   3.635  16.629  0.00  0.00    +0.000 OA
ATOM     15  H   UNL     1       5.802   3.901  15.695  0.00  0.00    +0.000 HD
ENDBRANCH   1  14
TORSDOF 3
ENDMDL
MODEL 4
REMARK VINA RESULT:      -5.7      3.019      5.254
REMARK  Name = 
REMARK  5 active torsions:
REMARK  status: ('A' for Active; 'I' for Inactive)
REMARK    1  A    between atoms: C_2  and  C_3
REMARK    2  A    between atoms: C_2  and  C_4
REMARK    3  A    between atoms: C_4  and  C_5
REMARK    4  A    between atoms: C_4  and  N_6
REMARK    5  A    between atoms: N_6  and  O_7
REMARK                            x       y       z     vdW  Elec       q    Type
REMARK                         _______ _______ _______ _____ _____    ______ ____
ROOT
ATOM      1  N   UNL     1       5.827   4.140  17.457  0.00  0.00    +0.000 N 
ATOM      2  C   UNL     1       4.571   3.818  18.027  0.00  0.00    +0.000 A 
ATOM      3  C   UNL     1       4.522   3.239  19.300  0.00  0.00    +0.000 A 
ATOM      4  C   UNL     1       3.294   2.965  19.908  0.00  0.00    +0.000 A 
ATOM      5  C   UNL     1       2.131   3.264  19.222  0.00  0.00    +0.000 A 
ATOM      6 CL   UNL     1       0.595   3.002  19.943  0.00  0.00    +0.000 Cl
ATOM      7  C   UNL     1       2.244   3.790  17.952  0.00  0.00    +0.000 A 
ATOM      8  N   UNL     1       3.428   4.055  17.342  0.00  0.00    +0.000 NA
ENDROOT
BRANCH   1   9
ATOM      9  C   UNL     1       5.819   5.151  16.378  0.00  0.00    +0.000 C 
ATOM     10  C   UNL     1       6.991   4.935  15.410  0.00  0.00    +0.000 C 
BRANCH   9  12
ATOM     11  C   UNL     1       4.659   7.259  17.076  0.00  0.00    +0.000 C 
ATOM     12  C   UNL     1       5.810   6.575  16.938  0.00  0.00    +0.000 C 
ATOM     13  C   UNL     1       7.120   7.215  17.302  0.00  0.00    +0.000 C 
ENDBRANCH   9  12
ENDBRANCH   1   9
BRANCH   1  14
ATOM     14  O   UNL     1       6.977   4.159  18.264  0.00  0.00    +0.000 OA
ATOM     15  H   UNL     1       6.901   5.014  18.723  0.00  0.00    +0.000 HD
ENDBRANCH   1  14
TORSDOF 3
ENDMDL
MODEL 5
REMARK VINA RESULT:      -5.7      3.105      5.353
REMARK  Name = 
REMARK  5 active torsions:
REMARK  status: ('A' for Active; 'I' for Inactive)
REMARK    1  A    between atoms: C_2  and  C_3
REMARK    2  A    between atoms: C_2  and  C_4
REMARK    3  A    between atoms: C_4  and  C_5
REMARK    4  A    between atoms: C_4  and  N_6
REMARK    5  A    between atoms: N_6  and  O_7
REMARK                            x       y       z     vdW  Elec       q    Type
REMARK                         _______ _______ _______ _____ _____    ______ ____
ROOT
ATOM      1  N   UNL     1       5.834   4.096  17.528  0.00  0.00    +0.000 N 
ATOM      2  C   UNL     1       4.545   3.658  17.917  0.00  0.00    +0.000 A 
ATOM      3  C   UNL     1       4.368   3.072  19.175  0.00  0.00    +0.000 A 
ATOM      4  C   UNL     1       3.096   2.683  19.605  0.00  0.00    +0.000 A 
ATOM      5  C   UNL     1       2.021   2.877  18.757  0.00  0.00    +0.000 A 
ATOM      6 CL   UNL     1       0.428   2.472  19.254  0.00  0.00    +0.000 Cl
ATOM      7  C   UNL     1       2.265   3.416  17.511  0.00  0.00    +0.000 A 
ATOM      8  N   UNL     1       3.494   3.791  17.073  0.00  0.00    +0.000 NA
ENDROOT
BRANCH   1   9
ATOM      9  C   UNL     1       5.887   5.106  16.449  0.00  0.00    +0.000 C 
ATOM     10  C   UNL     1       7.111   4.888  15.547  0.00  0.00    +0.000 C 
BRANCH   9  12
ATOM     11  C   UNL     1       6.987   7.198  17.280  0.00  0.00    +0.000 C 
ATOM     12  C   UNL     1       5.850   6.531  17.006  0.00  0.00    +0.000 C 
ATOM     13  C   UNL     1       4.516   7.166  17.276  0.00  0.00    +0.000 C 
ENDBRANCH   9  12
ENDBRANCH   1   9
BRANCH   1  14
ATOM     14  O   UNL     1       6.851   4.218  18.490  0.00  0.00    +0.000 OA
ATOM     15  H   UNL     1       7.658   4.239  17.946  0.00  0.00    +0.000 HD
ENDBRANCH   1  14
TORSDOF 3
ENDMDL
MODEL 6
REMARK VINA RESULT:      -5.6      2.028      2.555
REMARK  Name = 
REMARK  5 active torsions:
REMARK  status: ('A' for Active; 'I' for Inactive)
REMARK    1  A    between atoms: C_2  and  C_3
REMARK    2  A    between atoms: C_2  and  C_4
REMARK    3  A    between atoms: C_4  and  C_5
REMARK    4  A    between atoms: C_4  and  N_6
REMARK    5  A    between atoms: N_6  and  O_7
REMARK                            x       y       z     vdW  Elec       q    Type
REMARK                         _______ _______ _______ _____ _____    ______ ____
ROOT
ATOM      1  N   UNL     1       3.112   4.868  18.947  0.00  0.00    +0.000 N 
ATOM      2  C   UNL     1       4.047   4.927  17.884  0.00  0.00    +0.000 A 
ATOM      3  C   UNL     1       4.983   5.968  17.850  0.00  0.00    +0.000 A 
ATOM      4  C   UNL     1       5.951   6.018  16.844  0.00  0.00    +0.000 A 
ATOM      5  C   UNL     1       5.957   5.028  15.877  0.00  0.00    +0.000 A 
ATOM      6 CL   UNL     1       7.159   5.008  14.651  0.00  0.00    +0.000 Cl
ATOM      7  C   UNL     1       4.980   4.056  15.937  0.00  0.00    +0.000 A 
ATOM      8  N   UNL     1       4.026   3.996  16.901  0.00  0.00    +0.000 NA
ENDROOT
BRANCH   1   9
ATOM      9  C   UNL     1       2.494   3.549  19.203  0.00  0.00    +0.000 C 
ATOM     10  C   UNL     1       0.985   3.686  19.453  0.00  0.00    +0.000 C 
BRANCH   9  12
ATOM     11  C   UNL     1       4.407   2.269  20.190  0.00  0.00    +0.000 C 
ATOM     12  C   UNL     1       3.187   2.812  20.351  0.00  0.00    +0.000 C 
ATOM     13  C   UNL     1       2.463   2.675  21.661  0.00  0.00    +0.000 C 
ENDBRANCH   9  12
ENDBRANCH   1   9
BRANCH   1  14
ATOM     14  O   UNL     1       3.309   5.652  20.096  0.00  0.00    +0.000 OA
ATOM     15  H   UNL     1       3.511   4.985  20.777  0.00  0.00    +0.000 HD
ENDBRANCH   1  14
TORSDOF 3
ENDMDL
MODEL 7
REMARK VINA RESULT:      -5.6      3.078      5.082
REMARK  Name = 
REMARK  5 active torsions:
REMARK  status: ('A' for Active; 'I' for Inactive)
REMARK    1  A    between atoms: C_2  and  C_3
REMARK    2  A    between atoms: C_2  and  C_4
REMARK    3  A    between atoms: C_4  and  C_5
REMARK    4  A    between atoms: C_4  and  N_6
REMARK    5  A    between atoms: N_6  and  O_7
REMARK                            x       y       z     vdW  Elec       q    Type
REMARK                         _______ _______ _______ _____ _____    ______ ____
ROOT
ATOM      1  N   UNL     1       5.497   5.244  18.404  0.00  0.00    +0.000 N 
ATOM      2  C   UNL     1       4.539   4.607  19.231  0.00  0.00    +0.000 A 
ATOM      3  C   UNL     1       3.433   5.334  19.686  0.00  0.00    +0.000 A 
ATOM      4  C   UNL     1       2.445   4.715  20.456  0.00  0.00    +0.000 A 
ATOM      5  C   UNL     1       2.590   3.375  20.770  0.00  0.00    +0.000 A 
ATOM      6 CL   UNL     1       1.379   2.549  21.664  0.00  0.00    +0.000 Cl
ATOM      7  C   UNL     1       3.725   2.725  20.333  0.00  0.00    +0.000 A 
ATOM      8  N   UNL     1       4.699   3.312  19.591  0.00  0.00    +0.000 NA
ENDROOT
BRANCH   1   9
ATOM      9  C   UNL     1       6.346   4.355  17.580  0.00  0.00    +0.000 C 
ATOM     10  C   UNL     1       7.836   4.646  17.813  0.00  0.00    +0.000 C 
BRANCH   9  12
ATOM     11  C   UNL     1       4.779   4.042  15.652  0.00  0.00    +0.000 C 
ATOM     12  C   UNL     1       5.984   4.443  16.096  0.00  0.00    +0.000 C 
ATOM     13  C   UNL     1       7.014   4.957  15.131  0.00  0.00    +0.000 C 
ENDBRANCH   9  12
ENDBRANCH   1   9
BRANCH   1  14
ATOM     14  O   UNL     1       5.194   6.479  17.806  0.00  0.00    +0.000 OA
ATOM     15  H   UNL     1       6.076   6.865  17.658  0.00  0.00    +0.000 HD
ENDBRANCH   1  14
TORSDOF 3
ENDMDL
MODEL 8
REMARK VINA RESULT:      -5.6      3.046      5.315
REMARK  Name = 
REMARK  5 active torsions:
REMARK  status: ('A' for Active; 'I' for Inactive)
REMARK    1  A    between atoms: C_2  and  C_3
REMARK    2  A    between atoms: C_2  and  C_4
REMARK    3  A    between atoms: C_4  and  C_5
REMARK    4  A    between atoms: C_4  and  N_6
REMARK    5  A    between atoms: N_6  and  O_7
REMARK                            x       y       z     vdW  Elec       q    Type
REMARK                         _______ _______ _______ _____ _____    ______ ____
ROOT
ATOM      1  N   UNL     1       5.742   4.520  18.752  0.00  0.00    +0.000 N 
ATOM      2  C   UNL     1       4.471   3.895  18.749  0.00  0.00    +0.000 A 
ATOM      3  C   UNL     1       3.684   3.933  19.905  0.00  0.00    +0.000 A 
ATOM      4  C   UNL     1       2.403   3.373  19.910  0.00  0.00    +0.000 A 
ATOM      5  C   UNL     1       1.937   2.770  18.756  0.00  0.00    +0.000 A 
ATOM      6 CL   UNL     1       0.351   2.117  18.686  0.00  0.00    +0.000 Cl
ATOM      7  C   UNL     1       2.778   2.722  17.663  0.00  0.00    +0.000 A 
ATOM      8  N   UNL     1       4.028   3.253  17.642  0.00  0.00    +0.000 NA
ENDROOT
BRANCH   1   9
ATOM      9  C   UNL     1       6.306   4.869  17.430  0.00  0.00    +0.000 C 
ATOM     10  C   UNL     1       7.786   4.470  17.338  0.00  0.00    +0.000 C 
BRANCH   9  12
ATOM     11  C   UNL     1       4.946   6.791  16.578  0.00  0.00    +0.000 C 
ATOM     12  C   UNL     1       6.104   6.350  17.102  0.00  0.00    +0.000 C 
ATOM     13  C   UNL     1       7.238   7.304  17.344  0.00  0.00    +0.000 C 
ENDBRANCH   9  12
ENDBRANCH   1   9
BRANCH   1  14
ATOM     14  O   UNL     1       6.079   5.413  19.783  0.00  0.00    +0.000 OA
ATOM     15  H   UNL     1       6.081   6.274  19.327  0.00  0.00    +0.000 HD
ENDBRANCH   1  14
TORSDOF 3
ENDMDL
MODEL 9
REMARK VINA RESULT:      -5.6      1.166      1.443
REMARK  Name = 
REMARK  5 active torsions:
REMARK  status: ('A' for Active; 'I' for Inactive)
REMARK    1  A    between atoms: C_2  and  C_3
REMARK    2  A    between atoms: C_2  and  C_4
REMARK    3  A    between atoms: C_4  and  C_5
REMARK    4  A    between atoms: C_4  and  N_6
REMARK    5  A    between atoms: N_6  and  O_7
REMARK                            x       y       z     vdW  Elec       q    Type
REMARK                         _______ _______ _______ _____ _____    ______ ____
ROOT
ATOM      1  N   UNL     1       2.347   3.780  17.990  0.00  0.00    +0.000 N 
ATOM      2  C   UNL     1       3.628   4.377  18.080  0.00  0.00    +0.000 A 
ATOM      3  C   UNL     1       3.898   5.540  17.349  0.00  0.00    +0.000 A 
ATOM      4  C   UNL     1       5.135   6.180  17.464  0.00  0.00    +0.000 A 
ATOM      5  C   UNL     1       6.090   5.634  18.303  0.00  0.00    +0.000 A 
ATOM      6 CL   UNL     1       7.606   6.409  18.527  0.00  0.00    +0.000 Cl
ATOM      7  C   UNL     1       5.783   4.461  18.961  0.00  0.00    +0.000 A 
ATOM      8  N   UNL     1       4.590   3.821  18.855  0.00  0.00    +0.000 NA
ENDROOT
BRANCH   1   9
ATOM      9  C   UNL     1       1.962   2.883  19.101  0.00  0.00    +0.000 C 
ATOM     10  C   UNL     1       0.670   2.121  18.773  0.00  0.00    +0.000 C 
BRANCH   9  12
ATOM     11  C   UNL     1       1.301   4.870  20.474  0.00  0.00    +0.000 C 
ATOM     12  C   UNL     1       1.844   3.640  20.426  0.00  0.00    +0.000 C 
ATOM     13  C   UNL     1       2.378   2.997  21.675  0.00  0.00    +0.000 C 
ENDBRANCH   9  12
ENDBRANCH   1   9
BRANCH   1  14
ATOM     14  O   UNL     1       1.280   4.497  17.424  0.00  0.00    +0.000 OA
ATOM     15  H   UNL     1       1.061   3.967  16.637  0.00  0.00    +0.000 HD
ENDBRANCH   1  14
TORSDOF 3
ENDMDL
