MODEL 1
REMARK VINA RESULT:      -7.7      0.000      0.000
REMARK  Name = 
REMARK  15 active torsions:
REMARK  status: ('A' for Active; 'I' for Inactive)
REMARK    1  A    between atoms: C_1  and  C_2
REMARK    2  A    between atoms: C_2  and  O_3
REMARK    3  A    between atoms: O_3  and  C_4
REMARK    4  A    between atoms: C_9  and  O_10
REMARK    5  A    between atoms: O_10  and  C_11
REMARK    6  A    between atoms: C_11  and  C_12
REMARK    7  A    between atoms: C_12  and  N_13
REMARK    8  A    between atoms: N_13  and  C_14
REMARK    9  A    between atoms: C_14  and  C_15
REMARK   10  A    between atoms: C_14  and  C_16
REMARK   11  A    between atoms: C_16  and  C_17
REMARK   12  A    between atoms: C_20  and  O_21
REMARK   13  A    between atoms: O_21  and  C_22
REMARK   14  A    between atoms: C_23  and  S_24
REMARK   15  A    between atoms: S_24  and  N_25
REMARK                            x       y       z     vdW  Elec       q    Type
REMARK                         _______ _______ _______ _____ _____    ______ ____
ROOT
ATOM      1  C   UNL     1       1.523   2.987  18.264  0.00  0.00    +0.000 C 
ATOM      2  C   UNL     1       1.682   4.305  17.501  0.00  0.00    +0.000 C 
ENDROOT
BRANCH   1   3
ATOM      3  N   UNL     1       0.875   3.216  19.578  0.00  0.00    +0.000 NA
ATOM      4  H   UNL     1       0.102   3.871  19.439  0.00  0.00    +0.000 HD
BRANCH   3   5
ATOM      5  C   UNL     1       1.782   3.806  20.598  0.00  0.00    +0.000 C 
BRANCH   5   6
ATOM      6  C   UNL     1       1.554   5.313  20.754  0.00  0.00    +0.000 C 
BRANCH   6   7
ATOM      7  O   UNL     1       2.607   6.145  20.293  0.00  0.00    +0.000 OA
BRANCH   7  13
ATOM      8  C   UNL     1       1.410   8.370  20.345  0.00  0.00    +0.000 A 
ATOM      9  C   UNL     1       1.147   9.551  19.642  0.00  0.00    +0.000 A 
ATOM     10  C   UNL     1       1.530   9.682  18.315  0.00  0.00    +0.000 A 
ATOM     11  C   UNL     1       2.220   8.646  17.688  0.00  0.00    +0.000 A 
ATOM     12  C   UNL     1       2.558   7.498  18.405  0.00  0.00    +0.000 A 
ATOM     13  C   UNL     1       2.176   7.342  19.741  0.00  0.00    +0.000 A 
BRANCH   8  14
ATOM     14  O   UNL     1       0.935   8.236  21.619  0.00  0.00    +0.000 OA
BRANCH  14  16
ATOM     15  C   UNL     1      -0.368   9.778  23.085  0.00  0.00    +0.000 C 
ATOM     16  C   UNL     1      -0.341   8.827  21.897  0.00  0.00    +0.000 C 
ENDBRANCH  14  16
ENDBRANCH   8  14
ENDBRANCH   7  13
ENDBRANCH   6   7
ENDBRANCH   5   6
ENDBRANCH   3   5
ENDBRANCH   1   3
BRANCH   1  17
ATOM     17  C   UNL     1       2.895   2.294  18.406  0.00  0.00    +0.000 C 
BRANCH  17  18
ATOM     18  C   UNL     1       4.100   3.192  18.191  0.00  0.00    +0.000 A 
ATOM     19  C   UNL     1       4.801   3.695  19.285  0.00  0.00    +0.000 A 
ATOM     20  C   UNL     1       5.804   4.646  19.104  0.00  0.00    +0.000 A 
ATOM     21  C   UNL     1       6.107   5.139  17.827  0.00  0.00    +0.000 A 
ATOM     22  C   UNL     1       5.472   4.581  16.716  0.00  0.00    +0.000 A 
ATOM     23  C   UNL     1       4.468   3.615  16.902  0.00  0.00    +0.000 A 
BRANCH  22  24
ATOM     24  S   UNL     1       5.769   5.206  15.078  0.00  0.00    +0.000 S 
ATOM     25  O   UNL     1       5.345   4.214  14.118  0.00  0.00    +0.000 OA
ATOM     26  O   UNL     1       5.269   6.563  15.012  0.00  0.00    +0.000 OA
BRANCH  24  27
ATOM     27  N   UNL     1       7.448   5.313  14.958  0.00  0.00    +0.000 NA
ATOM     28  H   UNL     1       7.823   4.888  14.111  0.00  0.00    +0.000 HD
ATOM     29  H   UNL     1       7.854   4.897  15.796  0.00  0.00    +0.000 HD
ENDBRANCH  24  27
ENDBRANCH  22  24
BRANCH  21  30
ATOM     30  O   UNL     1       7.014   6.150  17.647  0.00  0.00    +0.000 OA
ATOM     31  C   UNL     1       7.843   6.379  18.792  0.00  0.00    +0.000 C 
ENDBRANCH  21  30
ENDBRANCH  17  18
ENDBRANCH   1  17
TORSDOF 12
ENDMDL
MODEL 2
REMARK VINA RESULT:      -7.4      3.160      7.160
REMARK  Name = 
REMARK  15 active torsions:
REMARK  status: ('A' for Active; 'I' for Inactive)
REMARK    1  A    between atoms: C_1  and  C_2
REMARK    2  A    between atoms: C_2  and  O_3
REMARK    3  A    between atoms: O_3  and  C_4
REMARK    4  A    between atoms: C_9  and  O_10
REMARK    5  A    between atoms: O_10  and  C_11
REMARK    6  A    between atoms: C_11  and  C_12
REMARK    7  A    between atoms: C_12  and  N_13
REMARK    8  A    between atoms: N_13  and  C_14
REMARK    9  A    between atoms: C_14  and  C_15
REMARK   10  A    between atoms: C_14  and  C_16
REMARK   11  A    between atoms: C_16  and  C_17
REMARK   12  A    between atoms: C_20  and  O_21
REMARK   13  A    between atoms: O_21  and  C_22
REMARK   14  A    between atoms: C_23  and  S_24
REMARK   15  A    between atoms: S_24  and  N_25
REMARK                            x       y       z     vdW  Elec       q    Type
REMARK                         _______ _______ _______ _____ _____    ______ ____
ROOT
ATOM      1  C   UNL     1       1.741   5.052  19.484  0.00  0.00    +0.000 C 
ATOM      2  C   UNL     1       1.322   3.951  20.463  0.00  0.00    +0.000 C 
ENDROOT
BRANCH   1   3
ATOM      3  N   UNL     1       2.704   4.527  18.486  0.00  0.00    +0.000 NA
ATOM      4  H   UNL     1       2.171   4.189  17.681  0.00  0.00    +0.000 HD
BRANCH   3   5
ATOM      5  C   UNL     1       3.526   3.394  18.985  0.00  0.00    +0.000 C 
BRANCH   5   6
ATOM      6  C   UNL     1       4.847   3.877  19.591  0.00  0.00    +0.000 C 
BRANCH   6   7
ATOM      7  O   UNL     1       5.978   3.807  18.738  0.00  0.00    +0.000 OA
BRANCH   7  13
ATOM      8  C   UNL     1       5.887   5.798  17.186  0.00  0.00    +0.000 A 
ATOM      9  C   UNL     1       6.401   7.072  16.916  0.00  0.00    +0.000 A 
ATOM     10  C   UNL     1       7.491   7.556  17.624  0.00  0.00    +0.000 A 
ATOM     11  C   UNL     1       8.054   6.786  18.641  0.00  0.00    +0.000 A 
ATOM     12  C   UNL     1       7.497   5.550  18.970  0.00  0.00    +0.000 A 
ATOM     13  C   UNL     1       6.403   5.040  18.265  0.00  0.00    +0.000 A 
BRANCH   8  14
ATOM     14  O   UNL     1       4.874   5.314  16.406  0.00  0.00    +0.000 OA
BRANCH  14  16
ATOM     15  C   UNL     1       6.658   4.289  14.996  0.00  0.00    +0.000 C 
ATOM     16  C   UNL     1       5.237   4.820  15.110  0.00  0.00    +0.000 C 
ENDBRANCH  14  16
ENDBRANCH   8  14
ENDBRANCH   7  13
ENDBRANCH   6   7
ENDBRANCH   5   6
ENDBRANCH   3   5
ENDBRANCH   1   3
BRANCH   1  17
ATOM     17  C   UNL     1       2.310   6.256  20.263  0.00  0.00    +0.000 C 
BRANCH  17  18
ATOM     18  C   UNL     1       1.847   7.618  19.781  0.00  0.00    +0.000 A 
ATOM     19  C   UNL     1       2.179   8.059  18.502  0.00  0.00    +0.000 A 
ATOM     20  C   UNL     1       1.899   9.367  18.110  0.00  0.00    +0.000 A 
ATOM     21  C   UNL     1       1.308  10.274  19.000  0.00  0.00    +0.000 A 
ATOM     22  C   UNL     1       0.893   9.822  20.254  0.00  0.00    +0.000 A 
ATOM     23  C   UNL     1       1.169   8.500  20.642  0.00  0.00    +0.000 A 
BRANCH  22  24
ATOM     24  S   UNL     1       0.195  10.939  21.448  0.00  0.00    +0.000 S 
ATOM     25  O   UNL     1      -1.122  11.331  21.004  0.00  0.00    +0.000 OA
ATOM     26  O   UNL     1       0.398  10.378  22.768  0.00  0.00    +0.000 OA
BRANCH  24  27
ATOM     27  N   UNL     1       1.166  12.316  21.366  0.00  0.00    +0.000 NA
ATOM     28  H   UNL     1       1.002  12.976  22.124  0.00  0.00    +0.000 HD
ATOM     29  H   UNL     1       1.024  12.752  20.454  0.00  0.00    +0.000 HD
ENDBRANCH  24  27
ENDBRANCH  22  24
BRANCH  21  30
ATOM     30  O   UNL     1       1.127  11.590  18.665  0.00  0.00    +0.000 OA
ATOM     31  C   UNL     1       2.302  12.204  18.121  0.00  0.00    +0.000 C 
ENDBRANCH  21  30
ENDBRANCH  17  18
ENDBRANCH   1  17
TORSDOF 12
ENDMDL
MODEL 3
REMARK VINA RESULT:      -7.3      4.497      7.279
REMARK  Name = 
REMARK  15 active torsions:
REMARK  status: ('A' for Active; 'I' for Inactive)
REMARK    1  A    between atoms: C_1  and  C_2
REMARK    2  A    between atoms: C_2  and  O_3
REMARK    3  A    between atoms: O_3  and  C_4
REMARK    4  A    between atoms: C_9  and  O_10
REMARK    5  A    between atoms: O_10  and  C_11
REMARK    6  A    between atoms: C_11  and  C_12
REMARK    7  A    between atoms: C_12  and  N_13
REMARK    8  A    between atoms: N_13  and  C_14
REMARK    9  A    between atoms: C_14  and  C_15
REMARK   10  A    between atoms: C_14  and  C_16
REMARK   11  A    between atoms: C_16  and  C_17
REMARK   12  A    between atoms: C_20  and  O_21
REMARK   13  A    between atoms: O_21  and  C_22
REMARK   14  A    between atoms: C_23  and  S_24
REMARK   15  A    between atoms: S_24  and  N_25
REMARK                            x       y       z     vdW  Elec       q    Type
REMARK                         _______ _______ _______ _____ _____    ______ ____
ROOT
ATOM      1  C   UNL     1       7.133   6.190  16.895  0.00  0.00    +0.000 C 
ATOM      2  C   UNL     1       6.960   5.635  18.312  0.00  0.00    +0.000 C 
ENDROOT
BRANCH   1   3
ATOM      3  N   UNL     1       7.582   7.602  16.936  0.00  0.00    +0.000 NA
ATOM      4  H   UNL     1       8.321   7.720  16.239  0.00  0.00    +0.000 HD
BRANCH   3   5
ATOM      5  C   UNL     1       8.139   8.015  18.251  0.00  0.00    +0.000 C 
BRANCH   5   6
ATOM      6  C   UNL     1       8.536   9.495  18.258  0.00  0.00    +0.000 C 
BRANCH   6   7
ATOM      7  O   UNL     1       9.294   9.924  19.378  0.00  0.00    +0.000 OA
BRANCH   7  13
ATOM      8  C   UNL     1      10.373  12.079  20.134  0.00  0.00    +0.000 A 
ATOM      9  C   UNL     1      11.126  13.190  19.737  0.00  0.00    +0.000 A 
ATOM     10  C   UNL     1      11.385  13.423  18.394  0.00  0.00    +0.000 A 
ATOM     11  C   UNL     1      10.927  12.521  17.434  0.00  0.00    +0.000 A 
ATOM     12  C   UNL     1      10.245  11.369  17.828  0.00  0.00    +0.000 A 
ATOM     13  C   UNL     1       9.968  11.119  19.175  0.00  0.00    +0.000 A 
BRANCH   8  14
ATOM     14  O   UNL     1      10.055  11.932  21.455  0.00  0.00    +0.000 OA
BRANCH  14  16
ATOM     15  C   UNL     1       7.963  11.720  22.798  0.00  0.00    +0.000 C 
ATOM     16  C   UNL     1       8.854  12.572  21.906  0.00  0.00    +0.000 C 
ENDBRANCH  14  16
ENDBRANCH   8  14
ENDBRANCH   7  13
ENDBRANCH   6   7
ENDBRANCH   5   6
ENDBRANCH   3   5
ENDBRANCH   1   3
BRANCH   1  17
ATOM     17  C   UNL     1       5.821   6.020  16.102  0.00  0.00    +0.000 C 
BRANCH  17  18
ATOM     18  C   UNL     1       4.585   5.755  16.941  0.00  0.00    +0.000 A 
ATOM     19  C   UNL     1       3.847   6.819  17.455  0.00  0.00    +0.000 A 
ATOM     20  C   UNL     1       2.810   6.589  18.358  0.00  0.00    +0.000 A 
ATOM     21  C   UNL     1       2.508   5.290  18.791  0.00  0.00    +0.000 A 
ATOM     22  C   UNL     1       3.182   4.210  18.219  0.00  0.00    +0.000 A 
ATOM     23  C   UNL     1       4.220   4.446  17.302  0.00  0.00    +0.000 A 
BRANCH  22  24
ATOM     24  S   UNL     1       2.887   2.546  18.772  0.00  0.00    +0.000 S 
ATOM     25  O   UNL     1       3.221   2.456  20.174  0.00  0.00    +0.000 OA
ATOM     26  O   UNL     1       1.586   2.131  18.291  0.00  0.00    +0.000 OA
BRANCH  24  27
ATOM     27  N   UNL     1       4.019   1.612  17.942  0.00  0.00    +0.000 NA
ATOM     28  H   UNL     1       3.692   1.290  17.032  0.00  0.00    +0.000 HD
ATOM     29  H   UNL     1       4.287   0.830  18.540  0.00  0.00    +0.000 HD
ENDBRANCH  24  27
ENDBRANCH  22  24
BRANCH  21  30
ATOM     30  O   UNL     1       1.565   5.060  19.758  0.00  0.00    +0.000 OA
ATOM     31  C   UNL     1       1.710   5.907  20.905  0.00  0.00    +0.000 C 
ENDBRANCH  21  30
ENDBRANCH  17  18
ENDBRANCH   1  17
TORSDOF 12
ENDMDL
MODEL 4
REMARK VINA RESULT:      -7.2      2.059      3.668
REMARK  Name = 
REMARK  15 active torsions:
REMARK  status: ('A' for Active; 'I' for Inactive)
REMARK    1  A    between atoms: C_1  and  C_2
REMARK    2  A    between atoms: C_2  and  O_3
REMARK    3  A    between atoms: O_3  and  C_4
REMARK    4  A    between atoms: C_9  and  O_10
REMARK    5  A    between atoms: O_10  and  C_11
REMARK    6  A    between atoms: C_11  and  C_12
REMARK    7  A    between atoms: C_12  and  N_13
REMARK    8  A    between atoms: N_13  and  C_14
REMARK    9  A    between atoms: C_14  and  C_15
REMARK   10  A    between atoms: C_14  and  C_16
REMARK   11  A    between atoms: C_16  and  C_17
REMARK   12  A    between atoms: C_20  and  O_21
REMARK   13  A    between atoms: O_21  and  C_22
REMARK   14  A    between atoms: C_23  and  S_24
REMARK   15  A    between atoms: S_24  and  N_25
REMARK                            x       y       z     vdW  Elec       q    Type
REMARK                         _______ _______ _______ _____ _____    ______ ____
ROOT
ATOM      1  C   UNL     1       2.093   3.780  21.127  0.00  0.00    +0.000 C 
ATOM      2  C   UNL     1       0.800   3.736  20.308  0.00  0.00    +0.000 C 
ENDROOT
BRANCH   1   3
ATOM      3  N   UNL     1       2.557   5.177  21.299  0.00  0.00    +0.000 NA
ATOM      4  H   UNL     1       2.379   5.453  22.268  0.00  0.00    +0.000 HD
BRANCH   3   5
ATOM      5  C   UNL     1       1.858   6.153  20.421  0.00  0.00    +0.000 C 
BRANCH   5   6
ATOM      6  C   UNL     1       1.252   7.306  21.227  0.00  0.00    +0.000 C 
BRANCH   6   7
ATOM      7  O   UNL     1       1.639   8.610  20.823  0.00  0.00    +0.000 OA
BRANCH   7  13
ATOM      8  C   UNL     1       0.491  10.852  20.637  0.00  0.00    +0.000 A 
ATOM      9  C   UNL     1      -0.482  11.696  21.186  0.00  0.00    +0.000 A 
ATOM     10  C   UNL     1      -1.091  11.380  22.391  0.00  0.00    +0.000 A 
ATOM     11  C   UNL     1      -0.762  10.192  23.043  0.00  0.00    +0.000 A 
ATOM     12  C   UNL     1       0.148   9.306  22.463  0.00  0.00    +0.000 A 
ATOM     13  C   UNL     1       0.778   9.608  21.252  0.00  0.00    +0.000 A 
BRANCH   8  14
ATOM     14  O   UNL     1       1.139  11.240  19.499  0.00  0.00    +0.000 OA
BRANCH  14  16
ATOM     15  C   UNL     1       2.510  13.322  19.577  0.00  0.00    +0.000 C 
ATOM     16  C   UNL     1       1.190  12.648  19.233  0.00  0.00    +0.000 C 
ENDBRANCH  14  16
ENDBRANCH   8  14
ENDBRANCH   7  13
ENDBRANCH   6   7
ENDBRANCH   5   6
ENDBRANCH   3   5
ENDBRANCH   1   3
BRANCH   1  17
ATOM     17  C   UNL     1       3.164   2.889  20.464  0.00  0.00    +0.000 C 
BRANCH  17  18
ATOM     18  C   UNL     1       3.856   3.495  19.257  0.00  0.00    +0.000 A 
ATOM     19  C   UNL     1       3.294   3.363  17.989  0.00  0.00    +0.000 A 
ATOM     20  C   UNL     1       3.999   3.772  16.859  0.00  0.00    +0.000 A 
ATOM     21  C   UNL     1       5.296   4.293  16.968  0.00  0.00    +0.000 A 
ATOM     22  C   UNL     1       5.835   4.509  18.237  0.00  0.00    +0.000 A 
ATOM     23  C   UNL     1       5.117   4.105  19.375  0.00  0.00    +0.000 A 
BRANCH  22  24
ATOM     24  S   UNL     1       7.497   5.109  18.439  0.00  0.00    +0.000 S 
ATOM     25  O   UNL     1       7.686   5.501  19.816  0.00  0.00    +0.000 OA
ATOM     26  O   UNL     1       8.399   4.171  17.803  0.00  0.00    +0.000 OA
BRANCH  24  27
ATOM     27  N   UNL     1       7.558   6.521  17.519  0.00  0.00    +0.000 NA
ATOM     28  H   UNL     1       8.464   6.986  17.546  0.00  0.00    +0.000 HD
ATOM     29  H   UNL     1       6.811   7.140  17.835  0.00  0.00    +0.000 HD
ENDBRANCH  24  27
ENDBRANCH  22  24
BRANCH  21  30
ATOM     30  O   UNL     1       6.041   4.597  15.858  0.00  0.00    +0.000 OA
ATOM     31  C   UNL     1       5.412   5.554  14.998  0.00  0.00    +0.000 C 
ENDBRANCH  21  30
ENDBRANCH  17  18
ENDBRANCH   1  17
TORSDOF 12
ENDMDL
MODEL 5
REMARK VINA RESULT:      -7.2      2.037      3.393
REMARK  Name = 
REMARK  15 active torsions:
REMARK  status: ('A' for Active; 'I' for Inactive)
REMARK    1  A    between atoms: C_1  and  C_2
REMARK    2  A    between atoms: C_2  and  O_3
REMARK    3  A    between atoms: O_3  and  C_4
REMARK    4  A    between atoms: C_9  and  O_10
REMARK    5  A    between atoms: O_10  and  C_11
REMARK    6  A    between atoms: C_11  and  C_12
REMARK    7  A    between atoms: C_12  and  N_13
REMARK    8  A    between atoms: N_13  and  C_14
REMARK    9  A    between atoms: C_14  and  C_15
REMARK   10  A    between atoms: C_14  and  C_16
REMARK   11  A    between atoms: C_16  and  C_17
REMARK   12  A    between atoms: C_20  and  O_21
REMARK   13  A    between atoms: O_21  and  C_22
REMARK   14  A    between atoms: C_23  and  S_24
REMARK   15  A    between atoms: S_24  and  N_25
REMARK                            x       y       z     vdW  Elec       q    Type
REMARK                         _______ _______ _______ _____ _____    ______ ____
ROOT
ATOM      1  C   UNL     1       2.301   3.589  20.733  0.00  0.00    +0.000 C 
ATOM      2  C   UNL     1       1.430   2.727  21.651  0.00  0.00    +0.000 C 
ENDROOT
BRANCH   1   3
ATOM      3  N   UNL     1       1.461   4.480  19.898  0.00  0.00    +0.000 NA
ATOM      4  H   UNL     1       1.995   4.724  19.060  0.00  0.00    +0.000 HD
BRANCH   3   5
ATOM      5  C   UNL     1       1.082   5.750  20.571  0.00  0.00    +0.000 C 
BRANCH   5   6
ATOM      6  C   UNL     1       2.191   6.800  20.465  0.00  0.00    +0.000 C 
BRANCH   6   7
ATOM      7  O   UNL     1       1.852   7.986  19.763  0.00  0.00    +0.000 OA
BRANCH   7  13
ATOM      8  C   UNL     1       0.194   9.874  20.022  0.00  0.00    +0.000 A 
ATOM      9  C   UNL     1      -0.581  10.609  20.926  0.00  0.00    +0.000 A 
ATOM     10  C   UNL     1      -0.419  10.440  22.294  0.00  0.00    +0.000 A 
ATOM     11  C   UNL     1       0.494   9.501  22.772  0.00  0.00    +0.000 A 
ATOM     12  C   UNL     1       1.212   8.707  21.877  0.00  0.00    +0.000 A 
ATOM     13  C   UNL     1       1.069   8.866  20.495  0.00  0.00    +0.000 A 
BRANCH   8  14
ATOM     14  O   UNL     1       0.077  10.134  18.685  0.00  0.00    +0.000 OA
BRANCH  14  16
ATOM     15  C   UNL     1      -2.185  10.027  17.640  0.00  0.00    +0.000 C 
ATOM     16  C   UNL     1      -1.083  10.866  18.269  0.00  0.00    +0.000 C 
ENDBRANCH  14  16
ENDBRANCH   8  14
ENDBRANCH   7  13
ENDBRANCH   6   7
ENDBRANCH   5   6
ENDBRANCH   3   5
ENDBRANCH   1   3
BRANCH   1  17
ATOM     17  C   UNL     1       3.216   2.686  19.880  0.00  0.00    +0.000 C 
BRANCH  17  18
ATOM     18  C   UNL     1       3.964   3.390  18.763  0.00  0.00    +0.000 A 
ATOM     19  C   UNL     1       3.502   3.308  17.451  0.00  0.00    +0.000 A 
ATOM     20  C   UNL     1       4.267   3.812  16.400  0.00  0.00    +0.000 A 
ATOM     21  C   UNL     1       5.526   4.381  16.635  0.00  0.00    +0.000 A 
ATOM     22  C   UNL     1       5.961   4.547  17.950  0.00  0.00    +0.000 A 
ATOM     23  C   UNL     1       5.183   4.047  19.008  0.00  0.00    +0.000 A 
BRANCH  22  24
ATOM     24  S   UNL     1       7.574   5.206  18.308  0.00  0.00    +0.000 S 
ATOM     25  O   UNL     1       8.567   4.212  17.976  0.00  0.00    +0.000 OA
ATOM     26  O   UNL     1       7.650   6.544  17.759  0.00  0.00    +0.000 OA
BRANCH  24  27
ATOM     27  N   UNL     1       7.603   5.380  19.985  0.00  0.00    +0.000 NA
ATOM     28  H   UNL     1       7.826   6.325  20.293  0.00  0.00    +0.000 HD
ATOM     29  H   UNL     1       8.260   4.699  20.365  0.00  0.00    +0.000 HD
ENDBRANCH  24  27
ENDBRANCH  22  24
BRANCH  21  30
ATOM     30  O   UNL     1       6.333   4.781  15.602  0.00  0.00    +0.000 OA
ATOM     31  C   UNL     1       5.933   4.254  14.332  0.00  0.00    +0.000 C 
ENDBRANCH  21  30
ENDBRANCH  17  18
ENDBRANCH   1  17
TORSDOF 12
ENDMDL
MODEL 6
REMARK VINA RESULT:      -7.2      4.849      7.432
REMARK  Name = 
REMARK  15 active torsions:
REMARK  status: ('A' for Active; 'I' for Inactive)
REMARK    1  A    between atoms: C_1  and  C_2
REMARK    2  A    between atoms: C_2  and  O_3
REMARK    3  A    between atoms: O_3  and  C_4
REMARK    4  A    between atoms: C_9  and  O_10
REMARK    5  A    between atoms: O_10  and  C_11
REMARK    6  A    between atoms: C_11  and  C_12
REMARK    7  A    between atoms: C_12  and  N_13
REMARK    8  A    between atoms: N_13  and  C_14
REMARK    9  A    between atoms: C_14  and  C_15
REMARK   10  A    between atoms: C_14  and  C_16
REMARK   11  A    between atoms: C_16  and  C_17
REMARK   12  A    between atoms: C_20  and  O_21
REMARK   13  A    between atoms: O_21  and  C_22
REMARK   14  A    between atoms: C_23  and  S_24
REMARK   15  A    between atoms: S_24  and  N_25
REMARK                            x       y       z     vdW  Elec       q    Type
REMARK                         _______ _______ _______ _____ _____    ______ ____
ROOT
ATOM      1  C   UNL     1       7.312   6.301  17.227  0.00  0.00    +0.000 C 
ATOM      2  C   UNL     1       7.132   5.751  18.644  0.00  0.00    +0.000 C 
ENDROOT
BRANCH   1   3
ATOM      3  N   UNL     1       7.363   7.783  17.241  0.00  0.00    +0.000 NA
ATOM      4  H   UNL     1       7.695   8.096  16.326  0.00  0.00    +0.000 HD
BRANCH   3   5
ATOM      5  C   UNL     1       8.285   8.340  18.265  0.00  0.00    +0.000 C 
BRANCH   5   6
ATOM      6  C   UNL     1       8.525   9.838  18.055  0.00  0.00    +0.000 C 
BRANCH   6   7
ATOM      7  O   UNL     1       9.132  10.523  19.140  0.00  0.00    +0.000 OA
BRANCH   7  13
ATOM      8  C   UNL     1       9.489  13.018  19.310  0.00  0.00    +0.000 A 
ATOM      9  C   UNL     1      10.259  14.102  18.874  0.00  0.00    +0.000 A 
ATOM     10  C   UNL     1      11.177  13.947  17.845  0.00  0.00    +0.000 A 
ATOM     11  C   UNL     1      11.364  12.693  17.268  0.00  0.00    +0.000 A 
ATOM     12  C   UNL     1      10.660  11.589  17.752  0.00  0.00    +0.000 A 
ATOM     13  C   UNL     1       9.726  11.724  18.783  0.00  0.00    +0.000 A 
BRANCH   8  14
ATOM     14  O   UNL     1       8.528  13.226  20.259  0.00  0.00    +0.000 OA
BRANCH  14  16
ATOM     15  C   UNL     1       9.190  14.157  22.477  0.00  0.00    +0.000 C 
ATOM     16  C   UNL     1       8.665  14.401  21.070  0.00  0.00    +0.000 C 
ENDBRANCH  14  16
ENDBRANCH   8  14
ENDBRANCH   7  13
ENDBRANCH   6   7
ENDBRANCH   5   6
ENDBRANCH   3   5
ENDBRANCH   1   3
BRANCH   1  17
ATOM     17  C   UNL     1       6.192   5.767  16.311  0.00  0.00    +0.000 C 
BRANCH  17  18
ATOM     18  C   UNL     1       4.874   5.469  17.003  0.00  0.00    +0.000 A 
ATOM     19  C   UNL     1       4.020   6.509  17.360  0.00  0.00    +0.000 A 
ATOM     20  C   UNL     1       2.890   6.261  18.137  0.00  0.00    +0.000 A 
ATOM     21  C   UNL     1       2.607   4.969  18.603  0.00  0.00    +0.000 A 
ATOM     22  C   UNL     1       3.406   3.906  18.182  0.00  0.00    +0.000 A 
ATOM     23  C   UNL     1       4.539   4.159  17.389  0.00  0.00    +0.000 A 
BRANCH  22  24
ATOM     24  S   UNL     1       3.133   2.256  18.787  0.00  0.00    +0.000 S 
ATOM     25  O   UNL     1       3.789   1.322  17.902  0.00  0.00    +0.000 OA
ATOM     26  O   UNL     1       3.401   2.243  20.210  0.00  0.00    +0.000 OA
BRANCH  24  27
ATOM     27  N   UNL     1       1.474   2.005  18.615  0.00  0.00    +0.000 NA
ATOM     28  H   UNL     1       1.129   2.195  17.676  0.00  0.00    +0.000 HD
ATOM     29  H   UNL     1       0.993   2.572  19.312  0.00  0.00    +0.000 HD
ENDBRANCH  24  27
ENDBRANCH  22  24
BRANCH  21  30
ATOM     30  O   UNL     1       1.561   4.730  19.456  0.00  0.00    +0.000 OA
ATOM     31  C   UNL     1       1.753   5.292  20.760  0.00  0.00    +0.000 C 
ENDBRANCH  21  30
ENDBRANCH  17  18
ENDBRANCH   1  17
TORSDOF 12
ENDMDL
MODEL 7
REMARK VINA RESULT:      -7.2      3.322      8.127
REMARK  Name = 
REMARK  15 active torsions:
REMARK  status: ('A' for Active; 'I' for Inactive)
REMARK    1  A    between atoms: C_1  and  C_2
REMARK    2  A    between atoms: C_2  and  O_3
REMARK    3  A    between atoms: O_3  and  C_4
REMARK    4  A    between atoms: C_9  and  O_10
REMARK    5  A    between atoms: O_10  and  C_11
REMARK    6  A    between atoms: C_11  and  C_12
REMARK    7  A    between atoms: C_12  and  N_13
REMARK    8  A    between atoms: N_13  and  C_14
REMARK    9  A    between atoms: C_14  and  C_15
REMARK   10  A    between atoms: C_14  and  C_16
REMARK   11  A    between atoms: C_16  and  C_17
REMARK   12  A    between atoms: C_20  and  O_21
REMARK   13  A    between atoms: O_21  and  C_22
REMARK   14  A    between atoms: C_23  and  S_24
REMARK   15  A    between atoms: S_24  and  N_25
REMARK                            x       y       z     vdW  Elec       q    Type
REMARK                         _______ _______ _______ _____ _____    ______ ____
ROOT
ATOM      1  C   UNL     1       2.627   7.578  18.244  0.00  0.00    +0.000 C 
ATOM      2  C   UNL     1       3.966   7.615  17.502  0.00  0.00    +0.000 C 
ENDROOT
BRANCH   1   3
ATOM      3  N   UNL     1       2.000   6.240  18.126  0.00  0.00    +0.000 NA
ATOM      4  H   UNL     1       1.039   6.309  18.470  0.00  0.00    +0.000 HD
BRANCH   3   5
ATOM      5  C   UNL     1       2.683   5.186  18.922  0.00  0.00    +0.000 C 
BRANCH   5   6
ATOM      6  C   UNL     1       3.127   4.012  18.044  0.00  0.00    +0.000 C 
BRANCH   6   7
ATOM      7  O   UNL     1       4.393   3.454  18.357  0.00  0.00    +0.000 OA
BRANCH   7  13
ATOM      8  C   UNL     1       6.033   4.637  16.841  0.00  0.00    +0.000 A 
ATOM      9  C   UNL     1       7.060   5.585  16.775  0.00  0.00    +0.000 A 
ATOM     10  C   UNL     1       7.605   6.117  17.934  0.00  0.00    +0.000 A 
ATOM     11  C   UNL     1       7.098   5.736  19.176  0.00  0.00    +0.000 A 
ATOM     12  C   UNL     1       6.020   4.853  19.249  0.00  0.00    +0.000 A 
ATOM     13  C   UNL     1       5.460   4.300  18.093  0.00  0.00    +0.000 A 
BRANCH   8  14
ATOM     14  O   UNL     1       5.584   4.062  15.686  0.00  0.00    +0.000 OA
BRANCH  14  16
ATOM     15  C   UNL     1       6.156   3.700  13.284  0.00  0.00    +0.000 C 
ATOM     16  C   UNL     1       6.019   4.660  14.457  0.00  0.00    +0.000 C 
ENDBRANCH  14  16
ENDBRANCH   8  14
ENDBRANCH   7  13
ENDBRANCH   6   7
ENDBRANCH   5   6
ENDBRANCH   3   5
ENDBRANCH   1   3
BRANCH   1  17
ATOM     17  C   UNL     1       1.706   8.699  17.719  0.00  0.00    +0.000 C 
BRANCH  17  18
ATOM     18  C   UNL     1       1.269   9.718  18.756  0.00  0.00    +0.000 A 
ATOM     19  C   UNL     1       1.528  11.072  18.559  0.00  0.00    +0.000 A 
ATOM     20  C   UNL     1       1.278  11.994  19.574  0.00  0.00    +0.000 A 
ATOM     21  C   UNL     1       0.792  11.577  20.821  0.00  0.00    +0.000 A 
ATOM     22  C   UNL     1       0.448  10.237  21.002  0.00  0.00    +0.000 A 
ATOM     23  C   UNL     1       0.692   9.312  19.972  0.00  0.00    +0.000 A 
BRANCH  22  24
ATOM     24  S   UNL     1      -0.114   9.637  22.579  0.00  0.00    +0.000 S 
ATOM     25  O   UNL     1      -0.829   8.399  22.377  0.00  0.00    +0.000 OA
ATOM     26  O   UNL     1       0.989   9.714  23.514  0.00  0.00    +0.000 OA
BRANCH  24  27
ATOM     27  N   UNL     1      -1.249  10.776  23.090  0.00  0.00    +0.000 NA
ATOM     28  H   UNL     1      -2.140  10.367  23.367  0.00  0.00    +0.000 HD
ATOM     29  H   UNL     1      -1.368  11.463  22.346  0.00  0.00    +0.000 HD
ENDBRANCH  24  27
ENDBRANCH  22  24
BRANCH  21  30
ATOM     30  O   UNL     1       0.645  12.457  21.862  0.00  0.00    +0.000 OA
ATOM     31  C   UNL     1       0.022  13.689  21.479  0.00  0.00    +0.000 C 
ENDBRANCH  21  30
ENDBRANCH  17  18
ENDBRANCH   1  17
TORSDOF 12
ENDMDL
MODEL 8
REMARK VINA RESULT:      -7.2      3.120      7.433
REMARK  Name = 
REMARK  15 active torsions:
REMARK  status: ('A' for Active; 'I' for Inactive)
REMARK    1  A    between atoms: C_1  and  C_2
REMARK    2  A    between atoms: C_2  and  O_3
REMARK    3  A    between atoms: O_3  and  C_4
REMARK    4  A    between atoms: C_9  and  O_10
REMARK    5  A    between atoms: O_10  and  C_11
REMARK    6  A    between atoms: C_11  and  C_12
REMARK    7  A    between atoms: C_12  and  N_13
REMARK    8  A    between atoms: N_13  and  C_14
REMARK    9  A    between atoms: C_14  and  C_15
REMARK   10  A    between atoms: C_14  and  C_16
REMARK   11  A    between atoms: C_16  and  C_17
REMARK   12  A    between atoms: C_20  and  O_21
REMARK   13  A    between atoms: O_21  and  C_22
REMARK   14  A    between atoms: C_23  and  S_24
REMARK   15  A    between atoms: S_24  and  N_25
REMARK                            x       y       z     vdW  Elec       q    Type
REMARK                         _______ _______ _______ _____ _____    ______ ____
ROOT
ATOM      1  C   UNL     1       1.755   5.060  20.230  0.00  0.00    +0.000 C 
ATOM      2  C   UNL     1       2.404   4.209  21.325  0.00  0.00    +0.000 C 
ENDROOT
BRANCH   1   3
ATOM      3  N   UNL     1       1.388   4.222  19.063  0.00  0.00    +0.000 NA
ATOM      4  H   UNL     1       1.365   3.246  19.369  0.00  0.00    +0.000 HD
BRANCH   3   5
ATOM      5  C   UNL     1       2.351   4.313  17.934  0.00  0.00    +0.000 C 
BRANCH   5   6
ATOM      6  C   UNL     1       3.316   3.124  17.916  0.00  0.00    +0.000 C 
BRANCH   6   7
ATOM      7  O   UNL     1       4.405   3.228  17.013  0.00  0.00    +0.000 OA
BRANCH   7  13
ATOM      8  C   UNL     1       5.736   5.277  16.371  0.00  0.00    +0.000 A 
ATOM      9  C   UNL     1       6.515   6.338  16.846  0.00  0.00    +0.000 A 
ATOM     10  C   UNL     1       6.913   6.381  18.175  0.00  0.00    +0.000 A 
ATOM     11  C   UNL     1       6.499   5.382  19.054  0.00  0.00    +0.000 A 
ATOM     12  C   UNL     1       5.655   4.364  18.607  0.00  0.00    +0.000 A 
ATOM     13  C   UNL     1       5.248   4.298  17.271  0.00  0.00    +0.000 A 
BRANCH   8  14
ATOM     14  O   UNL     1       5.442   5.216  15.038  0.00  0.00    +0.000 OA
BRANCH  14  16
ATOM     15  C   UNL     1       7.375   4.912  13.492  0.00  0.00    +0.000 C 
ATOM     16  C   UNL     1       6.209   4.296  14.250  0.00  0.00    +0.000 C 
ENDBRANCH  14  16
ENDBRANCH   8  14
ENDBRANCH   7  13
ENDBRANCH   6   7
ENDBRANCH   5   6
ENDBRANCH   3   5
ENDBRANCH   1   3
BRANCH   1  17
ATOM     17  C   UNL     1       2.696   6.219  19.840  0.00  0.00    +0.000 C 
BRANCH  17  18
ATOM     18  C   UNL     1       2.011   7.539  19.541  0.00  0.00    +0.000 A 
ATOM     19  C   UNL     1       2.064   8.081  18.259  0.00  0.00    +0.000 A 
ATOM     20  C   UNL     1       1.579   9.365  18.015  0.00  0.00    +0.000 A 
ATOM     21  C   UNL     1       1.060  10.149  19.054  0.00  0.00    +0.000 A 
ATOM     22  C   UNL     1       0.922   9.587  20.324  0.00  0.00    +0.000 A 
ATOM     23  C   UNL     1       1.403   8.288  20.564  0.00  0.00    +0.000 A 
BRANCH  22  24
ATOM     24  S   UNL     1       0.328  10.550  21.696  0.00  0.00    +0.000 S 
ATOM     25  O   UNL     1      -1.089  10.772  21.529  0.00  0.00    +0.000 OA
ATOM     26  O   UNL     1       0.851   9.973  22.917  0.00  0.00    +0.000 OA
BRANCH  24  27
ATOM     27  N   UNL     1       1.079  12.050  21.523  0.00  0.00    +0.000 NA
ATOM     28  H   UNL     1       2.024  12.079  21.902  0.00  0.00    +0.000 HD
ATOM     29  H   UNL     1       0.482  12.757  21.953  0.00  0.00    +0.000 HD
ENDBRANCH  24  27
ENDBRANCH  22  24
BRANCH  21  30
ATOM     30  O   UNL     1       0.681  11.450  18.849  0.00  0.00    +0.000 OA
ATOM     31  C   UNL     1      -0.625  11.577  18.275  0.00  0.00    +0.000 C 
ENDBRANCH  21  30
ENDBRANCH  17  18
ENDBRANCH   1  17
TORSDOF 12
ENDMDL
MODEL 9
REMARK VINA RESULT:      -7.1      1.206      1.599
REMARK  Name = 
REMARK  15 active torsions:
REMARK  status: ('A' for Active; 'I' for Inactive)
REMARK    1  A    between atoms: C_1  and  C_2
REMARK    2  A    between atoms: C_2  and  O_3
REMARK    3  A    between atoms: O_3  and  C_4
REMARK    4  A    between atoms: C_9  and  O_10
REMARK    5  A    between atoms: O_10  and  C_11
REMARK    6  A    between atoms: C_11  and  C_12
REMARK    7  A    between atoms: C_12  and  N_13
REMARK    8  A    between atoms: N_13  and  C_14
REMARK    9  A    between atoms: C_14  and  C_15
REMARK   10  A    between atoms: C_14  and  C_16
REMARK   11  A    between atoms: C_16  and  C_17
REMARK   12  A    between atoms: C_20  and  O_21
REMARK   13  A    between atoms: O_21  and  C_22
REMARK   14  A    between atoms: C_23  and  S_24
REMARK   15  A    between atoms: S_24  and  N_25
REMARK                            x       y       z     vdW  Elec       q    Type
REMARK                         _______ _______ _______ _____ _____    ______ ____
ROOT
ATOM      1  C   UNL     1       2.989   3.412  19.283  0.00  0.00    +0.000 C 
ATOM      2  C   UNL     1       2.121   2.199  19.631  0.00  0.00    +0.000 C 
ENDROOT
BRANCH   1   3
ATOM      3  N   UNL     1       2.678   3.904  17.919  0.00  0.00    +0.000 NA
ATOM      4  H   UNL     1       3.562   4.040  17.423  0.00  0.00    +0.000 HD
BRANCH   3   5
ATOM      5  C   UNL     1       1.953   5.202  17.902  0.00  0.00    +0.000 C 
BRANCH   5   6
ATOM      6  C   UNL     1       2.803   6.333  18.487  0.00  0.00    +0.000 C 
BRANCH   6   7
ATOM      7  O   UNL     1       2.294   6.940  19.664  0.00  0.00    +0.000 OA
BRANCH   7  13
ATOM      8  C   UNL     1       1.123   9.060  20.384  0.00  0.00    +0.000 A 
ATOM      9  C   UNL     1       0.791  10.370  20.022  0.00  0.00    +0.000 A 
ATOM     10  C   UNL     1       1.025  10.827  18.733  0.00  0.00    +0.000 A 
ATOM     11  C   UNL     1       1.634   9.988  17.801  0.00  0.00    +0.000 A 
ATOM     12  C   UNL     1       2.043   8.708  18.177  0.00  0.00    +0.000 A 
ATOM     13  C   UNL     1       1.811   8.225  19.469  0.00  0.00    +0.000 A 
BRANCH   8  14
ATOM     14  O   UNL     1       0.792   8.613  21.632  0.00  0.00    +0.000 OA
BRANCH  14  16
ATOM     15  C   UNL     1      -0.528   9.917  23.299  0.00  0.00    +0.000 C 
ATOM     16  C   UNL     1      -0.512   8.959  22.117  0.00  0.00    +0.000 C 
ENDBRANCH  14  16
ENDBRANCH   8  14
ENDBRANCH   7  13
ENDBRANCH   6   7
ENDBRANCH   5   6
ENDBRANCH   3   5
ENDBRANCH   1   3
BRANCH   1  17
ATOM     17  C   UNL     1       4.481   3.054  19.446  0.00  0.00    +0.000 C 
BRANCH  17  18
ATOM     18  C   UNL     1       5.452   3.984  18.741  0.00  0.00    +0.000 A 
ATOM     19  C   UNL     1       6.172   4.927  19.470  0.00  0.00    +0.000 A 
ATOM     20  C   UNL     1       6.940   5.889  18.816  0.00  0.00    +0.000 A 
ATOM     21  C   UNL     1       6.979   5.949  17.416  0.00  0.00    +0.000 A 
ATOM     22  C   UNL     1       6.332   4.958  16.676  0.00  0.00    +0.000 A 
ATOM     23  C   UNL     1       5.566   3.984  17.340  0.00  0.00    +0.000 A 
BRANCH  22  24
ATOM     24  S   UNL     1       6.294   5.016  14.899  0.00  0.00    +0.000 S 
ATOM     25  O   UNL     1       6.081   3.680  14.395  0.00  0.00    +0.000 OA
ATOM     26  O   UNL     1       5.432   6.107  14.498  0.00  0.00    +0.000 OA
BRANCH  24  27
ATOM     27  N   UNL     1       7.859   5.460  14.452  0.00  0.00    +0.000 NA
ATOM     28  H   UNL     1       8.092   5.217  13.490  0.00  0.00    +0.000 HD
ATOM     29  H   UNL     1       8.511   5.038  15.113  0.00  0.00    +0.000 HD
ENDBRANCH  24  27
ENDBRANCH  22  24
BRANCH  21  30
ATOM     30  O   UNL     1       7.642   6.954  16.762  0.00  0.00    +0.000 OA
ATOM     31  C   UNL     1       7.797   8.139  17.551  0.00  0.00    +0.000 C 
ENDBRANCH  21  30
ENDBRANCH  17  18
ENDBRANCH   1  17
TORSDOF 12
ENDMDL
