MODEL 1
REMARK VINA RESULT:      -6.3      0.000      0.000
REMARK  Name = 
REMARK  9 active torsions:
REMARK  status: ('A' for Active; 'I' for Inactive)
REMARK    1  A    between atoms: C_1  and  C_2
REMARK    2  A    between atoms: C_2  and  C_3
REMARK    3  A    between atoms: C_2  and  N_4
REMARK    4  A    between atoms: N_4  and  N_5
REMARK    5  A    between atoms: N_4  and  C_16
REMARK    6  A    between atoms: N_6  and  C_7
REMARK    7  A    between atoms: C_10  and  N_11
REMARK    8  A    between atoms: C_16  and  C_17
REMARK    9  A    between atoms: C_16  and  C_18
REMARK                            x       y       z     vdW  Elec       q    Type
REMARK                         _______ _______ _______ _____ _____    ______ ____
ROOT
ATOM      1  N   UNL     1       3.580   4.183  17.747  0.00  0.00    +0.000 NA
ATOM      2  N   UNL     1       4.826   4.228  17.818  0.00  0.00    +0.000 NA
ENDROOT
BRANCH   2   3
ATOM      3  C   UNL     1       5.466   4.555  16.609  0.00  0.00    +0.000 A 
ATOM      4  C   UNL     1       6.772   5.065  16.665  0.00  0.00    +0.000 A 
ATOM      5  C   UNL     1       7.528   5.269  15.502  0.00  0.00    +0.000 A 
ATOM      6  C   UNL     1       6.971   4.949  14.260  0.00  0.00    +0.000 A 
ATOM      7  C   UNL     1       5.663   4.447  14.179  0.00  0.00    +0.000 A 
ATOM      8  C   UNL     1       4.920   4.252  15.351  0.00  0.00    +0.000 A 
BRANCH   6   9
ATOM      9  N   UNL     1       7.768   5.123  13.036  0.00  0.00    +0.000 N 
ATOM     10  O   UNL     1       8.758   5.873  13.096  0.00  0.00    +0.000 OA
ATOM     11  O   UNL     1       7.416   4.508  12.024  0.00  0.00    +0.000 OA
ENDBRANCH   6   9
ENDBRANCH   2   3
BRANCH   1  12
ATOM     12  N   UNL     1       2.988   3.855  18.961  0.00  0.00    +0.000 N 
BRANCH  12  14
ATOM     13  C   UNL     1       2.579   6.277  19.595  0.00  0.00    +0.000 C 
ATOM     14  C   UNL     1       3.027   4.877  20.037  0.00  0.00    +0.000 C 
ATOM     15  C   UNL     1       2.196   4.467  21.259  0.00  0.00    +0.000 C 
ENDBRANCH  12  14
BRANCH  12  16
ATOM     16  C   UNL     1       2.482   2.476  19.215  0.00  0.00    +0.000 C 
ATOM     17  C   UNL     1       1.046   2.288  18.719  0.00  0.00    +0.000 C 
ATOM     18  C   UNL     1       3.368   1.361  18.658  0.00  0.00    +0.000 C 
ENDBRANCH  12  16
ENDBRANCH   1  12
TORSDOF 5
ENDMDL
MODEL 2
REMARK VINA RESULT:      -6.3      0.729      1.359
REMARK  Name = 
REMARK  9 active torsions:
REMARK  status: ('A' for Active; 'I' for Inactive)
REMARK    1  A    between atoms: C_1  and  C_2
REMARK    2  A    between atoms: C_2  and  C_3
REMARK    3  A    between atoms: C_2  and  N_4
REMARK    4  A    between atoms: N_4  and  N_5
REMARK    5  A    between atoms: N_4  and  C_16
REMARK    6  A    between atoms: N_6  and  C_7
REMARK    7  A    between atoms: C_10  and  N_11
REMARK    8  A    between atoms: C_16  and  C_17
REMARK    9  A    between atoms: C_16  and  C_18
REMARK                            x       y       z     vdW  Elec       q    Type
REMARK                         _______ _______ _______ _____ _____    ______ ____
ROOT
ATOM      1  N   UNL     1       3.764   4.272  17.980  0.00  0.00    +0.000 NA
ATOM      2  N   UNL     1       4.993   4.445  18.113  0.00  0.00    +0.000 NA
ENDROOT
BRANCH   2   3
ATOM      3  C   UNL     1       5.711   4.469  16.904  0.00  0.00    +0.000 A 
ATOM      4  C   UNL     1       5.015   4.213  15.712  0.00  0.00    +0.000 A 
ATOM      5  C   UNL     1       5.626   4.370  14.460  0.00  0.00    +0.000 A 
ATOM      6  C   UNL     1       6.955   4.799  14.397  0.00  0.00    +0.000 A 
ATOM      7  C   UNL     1       7.674   5.052  15.576  0.00  0.00    +0.000 A 
ATOM      8  C   UNL     1       7.049   4.888  16.819  0.00  0.00    +0.000 A 
BRANCH   6   9
ATOM      9  N   UNL     1       7.595   5.004  13.088  0.00  0.00    +0.000 N 
ATOM     10  O   UNL     1       8.519   5.833  13.023  0.00  0.00    +0.000 OA
ATOM     11  O   UNL     1       7.186   4.334  12.134  0.00  0.00    +0.000 OA
ENDBRANCH   6   9
ENDBRANCH   2   3
BRANCH   1  12
ATOM     12  N   UNL     1       3.092   4.253  19.196  0.00  0.00    +0.000 N 
BRANCH  12  14
ATOM     13  C   UNL     1       2.526   6.698  18.824  0.00  0.00    +0.000 C 
ATOM     14  C   UNL     1       2.781   5.562  19.824  0.00  0.00    +0.000 C 
ATOM     15  C   UNL     1       1.583   5.480  20.778  0.00  0.00    +0.000 C 
ENDBRANCH  12  14
BRANCH  12  16
ATOM     16  C   UNL     1       2.844   2.968  19.911  0.00  0.00    +0.000 C 
ATOM     17  C   UNL     1       1.894   2.052  19.135  0.00  0.00    +0.000 C 
ATOM     18  C   UNL     1       4.109   2.196  20.288  0.00  0.00    +0.000 C 
ENDBRANCH  12  16
ENDBRANCH   1  12
TORSDOF 5
ENDMDL
MODEL 3
REMARK VINA RESULT:      -6.3      0.749      2.512
REMARK  Name = 
REMARK  9 active torsions:
REMARK  status: ('A' for Active; 'I' for Inactive)
REMARK    1  A    between atoms: C_1  and  C_2
REMARK    2  A    between atoms: C_2  and  C_3
REMARK    3  A    between atoms: C_2  and  N_4
REMARK    4  A    between atoms: N_4  and  N_5
REMARK    5  A    between atoms: N_4  and  C_16
REMARK    6  A    between atoms: N_6  and  C_7
REMARK    7  A    between atoms: C_10  and  N_11
REMARK    8  A    between atoms: C_16  and  C_17
REMARK    9  A    between atoms: C_16  and  C_18
REMARK                            x       y       z     vdW  Elec       q    Type
REMARK                         _______ _______ _______ _____ _____    ______ ____
ROOT
ATOM      1  N   UNL     1       3.881   4.356  17.974  0.00  0.00    +0.000 NA
ATOM      2  N   UNL     1       5.125   4.430  18.055  0.00  0.00    +0.000 NA
ENDROOT
BRANCH   2   3
ATOM      3  C   UNL     1       5.788   4.450  16.814  0.00  0.00    +0.000 A 
ATOM      4  C   UNL     1       5.059   4.106  15.665  0.00  0.00    +0.000 A 
ATOM      5  C   UNL     1       5.604   4.250  14.382  0.00  0.00    +0.000 A 
ATOM      6  C   UNL     1       6.901   4.755  14.243  0.00  0.00    +0.000 A 
ATOM      7  C   UNL     1       7.652   5.097  15.379  0.00  0.00    +0.000 A 
ATOM      8  C   UNL     1       7.092   4.944  16.654  0.00  0.00    +0.000 A 
BRANCH   6   9
ATOM      9  N   UNL     1       7.470   4.947  12.901  0.00  0.00    +0.000 N 
ATOM     10  O   UNL     1       8.322   5.841  12.759  0.00  0.00    +0.000 OA
ATOM     11  O   UNL     1       7.078   4.204  11.995  0.00  0.00    +0.000 OA
ENDBRANCH   6   9
ENDBRANCH   2   3
BRANCH   1  12
ATOM     12  N   UNL     1       3.265   4.337  19.220  0.00  0.00    +0.000 N 
BRANCH  12  14
ATOM     13  C   UNL     1       2.113   2.107  18.851  0.00  0.00    +0.000 C 
ATOM     14  C   UNL     1       2.923   3.010  19.791  0.00  0.00    +0.000 C 
ATOM     15  C   UNL     1       4.164   2.238  20.253  0.00  0.00    +0.000 C 
ENDBRANCH  12  14
BRANCH  12  16
ATOM     16  C   UNL     1       2.825   5.603  19.872  0.00  0.00    +0.000 C 
ATOM     17  C   UNL     1       2.603   6.728  18.858  0.00  0.00    +0.000 C 
ATOM     18  C   UNL     1       1.588   5.463  20.762  0.00  0.00    +0.000 C 
ENDBRANCH  12  16
ENDBRANCH   1  12
TORSDOF 5
ENDMDL
MODEL 4
REMARK VINA RESULT:      -6.2      1.690      3.151
REMARK  Name = 
REMARK  9 active torsions:
REMARK  status: ('A' for Active; 'I' for Inactive)
REMARK    1  A    between atoms: C_1  and  C_2
REMARK    2  A    between atoms: C_2  and  C_3
REMARK    3  A    between atoms: C_2  and  N_4
REMARK    4  A    between atoms: N_4  and  N_5
REMARK    5  A    between atoms: N_4  and  C_16
REMARK    6  A    between atoms: N_6  and  C_7
REMARK    7  A    between atoms: C_10  and  N_11
REMARK    8  A    between atoms: C_16  and  C_17
REMARK    9  A    between atoms: C_16  and  C_18
REMARK                            x       y       z     vdW  Elec       q    Type
REMARK                         _______ _______ _______ _____ _____    ______ ____
ROOT
ATOM      1  N   UNL     1       2.685   5.847  18.476  0.00  0.00    +0.000 NA
ATOM      2  N   UNL     1       3.897   5.562  18.574  0.00  0.00    +0.000 NA
ENDROOT
BRANCH   2   3
ATOM      3  C   UNL     1       4.530   5.285  17.349  0.00  0.00    +0.000 A 
ATOM      4  C   UNL     1       4.775   6.353  16.472  0.00  0.00    +0.000 A 
ATOM      5  C   UNL     1       5.536   6.182  15.306  0.00  0.00    +0.000 A 
ATOM      6  C   UNL     1       6.068   4.922  15.016  0.00  0.00    +0.000 A 
ATOM      7  C   UNL     1       5.826   3.837  15.873  0.00  0.00    +0.000 A 
ATOM      8  C   UNL     1       5.063   4.025  17.032  0.00  0.00    +0.000 A 
BRANCH   6   9
ATOM      9  N   UNL     1       6.898   4.740  13.815  0.00  0.00    +0.000 N 
ATOM     10  O   UNL     1       6.546   3.871  12.998  0.00  0.00    +0.000 OA
ATOM     11  O   UNL     1       7.891   5.464  13.683  0.00  0.00    +0.000 OA
ENDBRANCH   6   9
ENDBRANCH   2   3
BRANCH   1  12
ATOM     12  N   UNL     1       2.098   6.112  19.707  0.00  0.00    +0.000 N 
BRANCH  12  14
ATOM     13  C   UNL     1       0.949   3.859  19.505  0.00  0.00    +0.000 C 
ATOM     14  C   UNL     1       1.473   4.971  20.424  0.00  0.00    +0.000 C 
ATOM     15  C   UNL     1       2.419   4.342  21.453  0.00  0.00    +0.000 C 
ENDBRANCH  12  14
BRANCH  12  16
ATOM     16  C   UNL     1       1.962   7.511  20.204  0.00  0.00    +0.000 C 
ATOM     17  C   UNL     1       1.806   8.516  19.059  0.00  0.00    +0.000 C 
ATOM     18  C   UNL     1       0.842   7.717  21.225  0.00  0.00    +0.000 C 
ENDBRANCH  12  16
ENDBRANCH   1  12
TORSDOF 5
ENDMDL
MODEL 5
REMARK VINA RESULT:      -6.1      0.832      2.615
REMARK  Name = 
REMARK  9 active torsions:
REMARK  status: ('A' for Active; 'I' for Inactive)
REMARK    1  A    between atoms: C_1  and  C_2
REMARK    2  A    between atoms: C_2  and  C_3
REMARK    3  A    between atoms: C_2  and  N_4
REMARK    4  A    between atoms: N_4  and  N_5
REMARK    5  A    between atoms: N_4  and  C_16
REMARK    6  A    between atoms: N_6  and  C_7
REMARK    7  A    between atoms: C_10  and  N_11
REMARK    8  A    between atoms: C_16  and  C_17
REMARK    9  A    between atoms: C_16  and  C_18
REMARK                            x       y       z     vdW  Elec       q    Type
REMARK                         _______ _______ _______ _____ _____    ______ ____
ROOT
ATOM      1  N   UNL     1       3.753   4.242  18.318  0.00  0.00    +0.000 NA
ATOM      2  N   UNL     1       4.989   4.087  18.412  0.00  0.00    +0.000 NA
ENDROOT
BRANCH   2   3
ATOM      3  C   UNL     1       5.682   4.199  17.193  0.00  0.00    +0.000 A 
ATOM      4  C   UNL     1       4.975   3.970  16.002  0.00  0.00    +0.000 A 
ATOM      5  C   UNL     1       5.554   4.213  14.749  0.00  0.00    +0.000 A 
ATOM      6  C   UNL     1       6.863   4.700  14.684  0.00  0.00    +0.000 A 
ATOM      7  C   UNL     1       7.594   4.926  15.862  0.00  0.00    +0.000 A 
ATOM      8  C   UNL     1       7.000   4.677  17.105  0.00  0.00    +0.000 A 
BRANCH   6   9
ATOM      9  N   UNL     1       7.469   4.993  13.376  0.00  0.00    +0.000 N 
ATOM     10  O   UNL     1       7.002   4.411  12.382  0.00  0.00    +0.000 OA
ATOM     11  O   UNL     1       8.398   5.807  13.338  0.00  0.00    +0.000 OA
ENDBRANCH   6   9
ENDBRANCH   2   3
BRANCH   1  12
ATOM     12  N   UNL     1       3.107   4.122  19.543  0.00  0.00    +0.000 N 
BRANCH  12  14
ATOM     13  C   UNL     1       2.545   2.706  21.571  0.00  0.00    +0.000 C 
ATOM     14  C   UNL     1       2.918   2.752  20.083  0.00  0.00    +0.000 C 
ATOM     15  C   UNL     1       1.869   1.956  19.298  0.00  0.00    +0.000 C 
ENDBRANCH  12  14
BRANCH  12  16
ATOM     16  C   UNL     1       2.489   5.309  20.199  0.00  0.00    +0.000 C 
ATOM     17  C   UNL     1       2.760   6.602  19.425  0.00  0.00    +0.000 C 
ATOM     18  C   UNL     1       0.989   5.178  20.470  0.00  0.00    +0.000 C 
ENDBRANCH  12  16
ENDBRANCH   1  12
TORSDOF 5
ENDMDL
MODEL 6
REMARK VINA RESULT:      -6.1      4.904      6.818
REMARK  Name = 
REMARK  9 active torsions:
REMARK  status: ('A' for Active; 'I' for Inactive)
REMARK    1  A    between atoms: C_1  and  C_2
REMARK    2  A    between atoms: C_2  and  C_3
REMARK    3  A    between atoms: C_2  and  N_4
REMARK    4  A    between atoms: N_4  and  N_5
REMARK    5  A    between atoms: N_4  and  C_16
REMARK    6  A    between atoms: N_6  and  C_7
REMARK    7  A    between atoms: C_10  and  N_11
REMARK    8  A    between atoms: C_16  and  C_17
REMARK    9  A    between atoms: C_16  and  C_18
REMARK                            x       y       z     vdW  Elec       q    Type
REMARK                         _______ _______ _______ _____ _____    ______ ____
ROOT
ATOM      1  N   UNL     1       2.023   5.152  19.239  0.00  0.00    +0.000 NA
ATOM      2  N   UNL     1       2.856   6.071  19.382  0.00  0.00    +0.000 NA
ENDROOT
BRANCH   2   3
ATOM      3  C   UNL     1       2.301   7.364  19.381  0.00  0.00    +0.000 A 
ATOM      4  C   UNL     1       2.280   8.077  18.173  0.00  0.00    +0.000 A 
ATOM      5  C   UNL     1       1.608   9.302  18.058  0.00  0.00    +0.000 A 
ATOM      6  C   UNL     1       0.937   9.821  19.169  0.00  0.00    +0.000 A 
ATOM      7  C   UNL     1       0.953   9.130  20.391  0.00  0.00    +0.000 A 
ATOM      8  C   UNL     1       1.631   7.908  20.489  0.00  0.00    +0.000 A 
BRANCH   6   9
ATOM      9  N   UNL     1       0.197  11.087  19.051  0.00  0.00    +0.000 N 
ATOM     10  O   UNL     1       0.820  12.081  18.640  0.00  0.00    +0.000 OA
ATOM     11  O   UNL     1      -1.000  11.088  19.356  0.00  0.00    +0.000 OA
ENDBRANCH   6   9
ENDBRANCH   2   3
BRANCH   1  12
ATOM     12  N   UNL     1       2.612   3.894  19.244  0.00  0.00    +0.000 N 
BRANCH  12  14
ATOM     13  C   UNL     1       1.242   2.996  21.181  0.00  0.00    +0.000 C 
ATOM     14  C   UNL     1       1.805   2.765  19.772  0.00  0.00    +0.000 C 
ATOM     15  C   UNL     1       0.642   2.396  18.842  0.00  0.00    +0.000 C 
ENDBRANCH  12  14
BRANCH  12  16
ATOM     16  C   UNL     1       4.048   3.721  18.884  0.00  0.00    +0.000 C 
ATOM     17  C   UNL     1       4.717   2.611  19.699  0.00  0.00    +0.000 C 
ATOM     18  C   UNL     1       4.309   3.493  17.394  0.00  0.00    +0.000 C 
ENDBRANCH  12  16
ENDBRANCH   1  12
TORSDOF 5
ENDMDL
MODEL 7
REMARK VINA RESULT:      -6.1      4.915      7.012
REMARK  Name = 
REMARK  9 active torsions:
REMARK  status: ('A' for Active; 'I' for Inactive)
REMARK    1  A    between atoms: C_1  and  C_2
REMARK    2  A    between atoms: C_2  and  C_3
REMARK    3  A    between atoms: C_2  and  N_4
REMARK    4  A    between atoms: N_4  and  N_5
REMARK    5  A    between atoms: N_4  and  C_16
REMARK    6  A    between atoms: N_6  and  C_7
REMARK    7  A    between atoms: C_10  and  N_11
REMARK    8  A    between atoms: C_16  and  C_17
REMARK    9  A    between atoms: C_16  and  C_18
REMARK                            x       y       z     vdW  Elec       q    Type
REMARK                         _______ _______ _______ _____ _____    ______ ____
ROOT
ATOM      1  N   UNL     1       3.581   5.384  18.692  0.00  0.00    +0.000 NA
ATOM      2  N   UNL     1       3.240   6.305  17.921  0.00  0.00    +0.000 NA
ENDROOT
BRANCH   2   3
ATOM      3  C   UNL     1       2.438   7.295  18.518  0.00  0.00    +0.000 A 
ATOM      4  C   UNL     1       2.154   7.184  19.888  0.00  0.00    +0.000 A 
ATOM      5  C   UNL     1       1.495   8.207  20.583  0.00  0.00    +0.000 A 
ATOM      6  C   UNL     1       1.119   9.367  19.899  0.00  0.00    +0.000 A 
ATOM      7  C   UNL     1       1.384   9.496  18.526  0.00  0.00    +0.000 A 
ATOM      8  C   UNL     1       2.042   8.463  17.846  0.00  0.00    +0.000 A 
BRANCH   6   9
ATOM      9  N   UNL     1       0.460  10.463  20.626  0.00  0.00    +0.000 N 
ATOM     10  O   UNL     1       0.936  10.790  21.727  0.00  0.00    +0.000 OA
ATOM     11  O   UNL     1      -0.520  11.000  20.099  0.00  0.00    +0.000 OA
ENDBRANCH   6   9
ENDBRANCH   2   3
BRANCH   1  12
ATOM     12  N   UNL     1       4.370   4.427  18.064  0.00  0.00    +0.000 N 
BRANCH  12  14
ATOM     13  C   UNL     1       6.871   4.838  17.965  0.00  0.00    +0.000 C 
ATOM     14  C   UNL     1       5.514   4.912  17.252  0.00  0.00    +0.000 C 
ATOM     15  C   UNL     1       5.632   4.173  15.913  0.00  0.00    +0.000 C 
ENDBRANCH  12  14
BRANCH  12  16
ATOM     16  C   UNL     1       3.979   2.988  18.078  0.00  0.00    +0.000 C 
ATOM     17  C   UNL     1       4.126   2.365  19.469  0.00  0.00    +0.000 C 
ATOM     18  C   UNL     1       2.579   2.704  17.532  0.00  0.00    +0.000 C 
ENDBRANCH  12  16
ENDBRANCH   1  12
TORSDOF 5
ENDMDL
MODEL 8
REMARK VINA RESULT:      -6.1      4.885      7.477
REMARK  Name = 
REMARK  9 active torsions:
REMARK  status: ('A' for Active; 'I' for Inactive)
REMARK    1  A    between atoms: C_1  and  C_2
REMARK    2  A    between atoms: C_2  and  C_3
REMARK    3  A    between atoms: C_2  and  N_4
REMARK    4  A    between atoms: N_4  and  N_5
REMARK    5  A    between atoms: N_4  and  C_16
REMARK    6  A    between atoms: N_6  and  C_7
REMARK    7  A    between atoms: C_10  and  N_11
REMARK    8  A    between atoms: C_16  and  C_17
REMARK    9  A    between atoms: C_16  and  C_18
REMARK                            x       y       z     vdW  Elec       q    Type
REMARK                         _______ _______ _______ _____ _____    ______ ____
ROOT
ATOM      1  N   UNL     1       4.694   6.331  17.961  0.00  0.00    +0.000 NA
ATOM      2  N   UNL     1       3.596   6.641  17.456  0.00  0.00    +0.000 NA
ENDROOT
BRANCH   2   3
ATOM      3  C   UNL     1       2.724   7.317  18.330  0.00  0.00    +0.000 A 
ATOM      4  C   UNL     1       2.508   6.773  19.605  0.00  0.00    +0.000 A 
ATOM      5  C   UNL     1       1.779   7.465  20.582  0.00  0.00    +0.000 A 
ATOM      6  C   UNL     1       1.263   8.729  20.282  0.00  0.00    +0.000 A 
ATOM      7  C   UNL     1       1.458   9.289  19.010  0.00  0.00    +0.000 A 
ATOM      8  C   UNL     1       2.187   8.583  18.044  0.00  0.00    +0.000 A 
BRANCH   6   9
ATOM      9  N   UNL     1       0.528   9.481  21.311  0.00  0.00    +0.000 N 
ATOM     10  O   UNL     1       0.982  10.589  21.647  0.00  0.00    +0.000 OA
ATOM     11  O   UNL     1      -0.499   8.976  21.774  0.00  0.00    +0.000 OA
ENDBRANCH   6   9
ENDBRANCH   2   3
BRANCH   1  12
ATOM     12  N   UNL     1       5.523   5.665  17.067  0.00  0.00    +0.000 N 
BRANCH  12  14
ATOM     13  C   UNL     1       5.786   4.203  15.010  0.00  0.00    +0.000 C 
ATOM     14  C   UNL     1       4.896   4.656  16.176  0.00  0.00    +0.000 C 
ATOM     15  C   UNL     1       4.431   3.412  16.941  0.00  0.00    +0.000 C 
ENDBRANCH  12  14
BRANCH  12  16
ATOM     16  C   UNL     1       7.003   5.843  17.120  0.00  0.00    +0.000 C 
ATOM     17  C   UNL     1       7.398   7.282  17.460  0.00  0.00    +0.000 C 
ATOM     18  C   UNL     1       7.727   4.876  18.058  0.00  0.00    +0.000 C 
ENDBRANCH  12  16
ENDBRANCH   1  12
TORSDOF 5
ENDMDL
MODEL 9
REMARK VINA RESULT:      -6.0      5.014      7.212
REMARK  Name = 
REMARK  9 active torsions:
REMARK  status: ('A' for Active; 'I' for Inactive)
REMARK    1  A    between atoms: C_1  and  C_2
REMARK    2  A    between atoms: C_2  and  C_3
REMARK    3  A    between atoms: C_2  and  N_4
REMARK    4  A    between atoms: N_4  and  N_5
REMARK    5  A    between atoms: N_4  and  C_16
REMARK    6  A    between atoms: N_6  and  C_7
REMARK    7  A    between atoms: C_10  and  N_11
REMARK    8  A    between atoms: C_16  and  C_17
REMARK    9  A    between atoms: C_16  and  C_18
REMARK                            x       y       z     vdW  Elec       q    Type
REMARK                         _______ _______ _______ _____ _____    ______ ____
ROOT
ATOM      1  N   UNL     1       3.723   5.644  18.660  0.00  0.00    +0.000 NA
ATOM      2  N   UNL     1       3.266   6.507  17.882  0.00  0.00    +0.000 NA
ENDROOT
BRANCH   2   3
ATOM      3  C   UNL     1       2.431   7.459  18.495  0.00  0.00    +0.000 A 
ATOM      4  C   UNL     1       2.154   7.316  19.863  0.00  0.00    +0.000 A 
ATOM      5  C   UNL     1       1.460   8.304  20.576  0.00  0.00    +0.000 A 
ATOM      6  C   UNL     1       1.042   9.461  19.910  0.00  0.00    +0.000 A 
ATOM      7  C   UNL     1       1.299   9.621  18.539  0.00  0.00    +0.000 A 
ATOM      8  C   UNL     1       1.992   8.622  17.842  0.00  0.00    +0.000 A 
BRANCH   6   9
ATOM      9  N   UNL     1       0.346  10.521  20.655  0.00  0.00    +0.000 N 
ATOM     10  O   UNL     1       0.970  11.086  21.570  0.00  0.00    +0.000 OA
ATOM     11  O   UNL     1      -0.813  10.796  20.325  0.00  0.00    +0.000 OA
ENDBRANCH   6   9
ENDBRANCH   2   3
BRANCH   1  12
ATOM     12  N   UNL     1       4.540   4.723  18.015  0.00  0.00    +0.000 N 
BRANCH  12  14
ATOM     13  C   UNL     1       4.171   2.768  19.589  0.00  0.00    +0.000 C 
ATOM     14  C   UNL     1       4.185   3.288  18.145  0.00  0.00    +0.000 C 
ATOM     15  C   UNL     1       2.832   2.962  17.502  0.00  0.00    +0.000 C 
ENDBRANCH  12  14
BRANCH  12  16
ATOM     16  C   UNL     1       5.808   5.155  17.361  0.00  0.00    +0.000 C 
ATOM     17  C   UNL     1       6.967   5.252  18.356  0.00  0.00    +0.000 C 
ATOM     18  C   UNL     1       6.229   4.301  16.164  0.00  0.00    +0.000 C 
ENDBRANCH  12  16
ENDBRANCH   1  12
TORSDOF 5
ENDMDL
