MODEL 1
REMARK VINA RESULT:      -7.4      0.000      0.000
REMARK  Name = 
REMARK  3 active torsions:
REMARK  status: ('A' for Active; 'I' for Inactive)
REMARK    1  A    between atoms: C_2  and  C_11
REMARK    2  A    between atoms: N_3  and  C_4
REMARK    3  A    between atoms: C_4  and  C_5
REMARK                            x       y       z     vdW  Elec       q    Type
REMARK                         _______ _______ _______ _____ _____    ______ ____
ROOT
ATOM      1  O   UNL     1       5.948   7.034  17.472  0.00  0.00    +0.000 OA
ATOM      2  C   UNL     1       5.645   5.848  17.435  0.00  0.00    +0.000 C 
ATOM      3  N   UNL     1       6.237   4.981  16.537  0.00  0.00    +0.000 N 
ATOM      4  H   UNL     1       5.919   4.023  16.532  0.00  0.00    +0.000 HD
ENDROOT
BRANCH   2   5
ATOM      5  C   UNL     1       4.655   5.218  18.311  0.00  0.00    +0.000 A 
ATOM      6  S   UNL     1       5.014   3.708  19.050  0.00  0.00    +0.000 S 
ATOM      7  C   UNL     1       3.520   3.636  19.878  0.00  0.00    +0.000 A 
ATOM      8  C   UNL     1       3.120   2.625  20.771  0.00  0.00    +0.000 A 
ATOM      9  C   UNL     1       1.845   2.680  21.330  0.00  0.00    +0.000 A 
ATOM     10  C   UNL     1       0.982   3.712  20.996  0.00  0.00    +0.000 A 
ATOM     11  C   UNL     1       1.396   4.731  20.128  0.00  0.00    +0.000 A 
ATOM     12  C   UNL     1       2.699   4.720  19.561  0.00  0.00    +0.000 A 
ATOM     13  C   UNL     1       3.400   5.643  18.703  0.00  0.00    +0.000 A 
ATOM     14 BR   UNL     1       2.600   7.301  18.222  0.00  0.00    +0.000 Br
ENDBRANCH   2   5
BRANCH   3  15
ATOM     15  C   UNL     1       7.253   5.353  15.584  0.00  0.00    +0.000 C 
BRANCH  15  16
ATOM     16  C   UNL     1       6.937   4.775  14.227  0.00  0.00    +0.000 A 
ATOM     17  C   UNL     1       5.860   3.892  14.071  0.00  0.00    +0.000 A 
ATOM     18  C   UNL     1       5.566   3.343  12.823  0.00  0.00    +0.000 A 
ATOM     19  C   UNL     1       6.353   3.659  11.716  0.00  0.00    +0.000 A 
ATOM     20  C   UNL     1       7.437   4.522  11.861  0.00  0.00    +0.000 A 
ATOM     21  C   UNL     1       7.731   5.075  13.110  0.00  0.00    +0.000 A 
ENDBRANCH  15  16
ENDBRANCH   3  15
TORSDOF 3
ENDMDL
MODEL 2
REMARK VINA RESULT:      -7.4      0.046      1.079
REMARK  Name = 
REMARK  3 active torsions:
REMARK  status: ('A' for Active; 'I' for Inactive)
REMARK    1  A    between atoms: C_2  and  C_11
REMARK    2  A    between atoms: N_3  and  C_4
REMARK    3  A    between atoms: C_4  and  C_5
REMARK                            x       y       z     vdW  Elec       q    Type
REMARK                         _______ _______ _______ _____ _____    ______ ____
ROOT
ATOM      1  O   UNL     1       5.923   7.048  17.489  0.00  0.00    +0.000 OA
ATOM      2  C   UNL     1       5.624   5.862  17.446  0.00  0.00    +0.000 C 
ATOM      3  N   UNL     1       6.222   5.000  16.547  0.00  0.00    +0.000 N 
ATOM      4  H   UNL     1       5.908   4.041  16.537  0.00  0.00    +0.000 HD
ENDROOT
BRANCH   2   5
ATOM      5  C   UNL     1       4.631   5.226  18.315  0.00  0.00    +0.000 A 
ATOM      6  S   UNL     1       4.990   3.713  19.049  0.00  0.00    +0.000 S 
ATOM      7  C   UNL     1       3.493   3.634  19.870  0.00  0.00    +0.000 A 
ATOM      8  C   UNL     1       3.092   2.618  20.757  0.00  0.00    +0.000 A 
ATOM      9  C   UNL     1       1.814   2.668  21.310  0.00  0.00    +0.000 A 
ATOM     10  C   UNL     1       0.950   3.699  20.977  0.00  0.00    +0.000 A 
ATOM     11  C   UNL     1       1.365   4.723  20.115  0.00  0.00    +0.000 A 
ATOM     12  C   UNL     1       2.671   4.717  19.554  0.00  0.00    +0.000 A 
ATOM     13  C   UNL     1       3.373   5.646  18.704  0.00  0.00    +0.000 A 
ATOM     14 BR   UNL     1       2.571   7.304  18.226  0.00  0.00    +0.000 Br
ENDBRANCH   2   5
BRANCH   3  15
ATOM     15  C   UNL     1       7.242   5.378  15.601  0.00  0.00    +0.000 C 
BRANCH  15  16
ATOM     16  C   UNL     1       6.955   4.772  14.250  0.00  0.00    +0.000 A 
ATOM     17  C   UNL     1       7.716   5.148  13.135  0.00  0.00    +0.000 A 
ATOM     18  C   UNL     1       7.452   4.602  11.879  0.00  0.00    +0.000 A 
ATOM     19  C   UNL     1       6.416   3.682  11.717  0.00  0.00    +0.000 A 
ATOM     20  C   UNL     1       5.643   3.312  12.815  0.00  0.00    +0.000 A 
ATOM     21  C   UNL     1       5.906   3.856  14.075  0.00  0.00    +0.000 A 
ENDBRANCH  15  16
ENDBRANCH   3  15
TORSDOF 3
ENDMDL
MODEL 3
REMARK VINA RESULT:      -7.1      5.551      7.733
REMARK  Name = 
REMARK  3 active torsions:
REMARK  status: ('A' for Active; 'I' for Inactive)
REMARK    1  A    between atoms: C_2  and  C_11
REMARK    2  A    between atoms: N_3  and  C_4
REMARK    3  A    between atoms: C_4  and  C_5
REMARK                            x       y       z     vdW  Elec       q    Type
REMARK                         _______ _______ _______ _____ _____    ______ ____
ROOT
ATOM      1  O   UNL     1       1.939   9.247  17.483  0.00  0.00    +0.000 OA
ATOM      2  C   UNL     1       1.723   9.011  18.665  0.00  0.00    +0.000 C 
ATOM      3  N   UNL     1       2.083   7.805  19.235  0.00  0.00    +0.000 N 
ATOM      4  H   UNL     1       1.847   7.657  20.205  0.00  0.00    +0.000 HD
ENDROOT
BRANCH   2   5
ATOM      5  C   UNL     1       1.083   9.946  19.593  0.00  0.00    +0.000 A 
ATOM      6  S   UNL     1       0.139   9.336  20.894  0.00  0.00    +0.000 S 
ATOM      7  C   UNL     1      -0.220  10.892  21.505  0.00  0.00    +0.000 A 
ATOM      8  C   UNL     1      -0.965  11.171  22.665  0.00  0.00    +0.000 A 
ATOM      9  C   UNL     1      -1.217  12.499  23.005  0.00  0.00    +0.000 A 
ATOM     10  C   UNL     1      -0.750  13.525  22.200  0.00  0.00    +0.000 A 
ATOM     11  C   UNL     1       0.015  13.242  21.061  0.00  0.00    +0.000 A 
ATOM     12  C   UNL     1       0.314  11.900  20.699  0.00  0.00    +0.000 A 
ATOM     13  C   UNL     1       1.107  11.327  19.641  0.00  0.00    +0.000 A 
ATOM     14 BR   UNL     1       2.096  12.450  18.466  0.00  0.00    +0.000 Br
ENDBRANCH   2   5
BRANCH   3  15
ATOM     15  C   UNL     1       2.743   6.731  18.538  0.00  0.00    +0.000 C 
BRANCH  15  16
ATOM     16  C   UNL     1       2.137   5.404  18.922  0.00  0.00    +0.000 A 
ATOM     17  C   UNL     1       1.927   4.418  17.949  0.00  0.00    +0.000 A 
ATOM     18  C   UNL     1       1.356   3.192  18.292  0.00  0.00    +0.000 A 
ATOM     19  C   UNL     1       0.977   2.940  19.610  0.00  0.00    +0.000 A 
ATOM     20  C   UNL     1       1.166   3.918  20.584  0.00  0.00    +0.000 A 
ATOM     21  C   UNL     1       1.739   5.146  20.243  0.00  0.00    +0.000 A 
ENDBRANCH  15  16
ENDBRANCH   3  15
TORSDOF 3
ENDMDL
MODEL 4
REMARK VINA RESULT:      -7.1      5.607      7.787
REMARK  Name = 
REMARK  3 active torsions:
REMARK  status: ('A' for Active; 'I' for Inactive)
REMARK    1  A    between atoms: C_2  and  C_11
REMARK    2  A    between atoms: N_3  and  C_4
REMARK    3  A    between atoms: C_4  and  C_5
REMARK                            x       y       z     vdW  Elec       q    Type
REMARK                         _______ _______ _______ _____ _____    ______ ____
ROOT
ATOM      1  O   UNL     1       1.441   8.991  17.659  0.00  0.00    +0.000 OA
ATOM      2  C   UNL     1       1.479   8.901  18.880  0.00  0.00    +0.000 C 
ATOM      3  N   UNL     1       2.128   7.854  19.505  0.00  0.00    +0.000 N 
ATOM      4  H   UNL     1       2.094   7.816  20.513  0.00  0.00    +0.000 HD
ENDROOT
BRANCH   2   5
ATOM      5  C   UNL     1       0.865   9.860  19.801  0.00  0.00    +0.000 A 
ATOM      6  S   UNL     1      -0.083   9.287  21.115  0.00  0.00    +0.000 S 
ATOM      7  C   UNL     1      -0.404  10.857  21.709  0.00  0.00    +0.000 A 
ATOM      8  C   UNL     1      -1.135  11.166  22.871  0.00  0.00    +0.000 A 
ATOM      9  C   UNL     1      -1.356  12.503  23.196  0.00  0.00    +0.000 A 
ATOM     10  C   UNL     1      -0.872  13.510  22.376  0.00  0.00    +0.000 A 
ATOM     11  C   UNL     1      -0.121  13.196  21.236  0.00  0.00    +0.000 A 
ATOM     12  C   UNL     1       0.146  11.844  20.888  0.00  0.00    +0.000 A 
ATOM     13  C   UNL     1       0.920  11.241  19.832  0.00  0.00    +0.000 A 
ATOM     14 BR   UNL     1       1.925  12.328  18.638  0.00  0.00    +0.000 Br
ENDBRANCH   2   5
BRANCH   3  15
ATOM     15  C   UNL     1       2.825   6.794  18.821  0.00  0.00    +0.000 C 
BRANCH  15  16
ATOM     16  C   UNL     1       2.163   5.466  19.097  0.00  0.00    +0.000 A 
ATOM     17  C   UNL     1       1.803   5.119  20.406  0.00  0.00    +0.000 A 
ATOM     18  C   UNL     1       1.202   3.889  20.674  0.00  0.00    +0.000 A 
ATOM     19  C   UNL     1       0.964   2.985  19.640  0.00  0.00    +0.000 A 
ATOM     20  C   UNL     1       1.332   3.312  18.337  0.00  0.00    +0.000 A 
ATOM     21  C   UNL     1       1.933   4.544  18.065  0.00  0.00    +0.000 A 
ENDBRANCH  15  16
ENDBRANCH   3  15
TORSDOF 3
ENDMDL
MODEL 5
REMARK VINA RESULT:      -7.1      1.241      1.512
REMARK  Name = 
REMARK  3 active torsions:
REMARK  status: ('A' for Active; 'I' for Inactive)
REMARK    1  A    between atoms: C_2  and  C_11
REMARK    2  A    between atoms: N_3  and  C_4
REMARK    3  A    between atoms: C_4  and  C_5
REMARK                            x       y       z     vdW  Elec       q    Type
REMARK                         _______ _______ _______ _____ _____    ______ ____
ROOT
ATOM      1  O   UNL     1       5.600   6.648  15.994  0.00  0.00    +0.000 OA
ATOM      2  C   UNL     1       5.206   5.492  16.078  0.00  0.00    +0.000 C 
ATOM      3  N   UNL     1       5.604   4.529  15.170  0.00  0.00    +0.000 N 
ATOM      4  H   UNL     1       5.218   3.602  15.271  0.00  0.00    +0.000 HD
ENDROOT
BRANCH   2   5
ATOM      5  C   UNL     1       4.300   4.997  17.116  0.00  0.00    +0.000 A 
ATOM      6  S   UNL     1       4.298   3.325  17.516  0.00  0.00    +0.000 S 
ATOM      7  C   UNL     1       3.108   3.506  18.728  0.00  0.00    +0.000 A 
ATOM      8  C   UNL     1       2.617   2.483  19.561  0.00  0.00    +0.000 A 
ATOM      9  C   UNL     1       1.603   2.778  20.471  0.00  0.00    +0.000 A 
ATOM     10  C   UNL     1       1.080   4.060  20.540  0.00  0.00    +0.000 A 
ATOM     11  C   UNL     1       1.593   5.081  19.729  0.00  0.00    +0.000 A 
ATOM     12  C   UNL     1       2.644   4.821  18.808  0.00  0.00    +0.000 A 
ATOM     13  C   UNL     1       3.389   5.668  17.910  0.00  0.00    +0.000 A 
ATOM     14 BR   UNL     1       3.098   7.548  17.903  0.00  0.00    +0.000 Br
ENDBRANCH   2   5
BRANCH   3  15
ATOM     15  C   UNL     1       6.506   4.760  14.070  0.00  0.00    +0.000 C 
BRANCH  15  16
ATOM     16  C   UNL     1       6.215   3.801  12.942  0.00  0.00    +0.000 A 
ATOM     17  C   UNL     1       4.895   3.587  12.524  0.00  0.00    +0.000 A 
ATOM     18  C   UNL     1       4.615   2.693  11.490  0.00  0.00    +0.000 A 
ATOM     19  C   UNL     1       5.648   1.993  10.868  0.00  0.00    +0.000 A 
ATOM     20  C   UNL     1       6.963   2.186  11.286  0.00  0.00    +0.000 A 
ATOM     21  C   UNL     1       7.247   3.081  12.320  0.00  0.00    +0.000 A 
ENDBRANCH  15  16
ENDBRANCH   3  15
TORSDOF 3
ENDMDL
MODEL 6
REMARK VINA RESULT:      -7.1      1.914      7.260
REMARK  Name = 
REMARK  3 active torsions:
REMARK  status: ('A' for Active; 'I' for Inactive)
REMARK    1  A    between atoms: C_2  and  C_11
REMARK    2  A    between atoms: N_3  and  C_4
REMARK    3  A    between atoms: C_4  and  C_5
REMARK                            x       y       z     vdW  Elec       q    Type
REMARK                         _______ _______ _______ _____ _____    ______ ____
ROOT
ATOM      1  O   UNL     1       5.715   4.042  19.146  0.00  0.00    +0.000 OA
ATOM      2  C   UNL     1       5.242   4.692  18.222  0.00  0.00    +0.000 C 
ATOM      3  N   UNL     1       4.159   5.529  18.411  0.00  0.00    +0.000 N 
ATOM      4  H   UNL     1       3.793   6.011  17.603  0.00  0.00    +0.000 HD
ENDROOT
BRANCH   2   5
ATOM      5  C   UNL     1       5.747   4.667  16.848  0.00  0.00    +0.000 A 
ATOM      6  S   UNL     1       5.183   3.464  15.758  0.00  0.00    +0.000 S 
ATOM      7  C   UNL     1       6.119   4.053  14.454  0.00  0.00    +0.000 A 
ATOM      8  C   UNL     1       6.120   3.542  13.143  0.00  0.00    +0.000 A 
ATOM      9  C   UNL     1       6.981   4.100  12.200  0.00  0.00    +0.000 A 
ATOM     10  C   UNL     1       7.832   5.134  12.558  0.00  0.00    +0.000 A 
ATOM     11  C   UNL     1       7.806   5.656  13.858  0.00  0.00    +0.000 A 
ATOM     12  C   UNL     1       6.922   5.129  14.837  0.00  0.00    +0.000 A 
ATOM     13  C   UNL     1       6.644   5.498  16.203  0.00  0.00    +0.000 A 
ATOM     14 BR   UNL     1       7.468   7.032  16.969  0.00  0.00    +0.000 Br
ENDBRANCH   2   5
BRANCH   3  15
ATOM     15  C   UNL     1       3.495   5.742  19.673  0.00  0.00    +0.000 C 
BRANCH  15  16
ATOM     16  C   UNL     1       2.510   4.631  19.942  0.00  0.00    +0.000 A 
ATOM     17  C   UNL     1       2.344   4.139  21.243  0.00  0.00    +0.000 A 
ATOM     18  C   UNL     1       1.444   3.104  21.500  0.00  0.00    +0.000 A 
ATOM     19  C   UNL     1       0.708   2.540  20.459  0.00  0.00    +0.000 A 
ATOM     20  C   UNL     1       0.877   3.009  19.159  0.00  0.00    +0.000 A 
ATOM     21  C   UNL     1       1.776   4.047  18.898  0.00  0.00    +0.000 A 
ENDBRANCH  15  16
ENDBRANCH   3  15
TORSDOF 3
ENDMDL
MODEL 7
REMARK VINA RESULT:      -7.0      1.165      1.684
REMARK  Name = 
REMARK  3 active torsions:
REMARK  status: ('A' for Active; 'I' for Inactive)
REMARK    1  A    between atoms: C_2  and  C_11
REMARK    2  A    between atoms: N_3  and  C_4
REMARK    3  A    between atoms: C_4  and  C_5
REMARK                            x       y       z     vdW  Elec       q    Type
REMARK                         _______ _______ _______ _____ _____    ______ ____
ROOT
ATOM      1  O   UNL     1       5.381   6.782  15.921  0.00  0.00    +0.000 OA
ATOM      2  C   UNL     1       5.125   5.597  16.101  0.00  0.00    +0.000 C 
ATOM      3  N   UNL     1       5.652   4.616  15.284  0.00  0.00    +0.000 N 
ATOM      4  H   UNL     1       5.377   3.661  15.461  0.00  0.00    +0.000 HD
ENDROOT
BRANCH   2   5
ATOM      5  C   UNL     1       4.262   5.088  17.169  0.00  0.00    +0.000 A 
ATOM      6  S   UNL     1       4.327   3.423  17.591  0.00  0.00    +0.000 S 
ATOM      7  C   UNL     1       3.162   3.581  18.831  0.00  0.00    +0.000 A 
ATOM      8  C   UNL     1       2.727   2.555  19.690  0.00  0.00    +0.000 A 
ATOM      9  C   UNL     1       1.728   2.830  20.622  0.00  0.00    +0.000 A 
ATOM     10  C   UNL     1       1.165   4.094  20.688  0.00  0.00    +0.000 A 
ATOM     11  C   UNL     1       1.622   5.119  19.850  0.00  0.00    +0.000 A 
ATOM     12  C   UNL     1       2.657   4.881  18.906  0.00  0.00    +0.000 A 
ATOM     13  C   UNL     1       3.350   5.740  17.978  0.00  0.00    +0.000 A 
ATOM     14 BR   UNL     1       2.997   7.609  17.953  0.00  0.00    +0.000 Br
ENDBRANCH   2   5
BRANCH   3  15
ATOM     15  C   UNL     1       6.543   4.858  14.177  0.00  0.00    +0.000 C 
BRANCH  15  16
ATOM     16  C   UNL     1       6.263   3.889  13.055  0.00  0.00    +0.000 A 
ATOM     17  C   UNL     1       7.323   3.313  12.343  0.00  0.00    +0.000 A 
ATOM     18  C   UNL     1       7.076   2.425  11.297  0.00  0.00    +0.000 A 
ATOM     19  C   UNL     1       5.765   2.111  10.939  0.00  0.00    +0.000 A 
ATOM     20  C   UNL     1       4.702   2.690  11.628  0.00  0.00    +0.000 A 
ATOM     21  C   UNL     1       4.948   3.578  12.679  0.00  0.00    +0.000 A 
ENDBRANCH  15  16
ENDBRANCH   3  15
TORSDOF 3
ENDMDL
MODEL 8
REMARK VINA RESULT:      -7.0      1.920      7.281
REMARK  Name = 
REMARK  3 active torsions:
REMARK  status: ('A' for Active; 'I' for Inactive)
REMARK    1  A    between atoms: C_2  and  C_11
REMARK    2  A    between atoms: N_3  and  C_4
REMARK    3  A    between atoms: C_4  and  C_5
REMARK                            x       y       z     vdW  Elec       q    Type
REMARK                         _______ _______ _______ _____ _____    ______ ____
ROOT
ATOM      1  O   UNL     1       5.594   3.890  19.104  0.00  0.00    +0.000 OA
ATOM      2  C   UNL     1       5.195   4.625  18.210  0.00  0.00    +0.000 C 
ATOM      3  N   UNL     1       4.195   5.552  18.432  0.00  0.00    +0.000 N 
ATOM      4  H   UNL     1       3.885   6.105  17.647  0.00  0.00    +0.000 HD
ENDROOT
BRANCH   2   5
ATOM      5  C   UNL     1       5.713   4.620  16.840  0.00  0.00    +0.000 A 
ATOM      6  S   UNL     1       5.150   3.439  15.725  0.00  0.00    +0.000 S 
ATOM      7  C   UNL     1       6.101   4.042  14.440  0.00  0.00    +0.000 A 
ATOM      8  C   UNL     1       6.110   3.554  13.120  0.00  0.00    +0.000 A 
ATOM      9  C   UNL     1       6.984   4.121  12.194  0.00  0.00    +0.000 A 
ATOM     10  C   UNL     1       7.839   5.142  12.577  0.00  0.00    +0.000 A 
ATOM     11  C   UNL     1       7.805   5.643  13.885  0.00  0.00    +0.000 A 
ATOM     12  C   UNL     1       6.909   5.106  14.848  0.00  0.00    +0.000 A 
ATOM     13  C   UNL     1       6.621   5.454  16.217  0.00  0.00    +0.000 A 
ATOM     14 BR   UNL     1       7.449   6.970  17.015  0.00  0.00    +0.000 Br
ENDBRANCH   2   5
BRANCH   3  15
ATOM     15  C   UNL     1       3.539   5.764  19.698  0.00  0.00    +0.000 C 
BRANCH  15  16
ATOM     16  C   UNL     1       2.563   4.648  19.978  0.00  0.00    +0.000 A 
ATOM     17  C   UNL     1       1.727   4.173  18.959  0.00  0.00    +0.000 A 
ATOM     18  C   UNL     1       0.813   3.149  19.211  0.00  0.00    +0.000 A 
ATOM     19  C   UNL     1       0.714   2.596  20.487  0.00  0.00    +0.000 A 
ATOM     20  C   UNL     1       1.528   3.072  21.512  0.00  0.00    +0.000 A 
ATOM     21  C   UNL     1       2.445   4.095  21.262  0.00  0.00    +0.000 A 
ENDBRANCH  15  16
ENDBRANCH   3  15
TORSDOF 3
ENDMDL
MODEL 9
REMARK VINA RESULT:      -6.9      1.937      7.229
REMARK  Name = 
REMARK  3 active torsions:
REMARK  status: ('A' for Active; 'I' for Inactive)
REMARK    1  A    between atoms: C_2  and  C_11
REMARK    2  A    between atoms: N_3  and  C_4
REMARK    3  A    between atoms: C_4  and  C_5
REMARK                            x       y       z     vdW  Elec       q    Type
REMARK                         _______ _______ _______ _____ _____    ______ ____
ROOT
ATOM      1  O   UNL     1       4.868   5.388  18.780  0.00  0.00    +0.000 OA
ATOM      2  C   UNL     1       5.221   4.415  18.124  0.00  0.00    +0.000 C 
ATOM      3  N   UNL     1       5.140   3.134  18.636  0.00  0.00    +0.000 N 
ATOM      4  H   UNL     1       5.480   2.378  18.060  0.00  0.00    +0.000 HD
ENDROOT
BRANCH   2   5
ATOM      5  C   UNL     1       5.752   4.484  16.761  0.00  0.00    +0.000 A 
ATOM      6  S   UNL     1       5.212   3.355  15.583  0.00  0.00    +0.000 S 
ATOM      7  C   UNL     1       6.169   4.031  14.339  0.00  0.00    +0.000 A 
ATOM      8  C   UNL     1       6.196   3.609  12.996  0.00  0.00    +0.000 A 
ATOM      9  C   UNL     1       7.073   4.230  12.109  0.00  0.00    +0.000 A 
ATOM     10  C   UNL     1       7.914   5.239  12.551  0.00  0.00    +0.000 A 
ATOM     11  C   UNL     1       7.862   5.674  13.882  0.00  0.00    +0.000 A 
ATOM     12  C   UNL     1       6.962   5.081  14.808  0.00  0.00    +0.000 A 
ATOM     13  C   UNL     1       6.658   5.357  16.190  0.00  0.00    +0.000 A 
ATOM     14 BR   UNL     1       7.463   6.839  17.071  0.00  0.00    +0.000 Br
ENDBRANCH   2   5
BRANCH   3  15
ATOM     15  C   UNL     1       4.636   2.803  19.944  0.00  0.00    +0.000 C 
BRANCH  15  16
ATOM     16  C   UNL     1       3.129   2.868  19.958  0.00  0.00    +0.000 A 
ATOM     17  C   UNL     1       2.387   2.230  18.955  0.00  0.00    +0.000 A 
ATOM     18  C   UNL     1       0.994   2.294  18.952  0.00  0.00    +0.000 A 
ATOM     19  C   UNL     1       0.323   3.008  19.944  0.00  0.00    +0.000 A 
ATOM     20  C   UNL     1       1.049   3.660  20.937  0.00  0.00    +0.000 A 
ATOM     21  C   UNL     1       2.445   3.596  20.944  0.00  0.00    +0.000 A 
ENDBRANCH  15  16
ENDBRANCH   3  15
TORSDOF 3
ENDMDL
