MODEL 1
REMARK VINA RESULT:      -7.8      0.000      0.000
REMARK  Name = 
REMARK  7 active torsions:
REMARK  status: ('A' for Active; 'I' for Inactive)
REMARK    1  A    between atoms: C_1  and  C_2
REMARK    2  A    between atoms: C_2  and  C_18
REMARK    3  A    between atoms: C_3  and  C_4
REMARK    4  A    between atoms: C_3  and  C_11
REMARK    5  A    between atoms: C_7  and  N_8
REMARK    6  A    between atoms: C_14  and  N_15
REMARK    7  A    between atoms: C_21  and  N_22
REMARK                            x       y       z     vdW  Elec       q    Type
REMARK                         _______ _______ _______ _____ _____    ______ ____
ROOT
ATOM      1  C   UNL     1       3.683   8.481  17.271  0.00  0.00    +0.000 C 
ATOM      2  C   UNL     1       3.067   7.464  18.207  0.00  0.00    +0.000 C 
ATOM      3  C   UNL     1       3.414   6.151  18.286  0.00  0.00    +0.000 C 
ENDROOT
BRANCH   3   4
ATOM      4  C   UNL     1       2.701   5.239  19.215  0.00  0.00    +0.000 A 
ATOM      5  C   UNL     1       3.208   5.008  20.498  0.00  0.00    +0.000 A 
ATOM      6  C   UNL     1       2.583   4.094  21.352  0.00  0.00    +0.000 A 
ATOM      7  C   UNL     1       1.417   3.432  20.959  0.00  0.00    +0.000 A 
ATOM      8  C   UNL     1       0.926   3.651  19.670  0.00  0.00    +0.000 A 
ATOM      9  C   UNL     1       1.547   4.564  18.810  0.00  0.00    +0.000 A 
BRANCH   7  10
ATOM     10  N   UNL     1       0.900   2.394  21.744  0.00  0.00    +0.000 N 
ATOM     11  H   UNL     1       0.610   2.682  22.673  0.00  0.00    +0.000 HD
ATOM     12  H   UNL     1       0.198   1.831  21.275  0.00  0.00    +0.000 HD
ENDBRANCH   7  10
ENDBRANCH   3   4
BRANCH   3  13
ATOM     13  C   UNL     1       4.511   5.651  17.418  0.00  0.00    +0.000 A 
ATOM     14  C   UNL     1       5.803   6.173  17.546  0.00  0.00    +0.000 A 
ATOM     15  C   UNL     1       6.809   5.796  16.649  0.00  0.00    +0.000 A 
ATOM     16  C   UNL     1       6.557   4.862  15.641  0.00  0.00    +0.000 A 
ATOM     17  C   UNL     1       5.261   4.360  15.504  0.00  0.00    +0.000 A 
ATOM     18  C   UNL     1       4.248   4.731  16.397  0.00  0.00    +0.000 A 
BRANCH  16  19
ATOM     19  N   UNL     1       7.511   4.629  14.643  0.00  0.00    +0.000 N 
ATOM     20  H   UNL     1       7.664   5.418  14.023  0.00  0.00    +0.000 HD
ATOM     21  H   UNL     1       8.379   4.231  14.985  0.00  0.00    +0.000 HD
ENDBRANCH  16  19
ENDBRANCH   3  13
BRANCH   2  22
ATOM     22  C   UNL     1       2.026   8.088  19.058  0.00  0.00    +0.000 A 
ATOM     23  C   UNL     1       1.918   7.726  20.409  0.00  0.00    +0.000 A 
ATOM     24  C   UNL     1       1.029   8.396  21.256  0.00  0.00    +0.000 A 
ATOM     25  C   UNL     1       0.242   9.436  20.744  0.00  0.00    +0.000 A 
ATOM     26  C   UNL     1       0.322   9.789  19.391  0.00  0.00    +0.000 A 
ATOM     27  C   UNL     1       1.214   9.113  18.553  0.00  0.00    +0.000 A 
BRANCH  25  28
ATOM     28  N   UNL     1      -0.649  10.183  21.642  0.00  0.00    +0.000 N 
ATOM     29  O   UNL     1      -1.181  11.213  21.202  0.00  0.00    +0.000 OA
ATOM     30  O   UNL     1      -0.831   9.733  22.783  0.00  0.00    +0.000 OA
ENDBRANCH  25  28
ENDBRANCH   2  22
TORSDOF 6
ENDMDL
MODEL 2
REMARK VINA RESULT:      -7.8      0.719      1.079
REMARK  Name = 
REMARK  7 active torsions:
REMARK  status: ('A' for Active; 'I' for Inactive)
REMARK    1  A    between atoms: C_1  and  C_2
REMARK    2  A    between atoms: C_2  and  C_18
REMARK    3  A    between atoms: C_3  and  C_4
REMARK    4  A    between atoms: C_3  and  C_11
REMARK    5  A    between atoms: C_7  and  N_8
REMARK    6  A    between atoms: C_14  and  N_15
REMARK    7  A    between atoms: C_21  and  N_22
REMARK                            x       y       z     vdW  Elec       q    Type
REMARK                         _______ _______ _______ _____ _____    ______ ____
ROOT
ATOM      1  C   UNL     1       3.099   8.554  17.368  0.00  0.00    +0.000 C 
ATOM      2  C   UNL     1       2.640   7.519  18.372  0.00  0.00    +0.000 C 
ATOM      3  C   UNL     1       2.971   6.200  18.355  0.00  0.00    +0.000 C 
ENDROOT
BRANCH   3   4
ATOM      4  C   UNL     1       2.418   5.272  19.372  0.00  0.00    +0.000 A 
ATOM      5  C   UNL     1       3.127   5.018  20.550  0.00  0.00    +0.000 A 
ATOM      6  C   UNL     1       2.648   4.089  21.478  0.00  0.00    +0.000 A 
ATOM      7  C   UNL     1       1.431   3.434  21.270  0.00  0.00    +0.000 A 
ATOM      8  C   UNL     1       0.735   3.676  20.083  0.00  0.00    +0.000 A 
ATOM      9  C   UNL     1       1.210   4.604  19.150  0.00  0.00    +0.000 A 
BRANCH   7  10
ATOM     10  N   UNL     1       1.046   2.383  22.111  0.00  0.00    +0.000 N 
ATOM     11  H   UNL     1       1.658   2.244  22.908  0.00  0.00    +0.000 HD
ATOM     12  H   UNL     1       0.065   2.399  22.371  0.00  0.00    +0.000 HD
ENDBRANCH   7  10
ENDBRANCH   3   4
BRANCH   3  13
ATOM     13  C   UNL     1       3.888   5.710  17.293  0.00  0.00    +0.000 A 
ATOM     14  C   UNL     1       3.945   4.347  16.986  0.00  0.00    +0.000 A 
ATOM     15  C   UNL     1       4.894   3.866  16.076  0.00  0.00    +0.000 A 
ATOM     16  C   UNL     1       5.769   4.740  15.425  0.00  0.00    +0.000 A 
ATOM     17  C   UNL     1       5.723   6.097  15.751  0.00  0.00    +0.000 A 
ATOM     18  C   UNL     1       4.776   6.587  16.660  0.00  0.00    +0.000 A 
BRANCH  16  19
ATOM     19  N   UNL     1       6.828   4.236  14.661  0.00  0.00    +0.000 N 
ATOM     20  H   UNL     1       6.753   3.246  14.449  0.00  0.00    +0.000 HD
ATOM     21  H   UNL     1       7.048   4.792  13.841  0.00  0.00    +0.000 HD
ENDBRANCH  16  19
ENDBRANCH   3  13
BRANCH   2  22
ATOM     22  C   UNL     1       1.778   8.133  19.410  0.00  0.00    +0.000 A 
ATOM     23  C   UNL     1       1.910   7.740  20.751  0.00  0.00    +0.000 A 
ATOM     24  C   UNL     1       1.197   8.399  21.757  0.00  0.00    +0.000 A 
ATOM     25  C   UNL     1       0.344   9.457  21.418  0.00  0.00    +0.000 A 
ATOM     26  C   UNL     1       0.184   9.841  20.080  0.00  0.00    +0.000 A 
ATOM     27  C   UNL     1       0.901   9.176  19.081  0.00  0.00    +0.000 A 
BRANCH  25  28
ATOM     28  N   UNL     1      -0.362  10.192  22.477  0.00  0.00    +0.000 N 
ATOM     29  O   UNL     1      -1.247  10.989  22.136  0.00  0.00    +0.000 OA
ATOM     30  O   UNL     1      -0.041   9.960  23.653  0.00  0.00    +0.000 OA
ENDBRANCH  25  28
ENDBRANCH   2  22
TORSDOF 6
ENDMDL
MODEL 3
REMARK VINA RESULT:      -7.8      0.348      1.170
REMARK  Name = 
REMARK  7 active torsions:
REMARK  status: ('A' for Active; 'I' for Inactive)
REMARK    1  A    between atoms: C_1  and  C_2
REMARK    2  A    between atoms: C_2  and  C_18
REMARK    3  A    between atoms: C_3  and  C_4
REMARK    4  A    between atoms: C_3  and  C_11
REMARK    5  A    between atoms: C_7  and  N_8
REMARK    6  A    between atoms: C_14  and  N_15
REMARK    7  A    between atoms: C_21  and  N_22
REMARK                            x       y       z     vdW  Elec       q    Type
REMARK                         _______ _______ _______ _____ _____    ______ ____
ROOT
ATOM      1  C   UNL     1       3.815   8.359  17.175  0.00  0.00    +0.000 C 
ATOM      2  C   UNL     1       3.234   7.293  18.079  0.00  0.00    +0.000 C 
ATOM      3  C   UNL     1       3.605   5.984  18.098  0.00  0.00    +0.000 C 
ENDROOT
BRANCH   3   4
ATOM      4  C   UNL     1       2.925   5.023  19.000  0.00  0.00    +0.000 A 
ATOM      5  C   UNL     1       1.677   4.496  18.653  0.00  0.00    +0.000 A 
ATOM      6  C   UNL     1       0.997   3.647  19.531  0.00  0.00    +0.000 A 
ATOM      7  C   UNL     1       1.571   3.272  20.749  0.00  0.00    +0.000 A 
ATOM      8  C   UNL     1       2.809   3.815  21.100  0.00  0.00    +0.000 A 
ATOM      9  C   UNL     1       3.494   4.666  20.226  0.00  0.00    +0.000 A 
BRANCH   7  10
ATOM     10  N   UNL     1       0.816   2.569  21.695  0.00  0.00    +0.000 N 
ATOM     11  H   UNL     1       0.786   3.006  22.610  0.00  0.00    +0.000 HD
ATOM     12  H   UNL     1      -0.103   2.290  21.367  0.00  0.00    +0.000 HD
ENDBRANCH   7  10
ENDBRANCH   3   4
BRANCH   3  13
ATOM     13  C   UNL     1       4.695   5.541  17.191  0.00  0.00    +0.000 A 
ATOM     14  C   UNL     1       5.998   6.020  17.370  0.00  0.00    +0.000 A 
ATOM     15  C   UNL     1       7.000   5.703  16.445  0.00  0.00    +0.000 A 
ATOM     16  C   UNL     1       6.732   4.870  15.355  0.00  0.00    +0.000 A 
ATOM     17  C   UNL     1       5.426   4.413  15.170  0.00  0.00    +0.000 A 
ATOM     18  C   UNL     1       4.417   4.724  16.090  0.00  0.00    +0.000 A 
BRANCH  16  19
ATOM     19  N   UNL     1       7.685   4.708  14.343  0.00  0.00    +0.000 N 
ATOM     20  H   UNL     1       8.076   3.773  14.287  0.00  0.00    +0.000 HD
ATOM     21  H   UNL     1       7.392   5.060  13.438  0.00  0.00    +0.000 HD
ENDBRANCH  16  19
ENDBRANCH   3  13
BRANCH   2  22
ATOM     22  C   UNL     1       2.197   7.862  18.973  0.00  0.00    +0.000 A 
ATOM     23  C   UNL     1       2.104   7.426  20.303  0.00  0.00    +0.000 A 
ATOM     24  C   UNL     1       1.220   8.042  21.193  0.00  0.00    +0.000 A 
ATOM     25  C   UNL     1       0.421   9.104  20.747  0.00  0.00    +0.000 A 
ATOM     26  C   UNL     1       0.486   9.532  19.415  0.00  0.00    +0.000 A 
ATOM     27  C   UNL     1       1.374   8.908  18.533  0.00  0.00    +0.000 A 
BRANCH  25  28
ATOM     28  N   UNL     1      -0.466   9.795  21.693  0.00  0.00    +0.000 N 
ATOM     29  O   UNL     1      -0.720   9.229  22.766  0.00  0.00    +0.000 OA
ATOM     30  O   UNL     1      -0.898  10.912  21.370  0.00  0.00    +0.000 OA
ENDBRANCH  25  28
ENDBRANCH   2  22
TORSDOF 6
ENDMDL
MODEL 4
REMARK VINA RESULT:      -7.5      4.656      8.205
REMARK  Name = 
REMARK  7 active torsions:
REMARK  status: ('A' for Active; 'I' for Inactive)
REMARK    1  A    between atoms: C_1  and  C_2
REMARK    2  A    between atoms: C_2  and  C_18
REMARK    3  A    between atoms: C_3  and  C_4
REMARK    4  A    between atoms: C_3  and  C_11
REMARK    5  A    between atoms: C_7  and  N_8
REMARK    6  A    between atoms: C_14  and  N_15
REMARK    7  A    between atoms: C_21  and  N_22
REMARK                            x       y       z     vdW  Elec       q    Type
REMARK                         _______ _______ _______ _____ _____    ______ ____
ROOT
ATOM      1  C   UNL     1      -0.831  14.331  18.617  0.00  0.00    +0.000 C 
ATOM      2  C   UNL     1      -0.061  13.060  18.907  0.00  0.00    +0.000 C 
ATOM      3  C   UNL     1      -0.561  11.798  18.827  0.00  0.00    +0.000 C 
ENDROOT
BRANCH   3   4
ATOM      4  C   UNL     1       0.283  10.631  19.183  0.00  0.00    +0.000 A 
ATOM      5  C   UNL     1       1.091  10.027  18.214  0.00  0.00    +0.000 A 
ATOM      6  C   UNL     1       1.832   8.883  18.523  0.00  0.00    +0.000 A 
ATOM      7  C   UNL     1       1.817   8.349  19.814  0.00  0.00    +0.000 A 
ATOM      8  C   UNL     1       0.993   8.943  20.774  0.00  0.00    +0.000 A 
ATOM      9  C   UNL     1       0.249  10.089  20.471  0.00  0.00    +0.000 A 
BRANCH   7  10
ATOM     10  N   UNL     1       2.417   7.110  20.070  0.00  0.00    +0.000 N 
ATOM     11  H   UNL     1       3.038   7.109  20.872  0.00  0.00    +0.000 HD
ATOM     12  H   UNL     1       1.769   6.330  20.079  0.00  0.00    +0.000 HD
ENDBRANCH   7  10
ENDBRANCH   3   4
BRANCH   3  13
ATOM     13  C   UNL     1      -1.968  11.617  18.386  0.00  0.00    +0.000 A 
ATOM     14  C   UNL     1      -2.249  11.220  17.074  0.00  0.00    +0.000 A 
ATOM     15  C   UNL     1      -3.572  11.168  16.619  0.00  0.00    +0.000 A 
ATOM     16  C   UNL     1      -4.636  11.466  17.475  0.00  0.00    +0.000 A 
ATOM     17  C   UNL     1      -4.349  11.882  18.777  0.00  0.00    +0.000 A 
ATOM     18  C   UNL     1      -3.029  11.936  19.241  0.00  0.00    +0.000 A 
BRANCH  16  19
ATOM     19  N   UNL     1      -5.934  11.589  16.967  0.00  0.00    +0.000 N 
ATOM     20  H   UNL     1      -6.351  12.504  17.107  0.00  0.00    +0.000 HD
ATOM     21  H   UNL     1      -6.039  11.258  16.013  0.00  0.00    +0.000 HD
ENDBRANCH  16  19
ENDBRANCH   3  13
BRANCH   2  22
ATOM     22  C   UNL     1       1.341  13.363  19.283  0.00  0.00    +0.000 A 
ATOM     23  C   UNL     1       2.290  13.632  18.286  0.00  0.00    +0.000 A 
ATOM     24  C   UNL     1       3.581  14.045  18.627  0.00  0.00    +0.000 A 
ATOM     25  C   UNL     1       3.925  14.188  19.978  0.00  0.00    +0.000 A 
ATOM     26  C   UNL     1       2.994  13.897  20.984  0.00  0.00    +0.000 A 
ATOM     27  C   UNL     1       1.705  13.485  20.632  0.00  0.00    +0.000 A 
BRANCH  25  28
ATOM     28  N   UNL     1       5.261  14.679  20.342  0.00  0.00    +0.000 N 
ATOM     29  O   UNL     1       5.531  14.782  21.547  0.00  0.00    +0.000 OA
ATOM     30  O   UNL     1       6.048  14.946  19.421  0.00  0.00    +0.000 OA
ENDBRANCH  25  28
ENDBRANCH   2  22
TORSDOF 6
ENDMDL
MODEL 5
REMARK VINA RESULT:      -7.3      4.603      7.669
REMARK  Name = 
REMARK  7 active torsions:
REMARK  status: ('A' for Active; 'I' for Inactive)
REMARK    1  A    between atoms: C_1  and  C_2
REMARK    2  A    between atoms: C_2  and  C_18
REMARK    3  A    between atoms: C_3  and  C_4
REMARK    4  A    between atoms: C_3  and  C_11
REMARK    5  A    between atoms: C_7  and  N_8
REMARK    6  A    between atoms: C_14  and  N_15
REMARK    7  A    between atoms: C_21  and  N_22
REMARK                            x       y       z     vdW  Elec       q    Type
REMARK                         _______ _______ _______ _____ _____    ______ ____
ROOT
ATOM      1  C   UNL     1       1.783  12.489  20.442  0.00  0.00    +0.000 C 
ATOM      2  C   UNL     1       0.419  12.446  19.788  0.00  0.00    +0.000 C 
ATOM      3  C   UNL     1      -0.200  11.327  19.324  0.00  0.00    +0.000 C 
ENDROOT
BRANCH   3   4
ATOM      4  C   UNL     1      -1.522  11.421  18.656  0.00  0.00    +0.000 A 
ATOM      5  C   UNL     1      -2.650  11.809  19.386  0.00  0.00    +0.000 A 
ATOM      6  C   UNL     1      -3.911  11.828  18.783  0.00  0.00    +0.000 A 
ATOM      7  C   UNL     1      -4.062  11.507  17.431  0.00  0.00    +0.000 A 
ATOM      8  C   UNL     1      -2.935  11.101  16.711  0.00  0.00    +0.000 A 
ATOM      9  C   UNL     1      -1.670  11.079  17.309  0.00  0.00    +0.000 A 
BRANCH   7  10
ATOM     10  N   UNL     1      -5.340  11.358  16.882  0.00  0.00    +0.000 N 
ATOM     11  H   UNL     1      -5.714  10.417  16.949  0.00  0.00    +0.000 HD
ATOM     12  H   UNL     1      -6.005  12.062  17.184  0.00  0.00    +0.000 HD
ENDBRANCH   7  10
ENDBRANCH   3   4
BRANCH   3  13
ATOM     13  C   UNL     1       0.480  10.017  19.491  0.00  0.00    +0.000 A 
ATOM     14  C   UNL     1       0.407   9.337  20.712  0.00  0.00    +0.000 A 
ATOM     15  C   UNL     1       1.146   8.166  20.914  0.00  0.00    +0.000 A 
ATOM     16  C   UNL     1       1.933   7.630  19.890  0.00  0.00    +0.000 A 
ATOM     17  C   UNL     1       2.019   8.324  18.681  0.00  0.00    +0.000 A 
ATOM     18  C   UNL     1       1.282   9.496  18.470  0.00  0.00    +0.000 A 
BRANCH  16  19
ATOM     19  N   UNL     1       2.805   6.568  20.156  0.00  0.00    +0.000 N 
ATOM     20  H   UNL     1       3.166   6.109  19.326  0.00  0.00    +0.000 HD
ATOM     21  H   UNL     1       3.536   6.790  20.823  0.00  0.00    +0.000 HD
ENDBRANCH  16  19
ENDBRANCH   3  13
BRANCH   2  22
ATOM     22  C   UNL     1      -0.183  13.800  19.725  0.00  0.00    +0.000 A 
ATOM     23  C   UNL     1      -0.880  14.307  20.831  0.00  0.00    +0.000 A 
ATOM     24  C   UNL     1      -1.341  15.627  20.837  0.00  0.00    +0.000 A 
ATOM     25  C   UNL     1      -1.103  16.444  19.724  0.00  0.00    +0.000 A 
ATOM     26  C   UNL     1      -0.430  15.942  18.602  0.00  0.00    +0.000 A 
ATOM     27  C   UNL     1       0.026  14.620  18.608  0.00  0.00    +0.000 A 
BRANCH  25  28
ATOM     28  N   UNL     1      -1.532  17.850  19.748  0.00  0.00    +0.000 N 
ATOM     29  O   UNL     1      -2.500  18.170  19.042  0.00  0.00    +0.000 OA
ATOM     30  O   UNL     1      -0.911  18.631  20.484  0.00  0.00    +0.000 OA
ENDBRANCH  25  28
ENDBRANCH   2  22
TORSDOF 6
ENDMDL
MODEL 6
REMARK VINA RESULT:      -7.3      0.713      1.210
REMARK  Name = 
REMARK  7 active torsions:
REMARK  status: ('A' for Active; 'I' for Inactive)
REMARK    1  A    between atoms: C_1  and  C_2
REMARK    2  A    between atoms: C_2  and  C_18
REMARK    3  A    between atoms: C_3  and  C_4
REMARK    4  A    between atoms: C_3  and  C_11
REMARK    5  A    between atoms: C_7  and  N_8
REMARK    6  A    between atoms: C_14  and  N_15
REMARK    7  A    between atoms: C_21  and  N_22
REMARK                            x       y       z     vdW  Elec       q    Type
REMARK                         _______ _______ _______ _____ _____    ______ ____
ROOT
ATOM      1  C   UNL     1       3.646   8.154  17.017  0.00  0.00    +0.000 C 
ATOM      2  C   UNL     1       3.081   7.216  18.062  0.00  0.00    +0.000 C 
ATOM      3  C   UNL     1       3.307   5.877  18.127  0.00  0.00    +0.000 C 
ENDROOT
BRANCH   3   4
ATOM      4  C   UNL     1       2.656   5.054  19.176  0.00  0.00    +0.000 A 
ATOM      5  C   UNL     1       3.326   4.786  20.374  0.00  0.00    +0.000 A 
ATOM      6  C   UNL     1       2.749   3.951  21.336  0.00  0.00    +0.000 A 
ATOM      7  C   UNL     1       1.477   3.408  21.140  0.00  0.00    +0.000 A 
ATOM      8  C   UNL     1       0.820   3.662  19.934  0.00  0.00    +0.000 A 
ATOM      9  C   UNL     1       1.391   4.497  18.967  0.00  0.00    +0.000 A 
BRANCH   7  10
ATOM     10  N   UNL     1       0.983   2.438  22.021  0.00  0.00    +0.000 N 
ATOM     11  H   UNL     1       0.257   2.776  22.644  0.00  0.00    +0.000 HD
ATOM     12  H   UNL     1       0.735   1.561  21.575  0.00  0.00    +0.000 HD
ENDBRANCH   7  10
ENDBRANCH   3   4
BRANCH   3  13
ATOM     13  C   UNL     1       4.210   5.258  17.122  0.00  0.00    +0.000 A 
ATOM     14  C   UNL     1       4.980   6.065  16.277  0.00  0.00    +0.000 A 
ATOM     15  C   UNL     1       5.736   5.491  15.248  0.00  0.00    +0.000 A 
ATOM     16  C   UNL     1       5.772   4.105  15.073  0.00  0.00    +0.000 A 
ATOM     17  C   UNL     1       4.985   3.306  15.905  0.00  0.00    +0.000 A 
ATOM     18  C   UNL     1       4.226   3.872  16.938  0.00  0.00    +0.000 A 
BRANCH  16  19
ATOM     19  N   UNL     1       6.379   3.554  13.938  0.00  0.00    +0.000 N 
ATOM     20  H   UNL     1       7.316   3.901  13.759  0.00  0.00    +0.000 HD
ATOM     21  H   UNL     1       6.325   2.542  13.890  0.00  0.00    +0.000 HD
ENDBRANCH  16  19
ENDBRANCH   3  13
BRANCH   2  22
ATOM     22  C   UNL     1       2.243   7.953  19.039  0.00  0.00    +0.000 A 
ATOM     23  C   UNL     1       1.496   9.064  18.621  0.00  0.00    +0.000 A 
ATOM     24  C   UNL     1       0.603   9.690  19.496  0.00  0.00    +0.000 A 
ATOM     25  C   UNL     1       0.459   9.200  20.801  0.00  0.00    +0.000 A 
ATOM     26  C   UNL     1       1.219   8.107  21.238  0.00  0.00    +0.000 A 
ATOM     27  C   UNL     1       2.109   7.489  20.355  0.00  0.00    +0.000 A 
BRANCH  25  28
ATOM     28  N   UNL     1      -0.521   9.816  21.706  0.00  0.00    +0.000 N 
ATOM     29  O   UNL     1      -1.055  10.874  21.344  0.00  0.00    +0.000 OA
ATOM     30  O   UNL     1      -0.768   9.233  22.772  0.00  0.00    +0.000 OA
ENDBRANCH  25  28
ENDBRANCH   2  22
TORSDOF 6
ENDMDL
MODEL 7
REMARK VINA RESULT:      -7.3      9.007     10.716
REMARK  Name = 
REMARK  7 active torsions:
REMARK  status: ('A' for Active; 'I' for Inactive)
REMARK    1  A    between atoms: C_1  and  C_2
REMARK    2  A    between atoms: C_2  and  C_18
REMARK    3  A    between atoms: C_3  and  C_4
REMARK    4  A    between atoms: C_3  and  C_11
REMARK    5  A    between atoms: C_7  and  N_8
REMARK    6  A    between atoms: C_14  and  N_15
REMARK    7  A    between atoms: C_21  and  N_22
REMARK                            x       y       z     vdW  Elec       q    Type
REMARK                         _______ _______ _______ _____ _____    ______ ____
ROOT
ATOM      1  C   UNL     1       9.133  10.768  21.403  0.00  0.00    +0.000 C 
ATOM      2  C   UNL     1       8.933  12.216  21.798  0.00  0.00    +0.000 C 
ATOM      3  C   UNL     1       9.399  13.294  21.113  0.00  0.00    +0.000 C 
ENDROOT
BRANCH   3   4
ATOM      4  C   UNL     1       9.178  14.667  21.630  0.00  0.00    +0.000 A 
ATOM      5  C   UNL     1      10.143  15.276  22.439  0.00  0.00    +0.000 A 
ATOM      6  C   UNL     1       9.910  16.540  22.990  0.00  0.00    +0.000 A 
ATOM      7  C   UNL     1       8.732  17.236  22.706  0.00  0.00    +0.000 A 
ATOM      8  C   UNL     1       7.763  16.616  21.913  0.00  0.00    +0.000 A 
ATOM      9  C   UNL     1       7.990  15.352  21.359  0.00  0.00    +0.000 A 
BRANCH   7  10
ATOM     10  N   UNL     1       8.429  18.416  23.396  0.00  0.00    +0.000 N 
ATOM     11  H   UNL     1       9.223  18.836  23.867  0.00  0.00    +0.000 HD
ATOM     12  H   UNL     1       7.898  19.089  22.853  0.00  0.00    +0.000 HD
ENDBRANCH   7  10
ENDBRANCH   3   4
BRANCH   3  13
ATOM     13  C   UNL     1      10.140  13.065  19.845  0.00  0.00    +0.000 A 
ATOM     14  C   UNL     1      11.522  12.850  19.866  0.00  0.00    +0.000 A 
ATOM     15  C   UNL     1      12.241  12.758  18.669  0.00  0.00    +0.000 A 
ATOM     16  C   UNL     1      11.590  12.834  17.435  0.00  0.00    +0.000 A 
ATOM     17  C   UNL     1      10.214  13.069  17.419  0.00  0.00    +0.000 A 
ATOM     18  C   UNL     1       9.486  13.162  18.612  0.00  0.00    +0.000 A 
BRANCH  16  19
ATOM     19  N   UNL     1      12.333  12.923  16.252  0.00  0.00    +0.000 N 
ATOM     20  H   UNL     1      12.460  12.037  15.773  0.00  0.00    +0.000 HD
ATOM     21  H   UNL     1      12.028  13.661  15.626  0.00  0.00    +0.000 HD
ENDBRANCH  16  19
ENDBRANCH   3  13
BRANCH   2  22
ATOM     22  C   UNL     1       8.138  12.320  23.045  0.00  0.00    +0.000 A 
ATOM     23  C   UNL     1       6.736  12.310  22.984  0.00  0.00    +0.000 A 
ATOM     24  C   UNL     1       5.974  12.277  24.155  0.00  0.00    +0.000 A 
ATOM     25  C   UNL     1       6.620  12.257  25.398  0.00  0.00    +0.000 A 
ATOM     26  C   UNL     1       8.019  12.293  25.473  0.00  0.00    +0.000 A 
ATOM     27  C   UNL     1       8.772  12.325  24.296  0.00  0.00    +0.000 A 
BRANCH  25  28
ATOM     28  N   UNL     1       5.826  12.162  26.630  0.00  0.00    +0.000 N 
ATOM     29  O   UNL     1       6.436  12.056  27.704  0.00  0.00    +0.000 OA
ATOM     30  O   UNL     1       4.591  12.209  26.527  0.00  0.00    +0.000 OA
ENDBRANCH  25  28
ENDBRANCH   2  22
TORSDOF 6
ENDMDL
MODEL 8
REMARK VINA RESULT:      -7.3      3.342      6.279
REMARK  Name = 
REMARK  7 active torsions:
REMARK  status: ('A' for Active; 'I' for Inactive)
REMARK    1  A    between atoms: C_1  and  C_2
REMARK    2  A    between atoms: C_2  and  C_18
REMARK    3  A    between atoms: C_3  and  C_4
REMARK    4  A    between atoms: C_3  and  C_11
REMARK    5  A    between atoms: C_7  and  N_8
REMARK    6  A    between atoms: C_14  and  N_15
REMARK    7  A    between atoms: C_21  and  N_22
REMARK                            x       y       z     vdW  Elec       q    Type
REMARK                         _______ _______ _______ _____ _____    ______ ____
ROOT
ATOM      1  C   UNL     1       1.629   9.824  22.335  0.00  0.00    +0.000 C 
ATOM      2  C   UNL     1       0.582  10.277  21.340  0.00  0.00    +0.000 C 
ATOM      3  C   UNL     1       0.454   9.822  20.064  0.00  0.00    +0.000 C 
ENDROOT
BRANCH   3   4
ATOM      4  C   UNL     1      -0.588  10.380  19.167  0.00  0.00    +0.000 A 
ATOM      5  C   UNL     1      -1.709   9.615  18.833  0.00  0.00    +0.000 A 
ATOM      6  C   UNL     1      -2.657  10.106  17.930  0.00  0.00    +0.000 A 
ATOM      7  C   UNL     1      -2.528  11.385  17.383  0.00  0.00    +0.000 A 
ATOM      8  C   UNL     1      -1.396  12.138  17.705  0.00  0.00    +0.000 A 
ATOM      9  C   UNL     1      -0.443  11.653  18.608  0.00  0.00    +0.000 A 
BRANCH   7  10
ATOM     10  N   UNL     1      -3.380  11.799  16.353  0.00  0.00    +0.000 N 
ATOM     11  H   UNL     1      -3.278  11.270  15.493  0.00  0.00    +0.000 HD
ATOM     12  H   UNL     1      -4.350  11.900  16.634  0.00  0.00    +0.000 HD
ENDBRANCH   7  10
ENDBRANCH   3   4
BRANCH   3  13
ATOM     13  C   UNL     1       1.384   8.765  19.590  0.00  0.00    +0.000 A 
ATOM     14  C   UNL     1       1.994   8.876  18.336  0.00  0.00    +0.000 A 
ATOM     15  C   UNL     1       2.772   7.826  17.833  0.00  0.00    +0.000 A 
ATOM     16  C   UNL     1       2.990   6.671  18.588  0.00  0.00    +0.000 A 
ATOM     17  C   UNL     1       2.361   6.556  19.830  0.00  0.00    +0.000 A 
ATOM     18  C   UNL     1       1.582   7.602  20.341  0.00  0.00    +0.000 A 
BRANCH  16  19
ATOM     19  N   UNL     1       3.612   5.558  18.009  0.00  0.00    +0.000 N 
ATOM     20  H   UNL     1       3.570   5.540  16.995  0.00  0.00    +0.000 HD
ATOM     21  H   UNL     1       4.546   5.376  18.361  0.00  0.00    +0.000 HD
ENDBRANCH  16  19
ENDBRANCH   3  13
BRANCH   2  22
ATOM     22  C   UNL     1      -0.319  11.289  21.942  0.00  0.00    +0.000 A 
ATOM     23  C   UNL     1      -1.412  10.880  22.719  0.00  0.00    +0.000 A 
ATOM     24  C   UNL     1      -2.193  11.819  23.398  0.00  0.00    +0.000 A 
ATOM     25  C   UNL     1      -1.878  13.181  23.296  0.00  0.00    +0.000 A 
ATOM     26  C   UNL     1      -0.804  13.605  22.502  0.00  0.00    +0.000 A 
ATOM     27  C   UNL     1      -0.029  12.657  21.827  0.00  0.00    +0.000 A 
BRANCH  25  28
ATOM     28  N   UNL     1      -2.658  14.168  24.055  0.00  0.00    +0.000 N 
ATOM     29  O   UNL     1      -2.069  14.821  24.929  0.00  0.00    +0.000 OA
ATOM     30  O   UNL     1      -3.857  14.301  23.768  0.00  0.00    +0.000 OA
ENDBRANCH  25  28
ENDBRANCH   2  22
TORSDOF 6
ENDMDL
MODEL 9
REMARK VINA RESULT:      -7.3      4.880      8.366
REMARK  Name = 
REMARK  7 active torsions:
REMARK  status: ('A' for Active; 'I' for Inactive)
REMARK    1  A    between atoms: C_1  and  C_2
REMARK    2  A    between atoms: C_2  and  C_18
REMARK    3  A    between atoms: C_3  and  C_4
REMARK    4  A    between atoms: C_3  and  C_11
REMARK    5  A    between atoms: C_7  and  N_8
REMARK    6  A    between atoms: C_14  and  N_15
REMARK    7  A    between atoms: C_21  and  N_22
REMARK                            x       y       z     vdW  Elec       q    Type
REMARK                         _______ _______ _______ _____ _____    ______ ____
ROOT
ATOM      1  C   UNL     1      -0.737  14.663  18.677  0.00  0.00    +0.000 C 
ATOM      2  C   UNL     1      -0.035  13.367  19.020  0.00  0.00    +0.000 C 
ATOM      3  C   UNL     1      -0.603  12.131  18.998  0.00  0.00    +0.000 C 
ENDROOT
BRANCH   3   4
ATOM      4  C   UNL     1       0.179  10.937  19.403  0.00  0.00    +0.000 A 
ATOM      5  C   UNL     1       0.951  10.251  18.460  0.00  0.00    +0.000 A 
ATOM      6  C   UNL     1       1.631   9.083  18.817  0.00  0.00    +0.000 A 
ATOM      7  C   UNL     1       1.592   8.606  20.130  0.00  0.00    +0.000 A 
ATOM      8  C   UNL     1       0.804   9.284  21.064  0.00  0.00    +0.000 A 
ATOM      9  C   UNL     1       0.121  10.453  20.713  0.00  0.00    +0.000 A 
BRANCH   7  10
ATOM     10  N   UNL     1       2.126   7.349  20.438  0.00  0.00    +0.000 N 
ATOM     11  H   UNL     1       1.722   6.918  21.263  0.00  0.00    +0.000 HD
ATOM     12  H   UNL     1       2.171   6.714  19.649  0.00  0.00    +0.000 HD
ENDBRANCH   7  10
ENDBRANCH   3   4
BRANCH   3  13
ATOM     13  C   UNL     1      -2.020  12.007  18.570  0.00  0.00    +0.000 A 
ATOM     14  C   UNL     1      -3.054  12.263  19.476  0.00  0.00    +0.000 A 
ATOM     15  C   UNL     1      -4.386  12.028  19.115  0.00  0.00    +0.000 A 
ATOM     16  C   UNL     1      -4.711  11.577  17.832  0.00  0.00    +0.000 A 
ATOM     17  C   UNL     1      -3.673  11.302  16.938  0.00  0.00    +0.000 A 
ATOM     18  C   UNL     1      -2.339  11.536  17.292  0.00  0.00    +0.000 A 
BRANCH  16  19
ATOM     19  N   UNL     1      -6.018  11.173  17.539  0.00  0.00    +0.000 N 
ATOM     20  H   UNL     1      -6.538  10.832  18.342  0.00  0.00    +0.000 HD
ATOM     21  H   UNL     1      -6.547  11.845  16.993  0.00  0.00    +0.000 HD
ENDBRANCH  16  19
ENDBRANCH   3  13
BRANCH   2  22
ATOM     22  C   UNL     1       1.383  13.610  19.379  0.00  0.00    +0.000 A 
ATOM     23  C   UNL     1       2.333  13.823  18.369  0.00  0.00    +0.000 A 
ATOM     24  C   UNL     1       3.645  14.181  18.692  0.00  0.00    +0.000 A 
ATOM     25  C   UNL     1       4.009  14.324  20.037  0.00  0.00    +0.000 A 
ATOM     26  C   UNL     1       3.076  14.089  21.056  0.00  0.00    +0.000 A 
ATOM     27  C   UNL     1       1.766  13.732  20.722  0.00  0.00    +0.000 A 
BRANCH  25  28
ATOM     28  N   UNL     1       5.370  14.758  20.381  0.00  0.00    +0.000 N 
ATOM     29  O   UNL     1       5.652  14.879  21.582  0.00  0.00    +0.000 OA
ATOM     30  O   UNL     1       6.163  14.964  19.450  0.00  0.00    +0.000 OA
ENDBRANCH  25  28
ENDBRANCH   2  22
TORSDOF 6
ENDMDL
