MODEL 1
REMARK VINA RESULT:      -8.2      0.000      0.000
REMARK  Name = 
REMARK  8 active torsions:
REMARK  status: ('A' for Active; 'I' for Inactive)
REMARK    1  A    between atoms: C_1  and  O_2
REMARK    2  A    between atoms: O_2  and  C_3
REMARK    3  A    between atoms: C_6  and  C_7
REMARK    4  A    between atoms: C_8  and  C_9
REMARK    5  A    between atoms: C_9  and  C_15
REMARK    6  A    between atoms: N_10  and  N_11
REMARK    7  A    between atoms: C_22  and  O_23
REMARK    8  A    between atoms: O_23  and  C_24
REMARK                            x       y       z     vdW  Elec       q    Type
REMARK                         _______ _______ _______ _____ _____    ______ ____
ROOT
ATOM      1  C   UNL     1       7.032   6.628  17.237  0.00  0.00    +0.000 C 
ATOM      2  N   UNL     1       7.559   6.002  16.220  0.00  0.00    +0.000 NA
ENDROOT
BRANCH   2   3
ATOM      3  N   UNL     1       6.830   5.087  15.526  0.00  0.00    +0.000 N 
ATOM      4  C   UNL     1       7.069   4.802  14.215  0.00  0.00    +0.000 C 
ATOM      5  N   UNL     1       7.892   5.457  13.469  0.00  0.00    +0.000 NA
ATOM      6  N   UNL     1       6.425   3.721  13.724  0.00  0.00    +0.000 N 
ATOM      7  H   UNL     1       6.224   4.444  16.023  0.00  0.00    +0.000 HD
ATOM      8  H   UNL     1       8.257   6.185  14.102  0.00  0.00    +0.000 HD
ATOM      9  H   UNL     1       5.442   3.669  13.950  0.00  0.00    +0.000 HD
ATOM     10  H   UNL     1       6.572   3.678  12.719  0.00  0.00    +0.000 HD
ENDBRANCH   2   3
BRANCH   1  11
ATOM     11  C   UNL     1       5.686   6.393  17.867  0.00  0.00    +0.000 A 
ATOM     12  C   UNL     1       5.562   5.491  18.937  0.00  0.00    +0.000 A 
ATOM     13  C   UNL     1       4.310   5.221  19.498  0.00  0.00    +0.000 A 
ATOM     14  C   UNL     1       3.177   5.872  19.019  0.00  0.00    +0.000 A 
ATOM     15  C   UNL     1       3.289   6.776  17.965  0.00  0.00    +0.000 A 
ATOM     16  C   UNL     1       4.533   7.017  17.375  0.00  0.00    +0.000 A 
ENDBRANCH   1  11
BRANCH   1  18
ATOM     17  C   UNL     1       7.823   8.946  17.617  0.00  0.00    +0.000 C 
ATOM     18  C   UNL     1       7.865   7.649  17.952  0.00  0.00    +0.000 C 
BRANCH  17  22
ATOM     19  C   UNL     1      10.201  11.925  19.620  0.00  0.00    +0.000 A 
ATOM     20  C   UNL     1       9.833  10.729  20.255  0.00  0.00    +0.000 A 
ATOM     21  C   UNL     1       9.060   9.767  19.594  0.00  0.00    +0.000 A 
ATOM     22  C   UNL     1       8.608   9.990  18.294  0.00  0.00    +0.000 A 
ATOM     23  C   UNL     1       8.961  11.193  17.670  0.00  0.00    +0.000 A 
ATOM     24  C   UNL     1       9.738  12.171  18.318  0.00  0.00    +0.000 A 
BRANCH  19  26
ATOM     25  C   UNL     1      10.276  13.852  21.004  0.00  0.00    +0.000 C 
ATOM     26  O   UNL     1      10.973  12.867  20.246  0.00  0.00    +0.000 OA
ENDBRANCH  19  26
BRANCH  24  27
ATOM     27  O   UNL     1       9.949  13.264  17.520  0.00  0.00    +0.000 OA
ATOM     28  C   UNL     1      11.192  13.404  16.850  0.00  0.00    +0.000 C 
ENDBRANCH  24  27
ENDBRANCH  17  22
ENDBRANCH   1  18
TORSDOF 6
ENDMDL
MODEL 2
REMARK VINA RESULT:      -8.0      6.091      7.432
REMARK  Name = 
REMARK  8 active torsions:
REMARK  status: ('A' for Active; 'I' for Inactive)
REMARK    1  A    between atoms: C_1  and  O_2
REMARK    2  A    between atoms: O_2  and  C_3
REMARK    3  A    between atoms: C_6  and  C_7
REMARK    4  A    between atoms: C_8  and  C_9
REMARK    5  A    between atoms: C_9  and  C_15
REMARK    6  A    between atoms: N_10  and  N_11
REMARK    7  A    between atoms: C_22  and  O_23
REMARK    8  A    between atoms: O_23  and  C_24
REMARK                            x       y       z     vdW  Elec       q    Type
REMARK                         _______ _______ _______ _____ _____    ______ ____
ROOT
ATOM      1  C   UNL     1       3.932   4.859  18.752  0.00  0.00    +0.000 C 
ATOM      2  N   UNL     1       3.383   3.916  19.469  0.00  0.00    +0.000 NA
ENDROOT
BRANCH   2   3
ATOM      3  N   UNL     1       3.868   2.647  19.418  0.00  0.00    +0.000 N 
ATOM      4  C   UNL     1       3.369   1.705  18.569  0.00  0.00    +0.000 C 
ATOM      5  N   UNL     1       2.313   1.867  17.846  0.00  0.00    +0.000 NA
ATOM      6  N   UNL     1       4.091   0.568  18.466  0.00  0.00    +0.000 N 
ATOM      7  H   UNL     1       4.752   2.427  19.864  0.00  0.00    +0.000 HD
ATOM      8  H   UNL     1       1.999   2.817  18.097  0.00  0.00    +0.000 HD
ATOM      9  H   UNL     1       4.386   0.167  19.344  0.00  0.00    +0.000 HD
ATOM     10  H   UNL     1       3.566  -0.107  17.914  0.00  0.00    +0.000 HD
ENDBRANCH   2   3
BRANCH   1  11
ATOM     11  C   UNL     1       5.024   4.720  17.727  0.00  0.00    +0.000 A 
ATOM     12  C   UNL     1       6.370   4.819  18.119  0.00  0.00    +0.000 A 
ATOM     13  C   UNL     1       7.395   4.746  17.171  0.00  0.00    +0.000 A 
ATOM     14  C   UNL     1       7.088   4.539  15.829  0.00  0.00    +0.000 A 
ATOM     15  C   UNL     1       5.758   4.428  15.429  0.00  0.00    +0.000 A 
ATOM     16  C   UNL     1       4.730   4.542  16.369  0.00  0.00    +0.000 A 
ENDBRANCH   1  11
BRANCH   1  18
ATOM     17  C   UNL     1       2.441   6.558  19.769  0.00  0.00    +0.000 C 
ATOM     18  C   UNL     1       3.381   6.249  18.864  0.00  0.00    +0.000 C 
BRANCH  17  22
ATOM     19  C   UNL     1       0.708  10.479  20.168  0.00  0.00    +0.000 A 
ATOM     20  C   UNL     1       1.113   9.977  18.921  0.00  0.00    +0.000 A 
ATOM     21  C   UNL     1       1.675   8.701  18.803  0.00  0.00    +0.000 A 
ATOM     22  C   UNL     1       1.876   7.906  19.932  0.00  0.00    +0.000 A 
ATOM     23  C   UNL     1       1.487   8.418  21.175  0.00  0.00    +0.000 A 
ATOM     24  C   UNL     1       0.920   9.698  21.313  0.00  0.00    +0.000 A 
BRANCH  19  26
ATOM     25  C   UNL     1       1.014  12.781  20.662  0.00  0.00    +0.000 C 
ATOM     26  O   UNL     1       0.138  11.718  20.296  0.00  0.00    +0.000 OA
ENDBRANCH  19  26
BRANCH  24  27
ATOM     27  O   UNL     1       0.628   9.988  22.620  0.00  0.00    +0.000 OA
ATOM     28  C   UNL     1      -0.719   9.925  23.060  0.00  0.00    +0.000 C 
ENDBRANCH  24  27
ENDBRANCH  17  22
ENDBRANCH   1  18
TORSDOF 6
ENDMDL
MODEL 3
REMARK VINA RESULT:      -7.8      5.616      7.536
REMARK  Name = 
REMARK  8 active torsions:
REMARK  status: ('A' for Active; 'I' for Inactive)
REMARK    1  A    between atoms: C_1  and  O_2
REMARK    2  A    between atoms: O_2  and  C_3
REMARK    3  A    between atoms: C_6  and  C_7
REMARK    4  A    between atoms: C_8  and  C_9
REMARK    5  A    between atoms: C_9  and  C_15
REMARK    6  A    between atoms: N_10  and  N_11
REMARK    7  A    between atoms: C_22  and  O_23
REMARK    8  A    between atoms: O_23  and  C_24
REMARK                            x       y       z     vdW  Elec       q    Type
REMARK                         _______ _______ _______ _____ _____    ______ ____
ROOT
ATOM      1  C   UNL     1       3.493   6.293  17.889  0.00  0.00    +0.000 C 
ATOM      2  N   UNL     1       4.669   6.456  17.346  0.00  0.00    +0.000 NA
ENDROOT
BRANCH   2   3
ATOM      3  N   UNL     1       5.483   5.386  17.143  0.00  0.00    +0.000 N 
ATOM      4  C   UNL     1       6.810   5.519  16.862  0.00  0.00    +0.000 C 
ATOM      5  N   UNL     1       7.391   6.645  16.618  0.00  0.00    +0.000 NA
ATOM      6  N   UNL     1       7.535   4.380  16.911  0.00  0.00    +0.000 N 
ATOM      7  H   UNL     1       5.168   4.457  17.399  0.00  0.00    +0.000 HD
ATOM      8  H   UNL     1       6.620   7.327  16.683  0.00  0.00    +0.000 HD
ATOM      9  H   UNL     1       7.125   3.590  16.435  0.00  0.00    +0.000 HD
ATOM     10  H   UNL     1       8.472   4.571  16.563  0.00  0.00    +0.000 HD
ENDBRANCH   2   3
BRANCH   1  11
ATOM     11  C   UNL     1       2.910   5.031  18.463  0.00  0.00    +0.000 A 
ATOM     12  C   UNL     1       1.854   4.383  17.800  0.00  0.00    +0.000 A 
ATOM     13  C   UNL     1       1.265   3.239  18.348  0.00  0.00    +0.000 A 
ATOM     14  C   UNL     1       1.746   2.714  19.544  0.00  0.00    +0.000 A 
ATOM     15  C   UNL     1       2.799   3.341  20.206  0.00  0.00    +0.000 A 
ATOM     16  C   UNL     1       3.363   4.509  19.681  0.00  0.00    +0.000 A 
ENDBRANCH   1  11
BRANCH   1  18
ATOM     17  C   UNL     1       2.143   7.849  19.269  0.00  0.00    +0.000 C 
ATOM     18  C   UNL     1       2.619   7.499  18.066  0.00  0.00    +0.000 C 
BRANCH  17  22
ATOM     19  C   UNL     1      -0.423  11.250  19.889  0.00  0.00    +0.000 A 
ATOM     20  C   UNL     1      -0.156  10.755  18.603  0.00  0.00    +0.000 A 
ATOM     21  C   UNL     1       0.680   9.648  18.414  0.00  0.00    +0.000 A 
ATOM     22  C   UNL     1       1.295   9.028  19.501  0.00  0.00    +0.000 A 
ATOM     23  C   UNL     1       1.041   9.537  20.780  0.00  0.00    +0.000 A 
ATOM     24  C   UNL     1       0.203  10.647  20.990  0.00  0.00    +0.000 A 
BRANCH  19  26
ATOM     25  C   UNL     1      -2.535  12.251  19.473  0.00  0.00    +0.000 C 
ATOM     26  O   UNL     1      -1.254  12.320  20.093  0.00  0.00    +0.000 OA
ENDBRANCH  19  26
BRANCH  24  27
ATOM     27  O   UNL     1       0.110  10.970  22.319  0.00  0.00    +0.000 OA
ATOM     28  C   UNL     1      -0.929  10.402  23.099  0.00  0.00    +0.000 C 
ENDBRANCH  24  27
ENDBRANCH  17  22
ENDBRANCH   1  18
TORSDOF 6
ENDMDL
MODEL 4
REMARK VINA RESULT:      -7.8      6.055      7.511
REMARK  Name = 
REMARK  8 active torsions:
REMARK  status: ('A' for Active; 'I' for Inactive)
REMARK    1  A    between atoms: C_1  and  O_2
REMARK    2  A    between atoms: O_2  and  C_3
REMARK    3  A    between atoms: C_6  and  C_7
REMARK    4  A    between atoms: C_8  and  C_9
REMARK    5  A    between atoms: C_9  and  C_15
REMARK    6  A    between atoms: N_10  and  N_11
REMARK    7  A    between atoms: C_22  and  O_23
REMARK    8  A    between atoms: O_23  and  C_24
REMARK                            x       y       z     vdW  Elec       q    Type
REMARK                         _______ _______ _______ _____ _____    ______ ____
ROOT
ATOM      1  C   UNL     1       3.613   4.922  18.748  0.00  0.00    +0.000 C 
ATOM      2  N   UNL     1       3.009   3.946  19.371  0.00  0.00    +0.000 NA
ENDROOT
BRANCH   2   3
ATOM      3  N   UNL     1       3.573   2.710  19.414  0.00  0.00    +0.000 N 
ATOM      4  C   UNL     1       3.272   1.736  18.510  0.00  0.00    +0.000 C 
ATOM      5  N   UNL     1       2.335   1.830  17.628  0.00  0.00    +0.000 NA
ATOM      6  N   UNL     1       4.068   0.645  18.537  0.00  0.00    +0.000 N 
ATOM      7  H   UNL     1       4.386   2.546  19.997  0.00  0.00    +0.000 HD
ATOM      8  H   UNL     1       1.928   2.759  17.814  0.00  0.00    +0.000 HD
ATOM      9  H   UNL     1       4.245   0.266  19.456  0.00  0.00    +0.000 HD
ATOM     10  H   UNL     1       3.679  -0.063  17.918  0.00  0.00    +0.000 HD
ENDBRANCH   2   3
BRANCH   1  11
ATOM     11  C   UNL     1       4.868   4.851  17.922  0.00  0.00    +0.000 A 
ATOM     12  C   UNL     1       4.787   4.566  16.549  0.00  0.00    +0.000 A 
ATOM     13  C   UNL     1       5.947   4.442  15.778  0.00  0.00    +0.000 A 
ATOM     14  C   UNL     1       7.196   4.636  16.363  0.00  0.00    +0.000 A 
ATOM     15  C   UNL     1       7.289   4.930  17.722  0.00  0.00    +0.000 A 
ATOM     16  C   UNL     1       6.132   5.013  18.504  0.00  0.00    +0.000 A 
ENDBRANCH   1  11
BRANCH   1  18
ATOM     17  C   UNL     1       2.460   6.805  19.876  0.00  0.00    +0.000 C 
ATOM     18  C   UNL     1       2.967   6.275  18.753  0.00  0.00    +0.000 C 
BRANCH  17  22
ATOM     19  C   UNL     1       0.533  10.654  19.990  0.00  0.00    +0.000 A 
ATOM     20  C   UNL     1       0.950  10.075  18.781  0.00  0.00    +0.000 A 
ATOM     21  C   UNL     1       1.575   8.823  18.755  0.00  0.00    +0.000 A 
ATOM     22  C   UNL     1       1.829   8.132  19.940  0.00  0.00    +0.000 A 
ATOM     23  C   UNL     1       1.428   8.721  21.145  0.00  0.00    +0.000 A 
ATOM     24  C   UNL     1       0.798   9.977  21.190  0.00  0.00    +0.000 A 
BRANCH  19  26
ATOM     25  C   UNL     1       0.740  13.009  20.201  0.00  0.00    +0.000 C 
ATOM     26  O   UNL     1      -0.097  11.869  20.029  0.00  0.00    +0.000 OA
ENDBRANCH  19  26
BRANCH  24  27
ATOM     27  O   UNL     1       0.507  10.355  22.475  0.00  0.00    +0.000 OA
ATOM     28  C   UNL     1      -0.726   9.957  23.052  0.00  0.00    +0.000 C 
ENDBRANCH  24  27
ENDBRANCH  17  22
ENDBRANCH   1  18
TORSDOF 6
ENDMDL
MODEL 5
REMARK VINA RESULT:      -7.8      5.557      7.067
REMARK  Name = 
REMARK  8 active torsions:
REMARK  status: ('A' for Active; 'I' for Inactive)
REMARK    1  A    between atoms: C_1  and  O_2
REMARK    2  A    between atoms: O_2  and  C_3
REMARK    3  A    between atoms: C_6  and  C_7
REMARK    4  A    between atoms: C_8  and  C_9
REMARK    5  A    between atoms: C_9  and  C_15
REMARK    6  A    between atoms: N_10  and  N_11
REMARK    7  A    between atoms: C_22  and  O_23
REMARK    8  A    between atoms: O_23  and  C_24
REMARK                            x       y       z     vdW  Elec       q    Type
REMARK                         _______ _______ _______ _____ _____    ______ ____
ROOT
ATOM      1  C   UNL     1       3.790   5.882  17.850  0.00  0.00    +0.000 C 
ATOM      2  N   UNL     1       4.634   6.427  17.016  0.00  0.00    +0.000 NA
ENDROOT
BRANCH   2   3
ATOM      3  N   UNL     1       5.375   5.647  16.185  0.00  0.00    +0.000 N 
ATOM      4  C   UNL     1       6.734   5.727  16.124  0.00  0.00    +0.000 C 
ATOM      5  N   UNL     1       7.435   6.628  16.724  0.00  0.00    +0.000 NA
ATOM      6  N   UNL     1       7.348   4.744  15.429  0.00  0.00    +0.000 N 
ATOM      7  H   UNL     1       4.951   4.842  15.738  0.00  0.00    +0.000 HD
ATOM      8  H   UNL     1       6.723   7.207  17.195  0.00  0.00    +0.000 HD
ATOM      9  H   UNL     1       6.940   4.538  14.529  0.00  0.00    +0.000 HD
ATOM     10  H   UNL     1       8.336   4.970  15.341  0.00  0.00    +0.000 HD
ENDBRANCH   2   3
BRANCH   1  11
ATOM     11  C   UNL     1       3.580   4.418  18.124  0.00  0.00    +0.000 A 
ATOM     12  C   UNL     1       4.343   3.775  19.113  0.00  0.00    +0.000 A 
ATOM     13  C   UNL     1       4.199   2.403  19.342  0.00  0.00    +0.000 A 
ATOM     14  C   UNL     1       3.270   1.668  18.610  0.00  0.00    +0.000 A 
ATOM     15  C   UNL     1       2.501   2.297  17.634  0.00  0.00    +0.000 A 
ATOM     16  C   UNL     1       2.672   3.660  17.374  0.00  0.00    +0.000 A 
ENDBRANCH   1  11
BRANCH   1  18
ATOM     17  C   UNL     1       2.349   7.864  18.231  0.00  0.00    +0.000 C 
ATOM     18  C   UNL     1       2.973   6.785  18.726  0.00  0.00    +0.000 C 
BRANCH  17  22
ATOM     19  C   UNL     1       0.024  10.537  20.677  0.00  0.00    +0.000 A 
ATOM     20  C   UNL     1       0.589   9.364  21.202  0.00  0.00    +0.000 A 
ATOM     21  C   UNL     1       1.344   8.502  20.397  0.00  0.00    +0.000 A 
ATOM     22  C   UNL     1       1.525   8.774  19.041  0.00  0.00    +0.000 A 
ATOM     23  C   UNL     1       0.944   9.935  18.518  0.00  0.00    +0.000 A 
ATOM     24  C   UNL     1       0.184  10.813  19.311  0.00  0.00    +0.000 A 
BRANCH  19  26
ATOM     25  C   UNL     1      -0.956  10.981  22.794  0.00  0.00    +0.000 C 
ATOM     26  O   UNL     1      -0.701  11.400  21.456  0.00  0.00    +0.000 OA
ENDBRANCH  19  26
BRANCH  24  27
ATOM     27  O   UNL     1      -0.292  11.873  18.585  0.00  0.00    +0.000 OA
ATOM     28  C   UNL     1      -1.592  11.799  18.021  0.00  0.00    +0.000 C 
ENDBRANCH  24  27
ENDBRANCH  17  22
ENDBRANCH   1  18
TORSDOF 6
ENDMDL
MODEL 6
REMARK VINA RESULT:      -7.7      5.463      7.100
REMARK  Name = 
REMARK  8 active torsions:
REMARK  status: ('A' for Active; 'I' for Inactive)
REMARK    1  A    between atoms: C_1  and  O_2
REMARK    2  A    between atoms: O_2  and  C_3
REMARK    3  A    between atoms: C_6  and  C_7
REMARK    4  A    between atoms: C_8  and  C_9
REMARK    5  A    between atoms: C_9  and  C_15
REMARK    6  A    between atoms: N_10  and  N_11
REMARK    7  A    between atoms: C_22  and  O_23
REMARK    8  A    between atoms: O_23  and  C_24
REMARK                            x       y       z     vdW  Elec       q    Type
REMARK                         _______ _______ _______ _____ _____    ______ ____
ROOT
ATOM      1  C   UNL     1       3.665   6.094  17.932  0.00  0.00    +0.000 C 
ATOM      2  N   UNL     1       4.767   6.412  17.307  0.00  0.00    +0.000 NA
ENDROOT
BRANCH   2   3
ATOM      3  N   UNL     1       5.602   5.438  16.854  0.00  0.00    +0.000 N 
ATOM      4  C   UNL     1       6.928   5.658  16.628  0.00  0.00    +0.000 C 
ATOM      5  N   UNL     1       7.489   6.818  16.675  0.00  0.00    +0.000 NA
ATOM      6  N   UNL     1       7.673   4.554  16.402  0.00  0.00    +0.000 N 
ATOM      7  H   UNL     1       5.302   4.470  16.870  0.00  0.00    +0.000 HD
ATOM      8  H   UNL     1       6.706   7.451  16.898  0.00  0.00    +0.000 HD
ATOM      9  H   UNL     1       7.280   3.899  15.742  0.00  0.00    +0.000 HD
ATOM     10  H   UNL     1       8.609   4.840  16.121  0.00  0.00    +0.000 HD
ENDBRANCH   2   3
BRANCH   1  11
ATOM     11  C   UNL     1       3.206   4.726  18.352  0.00  0.00    +0.000 A 
ATOM     12  C   UNL     1       2.071   4.153  17.752  0.00  0.00    +0.000 A 
ATOM     13  C   UNL     1       1.599   2.905  18.169  0.00  0.00    +0.000 A 
ATOM     14  C   UNL     1       2.274   2.202  19.163  0.00  0.00    +0.000 A 
ATOM     15  C   UNL     1       3.406   2.754  19.759  0.00  0.00    +0.000 A 
ATOM     16  C   UNL     1       3.856   4.021  19.373  0.00  0.00    +0.000 A 
ENDBRANCH   1  11
BRANCH   1  18
ATOM     17  C   UNL     1       2.343   7.288  19.657  0.00  0.00    +0.000 C 
ATOM     18  C   UNL     1       2.763   7.202  18.386  0.00  0.00    +0.000 C 
BRANCH  17  22
ATOM     19  C   UNL     1      -0.139  10.445  21.210  0.00  0.00    +0.000 A 
ATOM     20  C   UNL     1       0.249   9.355  22.005  0.00  0.00    +0.000 A 
ATOM     21  C   UNL     1       1.057   8.335  21.490  0.00  0.00    +0.000 A 
ATOM     22  C   UNL     1       1.470   8.360  20.158  0.00  0.00    +0.000 A 
ATOM     23  C   UNL     1       1.066   9.439  19.363  0.00  0.00    +0.000 A 
ATOM     24  C   UNL     1       0.255  10.474  19.864  0.00  0.00    +0.000 A 
BRANCH  19  26
ATOM     25  C   UNL     1      -1.402  11.292  23.033  0.00  0.00    +0.000 C 
ATOM     26  O   UNL     1      -0.913  11.460  21.705  0.00  0.00    +0.000 OA
ENDBRANCH  19  26
BRANCH  24  27
ATOM     27  O   UNL     1      -0.021  11.414  18.905  0.00  0.00    +0.000 OA
ATOM     28  C   UNL     1       0.846  12.527  18.757  0.00  0.00    +0.000 C 
ENDBRANCH  24  27
ENDBRANCH  17  22
ENDBRANCH   1  18
TORSDOF 6
ENDMDL
MODEL 7
REMARK VINA RESULT:      -7.7      5.394      7.623
REMARK  Name = 
REMARK  8 active torsions:
REMARK  status: ('A' for Active; 'I' for Inactive)
REMARK    1  A    between atoms: C_1  and  O_2
REMARK    2  A    between atoms: O_2  and  C_3
REMARK    3  A    between atoms: C_6  and  C_7
REMARK    4  A    between atoms: C_8  and  C_9
REMARK    5  A    between atoms: C_9  and  C_15
REMARK    6  A    between atoms: N_10  and  N_11
REMARK    7  A    between atoms: C_22  and  O_23
REMARK    8  A    between atoms: O_23  and  C_24
REMARK                            x       y       z     vdW  Elec       q    Type
REMARK                         _______ _______ _______ _____ _____    ______ ____
ROOT
ATOM      1  C   UNL     1       3.367   5.440  18.015  0.00  0.00    +0.000 C 
ATOM      2  N   UNL     1       2.729   4.330  17.754  0.00  0.00    +0.000 NA
ENDROOT
BRANCH   2   3
ATOM      3  N   UNL     1       3.412   3.160  17.634  0.00  0.00    +0.000 N 
ATOM      4  C   UNL     1       3.382   2.193  18.593  0.00  0.00    +0.000 C 
ATOM      5  N   UNL     1       2.838   2.339  19.754  0.00  0.00    +0.000 NA
ATOM      6  N   UNL     1       3.916   1.003  18.242  0.00  0.00    +0.000 N 
ATOM      7  H   UNL     1       3.795   2.891  16.735  0.00  0.00    +0.000 HD
ATOM      8  H   UNL     1       2.488   3.309  19.730  0.00  0.00    +0.000 HD
ATOM      9  H   UNL     1       4.814   1.055  17.785  0.00  0.00    +0.000 HD
ATOM     10  H   UNL     1       3.957   0.404  19.064  0.00  0.00    +0.000 HD
ENDBRANCH   2   3
BRANCH   1  11
ATOM     11  C   UNL     1       4.854   5.650  18.100  0.00  0.00    +0.000 A 
ATOM     12  C   UNL     1       5.554   5.243  19.248  0.00  0.00    +0.000 A 
ATOM     13  C   UNL     1       6.927   5.480  19.365  0.00  0.00    +0.000 A 
ATOM     14  C   UNL     1       7.619   6.094  18.324  0.00  0.00    +0.000 A 
ATOM     15  C   UNL     1       6.938   6.491  17.176  0.00  0.00    +0.000 A 
ATOM     16  C   UNL     1       5.557   6.293  17.074  0.00  0.00    +0.000 A 
ENDBRANCH   1  11
BRANCH   1  18
ATOM     17  C   UNL     1       2.394   7.278  19.365  0.00  0.00    +0.000 C 
ATOM     18  C   UNL     1       2.567   6.699  18.168  0.00  0.00    +0.000 C 
BRANCH  17  22
ATOM     19  C   UNL     1       0.081  10.870  19.898  0.00  0.00    +0.000 A 
ATOM     20  C   UNL     1       0.399  10.382  18.621  0.00  0.00    +0.000 A 
ATOM     21  C   UNL     1       1.151   9.213  18.459  0.00  0.00    +0.000 A 
ATOM     22  C   UNL     1       1.633   8.519  19.569  0.00  0.00    +0.000 A 
ATOM     23  C   UNL     1       1.329   9.019  20.841  0.00  0.00    +0.000 A 
ATOM     24  C   UNL     1       0.573  10.191  21.023  0.00  0.00    +0.000 A 
BRANCH  19  26
ATOM     25  C   UNL     1      -1.550  12.345  19.006  0.00  0.00    +0.000 C 
ATOM     26  O   UNL     1      -0.671  12.001  20.072  0.00  0.00    +0.000 OA
ENDBRANCH  19  26
BRANCH  24  27
ATOM     27  O   UNL     1       0.411  10.492  22.350  0.00  0.00    +0.000 OA
ATOM     28  C   UNL     1      -0.451   9.690  23.142  0.00  0.00    +0.000 C 
ENDBRANCH  24  27
ENDBRANCH  17  22
ENDBRANCH   1  18
TORSDOF 6
ENDMDL
MODEL 8
REMARK VINA RESULT:      -7.7      5.423      7.700
REMARK  Name = 
REMARK  8 active torsions:
REMARK  status: ('A' for Active; 'I' for Inactive)
REMARK    1  A    between atoms: C_1  and  O_2
REMARK    2  A    between atoms: O_2  and  C_3
REMARK    3  A    between atoms: C_6  and  C_7
REMARK    4  A    between atoms: C_8  and  C_9
REMARK    5  A    between atoms: C_9  and  C_15
REMARK    6  A    between atoms: N_10  and  N_11
REMARK    7  A    between atoms: C_22  and  O_23
REMARK    8  A    between atoms: O_23  and  C_24
REMARK                            x       y       z     vdW  Elec       q    Type
REMARK                         _______ _______ _______ _____ _____    ______ ____
ROOT
ATOM      1  C   UNL     1       3.423   5.326  18.240  0.00  0.00    +0.000 C 
ATOM      2  N   UNL     1       2.905   4.132  18.143  0.00  0.00    +0.000 NA
ENDROOT
BRANCH   2   3
ATOM      3  N   UNL     1       3.708   3.034  18.161  0.00  0.00    +0.000 N 
ATOM      4  C   UNL     1       3.226   1.778  18.381  0.00  0.00    +0.000 C 
ATOM      5  N   UNL     1       2.013   1.518  18.734  0.00  0.00    +0.000 NA
ATOM      6  N   UNL     1       4.093   0.769  18.146  0.00  0.00    +0.000 N 
ATOM      7  H   UNL     1       4.655   3.097  17.806  0.00  0.00    +0.000 HD
ATOM      8  H   UNL     1       1.581   2.452  18.801  0.00  0.00    +0.000 HD
ATOM      9  H   UNL     1       5.014   0.896  18.539  0.00  0.00    +0.000 HD
ATOM     10  H   UNL     1       3.677  -0.104  18.462  0.00  0.00    +0.000 HD
ENDBRANCH   2   3
BRANCH   1  11
ATOM     11  C   UNL     1       4.880   5.700  18.260  0.00  0.00    +0.000 A 
ATOM     12  C   UNL     1       5.423   6.456  17.207  0.00  0.00    +0.000 A 
ATOM     13  C   UNL     1       6.786   6.766  17.184  0.00  0.00    +0.000 A 
ATOM     14  C   UNL     1       7.612   6.353  18.226  0.00  0.00    +0.000 A 
ATOM     15  C   UNL     1       7.083   5.612  19.280  0.00  0.00    +0.000 A 
ATOM     16  C   UNL     1       5.729   5.266  19.286  0.00  0.00    +0.000 A 
ENDBRANCH   1  11
BRANCH   1  18
ATOM     17  C   UNL     1       2.453   7.358  19.278  0.00  0.00    +0.000 C 
ATOM     18  C   UNL     1       2.495   6.504  18.245  0.00  0.00    +0.000 C 
BRANCH  17  22
ATOM     19  C   UNL     1      -0.188  10.758  19.345  0.00  0.00    +0.000 A 
ATOM     20  C   UNL     1       0.422  10.323  18.158  0.00  0.00    +0.000 A 
ATOM     21  C   UNL     1       1.278   9.216  18.148  0.00  0.00    +0.000 A 
ATOM     22  C   UNL     1       1.573   8.536  19.329  0.00  0.00    +0.000 A 
ATOM     23  C   UNL     1       0.978   8.984  20.514  0.00  0.00    +0.000 A 
ATOM     24  C   UNL     1       0.114  10.094  20.544  0.00  0.00    +0.000 A 
BRANCH  19  26
ATOM     25  C   UNL     1      -0.444  13.113  19.508  0.00  0.00    +0.000 C 
ATOM     26  O   UNL     1      -1.043  11.828  19.368  0.00  0.00    +0.000 OA
ENDBRANCH  19  26
BRANCH  24  27
ATOM     27  O   UNL     1      -0.339  10.353  21.810  0.00  0.00    +0.000 OA
ATOM     28  C   UNL     1      -0.208   9.356  22.811  0.00  0.00    +0.000 C 
ENDBRANCH  24  27
ENDBRANCH  17  22
ENDBRANCH   1  18
TORSDOF 6
ENDMDL
MODEL 9
REMARK VINA RESULT:      -7.7      5.374      7.006
REMARK  Name = 
REMARK  8 active torsions:
REMARK  status: ('A' for Active; 'I' for Inactive)
REMARK    1  A    between atoms: C_1  and  O_2
REMARK    2  A    between atoms: O_2  and  C_3
REMARK    3  A    between atoms: C_6  and  C_7
REMARK    4  A    between atoms: C_8  and  C_9
REMARK    5  A    between atoms: C_9  and  C_15
REMARK    6  A    between atoms: N_10  and  N_11
REMARK    7  A    between atoms: C_22  and  O_23
REMARK    8  A    between atoms: O_23  and  C_24
REMARK                            x       y       z     vdW  Elec       q    Type
REMARK                         _______ _______ _______ _____ _____    ______ ____
ROOT
ATOM      1  C   UNL     1       3.692   6.030  17.980  0.00  0.00    +0.000 C 
ATOM      2  N   UNL     1       4.819   6.337  17.396  0.00  0.00    +0.000 NA
ENDROOT
BRANCH   2   3
ATOM      3  N   UNL     1       5.659   5.355  16.972  0.00  0.00    +0.000 N 
ATOM      4  C   UNL     1       6.965   5.592  16.662  0.00  0.00    +0.000 C 
ATOM      5  N   UNL     1       7.493   6.767  16.596  0.00  0.00    +0.000 NA
ATOM      6  N   UNL     1       7.731   4.495  16.477  0.00  0.00    +0.000 N 
ATOM      7  H   UNL     1       5.390   4.383  17.073  0.00  0.00    +0.000 HD
ATOM      8  H   UNL     1       6.703   7.393  16.814  0.00  0.00    +0.000 HD
ATOM      9  H   UNL     1       7.325   3.783  15.887  0.00  0.00    +0.000 HD
ATOM     10  H   UNL     1       8.642   4.784  16.128  0.00  0.00    +0.000 HD
ENDBRANCH   2   3
BRANCH   1  11
ATOM     11  C   UNL     1       3.202   4.665  18.379  0.00  0.00    +0.000 A 
ATOM     12  C   UNL     1       3.861   3.956  19.397  0.00  0.00    +0.000 A 
ATOM     13  C   UNL     1       3.452   2.664  19.743  0.00  0.00    +0.000 A 
ATOM     14  C   UNL     1       2.363   2.083  19.100  0.00  0.00    +0.000 A 
ATOM     15  C   UNL     1       1.695   2.781  18.096  0.00  0.00    +0.000 A 
ATOM     16  C   UNL     1       2.127   4.056  17.720  0.00  0.00    +0.000 A 
ENDBRANCH   1  11
BRANCH   1  18
ATOM     17  C   UNL     1       2.315   7.230  19.657  0.00  0.00    +0.000 C 
ATOM     18  C   UNL     1       2.785   7.147  18.404  0.00  0.00    +0.000 C 
BRANCH  17  22
ATOM     19  C   UNL     1      -0.199  10.397  21.136  0.00  0.00    +0.000 A 
ATOM     20  C   UNL     1      -0.009   9.209  21.860  0.00  0.00    +0.000 A 
ATOM     21  C   UNL     1       0.811   8.186  21.370  0.00  0.00    +0.000 A 
ATOM     22  C   UNL     1       1.436   8.311  20.129  0.00  0.00    +0.000 A 
ATOM     23  C   UNL     1       1.229   9.489  19.402  0.00  0.00    +0.000 A 
ATOM     24  C   UNL     1       0.410  10.528  19.879  0.00  0.00    +0.000 A 
BRANCH  19  26
ATOM     25  C   UNL     1      -1.355  11.336  22.985  0.00  0.00    +0.000 C 
ATOM     26  O   UNL     1      -0.983  11.415  21.612  0.00  0.00    +0.000 OA
ENDBRANCH  19  26
BRANCH  24  27
ATOM     27  O   UNL     1       0.349  11.574  18.997  0.00  0.00    +0.000 OA
ATOM     28  C   UNL     1       1.539  12.268  18.660  0.00  0.00    +0.000 C 
ENDBRANCH  24  27
ENDBRANCH  17  22
ENDBRANCH   1  18
TORSDOF 6
ENDMDL
