MODEL 1
REMARK VINA RESULT:      -6.8      0.000      0.000
REMARK  Name = 
REMARK  7 active torsions:
REMARK  status: ('A' for Active; 'I' for Inactive)
REMARK    1  A    between atoms: C_1  and  O_2
REMARK    2  A    between atoms: O_2  and  C_3
REMARK    3  A    between atoms: C_7  and  N_8
REMARK    4  A    between atoms: N_8  and  C_9
REMARK    5  A    between atoms: C_15  and  C_16
REMARK    6  A    between atoms: C_17  and  S_18
REMARK    7  A    between atoms: S_18  and  N_21
REMARK                            x       y       z     vdW  Elec       q    Type
REMARK                         _______ _______ _______ _____ _____    ______ ____
ROOT
ATOM      1  C   UNL     1      -3.325  12.674  20.216  0.00  0.00    +0.000 A 
ATOM      2  N   UNL     1      -1.976  12.794  20.321  0.00  0.00    +0.000 NA
ATOM      3  C   UNL     1      -1.410  12.977  21.514  0.00  0.00    +0.000 A 
ATOM      4  N   UNL     1      -2.034  13.089  22.679  0.00  0.00    +0.000 NA
ATOM      5  C   UNL     1      -3.367  13.000  22.563  0.00  0.00    +0.000 A 
ATOM      6  S   UNL     1      -4.330  13.149  23.950  0.00  0.00    +0.000 S 
ATOM      7  C   UNL     1      -5.785  12.957  23.065  0.00  0.00    +0.000 A 
ATOM      8  C   UNL     1      -7.068  13.000  23.827  0.00  0.00    +0.000 C 
ATOM      9  C   UNL     1      -5.517  12.793  21.714  0.00  0.00    +0.000 A 
ATOM     10  C   UNL     1      -4.096  12.791  21.401  0.00  0.00    +0.000 A 
ENDROOT
BRANCH   9  11
ATOM     11  S   UNL     1      -6.695  12.604  20.457  0.00  0.00    +0.000 S 
ATOM     12  O   UNL     1      -6.474  11.246  20.007  0.00  0.00    +0.000 OA
ATOM     13  O   UNL     1      -7.916  12.992  21.132  0.00  0.00    +0.000 OA
BRANCH  11  14
ATOM     14  N   UNL     1      -6.419  13.672  19.119  0.00  0.00    +0.000 NA
ATOM     15  C   UNL     1      -7.141  13.224  17.884  0.00  0.00    +0.000 C 
ATOM     16  C   UNL     1      -7.069  14.227  16.742  0.00  0.00    +0.000 C 
ATOM     17  C   UNL     1      -7.509  15.606  17.201  0.00  0.00    +0.000 C 
ATOM     18  C   UNL     1      -6.588  16.063  18.317  0.00  0.00    +0.000 C 
ATOM     19  C   UNL     1      -6.628  15.104  19.499  0.00  0.00    +0.000 C 
ENDBRANCH  11  14
ENDBRANCH   9  11
BRANCH   1  20
ATOM     20  N   UNL     1      -3.851  12.429  18.939  0.00  0.00    +0.000 N 
ATOM     21  H   UNL     1      -4.775  12.816  18.769  0.00  0.00    +0.000 HD
BRANCH  20  26
ATOM     22  C   UNL     1      -3.525  10.490  15.757  0.00  0.00    +0.000 A 
ATOM     23  C   UNL     1      -2.371   9.756  16.022  0.00  0.00    +0.000 A 
ATOM     24  C   UNL     1      -1.718   9.890  17.248  0.00  0.00    +0.000 A 
ATOM     25  C   UNL     1      -2.220  10.760  18.224  0.00  0.00    +0.000 A 
ATOM     26  C   UNL     1      -3.373  11.512  17.979  0.00  0.00    +0.000 A 
ATOM     27  C   UNL     1      -4.009  11.366  16.733  0.00  0.00    +0.000 A 
BRANCH  22  29
ATOM     28  C   UNL     1      -3.213   9.815  13.502  0.00  0.00    +0.000 C 
ATOM     29  O   UNL     1      -4.089  10.269  14.530  0.00  0.00    +0.000 OA
ENDBRANCH  22  29
ENDBRANCH  20  26
ENDBRANCH   1  20
TORSDOF 5
ENDMDL
MODEL 2
REMARK VINA RESULT:      -6.8      2.346      4.162
REMARK  Name = 
REMARK  7 active torsions:
REMARK  status: ('A' for Active; 'I' for Inactive)
REMARK    1  A    between atoms: C_1  and  O_2
REMARK    2  A    between atoms: O_2  and  C_3
REMARK    3  A    between atoms: C_7  and  N_8
REMARK    4  A    between atoms: N_8  and  C_9
REMARK    5  A    between atoms: C_15  and  C_16
REMARK    6  A    between atoms: C_17  and  S_18
REMARK    7  A    between atoms: S_18  and  N_21
REMARK                            x       y       z     vdW  Elec       q    Type
REMARK                         _______ _______ _______ _____ _____    ______ ____
ROOT
ATOM      1  C   UNL     1      -5.770  12.061  19.993  0.00  0.00    +0.000 A 
ATOM      2  N   UNL     1      -6.397  10.910  19.640  0.00  0.00    +0.000 NA
ATOM      3  C   UNL     1      -7.418  10.453  20.363  0.00  0.00    +0.000 A 
ATOM      4  N   UNL     1      -7.914  10.997  21.467  0.00  0.00    +0.000 NA
ATOM      5  C   UNL     1      -7.270  12.116  21.827  0.00  0.00    +0.000 A 
ATOM      6  S   UNL     1      -7.751  12.932  23.233  0.00  0.00    +0.000 S 
ATOM      7  C   UNL     1      -6.551  14.142  23.045  0.00  0.00    +0.000 A 
ATOM      8  C   UNL     1      -6.492  15.223  24.072  0.00  0.00    +0.000 C 
ATOM      9  C   UNL     1      -5.787  13.900  21.912  0.00  0.00    +0.000 A 
ATOM     10  C   UNL     1      -6.210  12.724  21.168  0.00  0.00    +0.000 A 
ENDROOT
BRANCH   9  11
ATOM     11  S   UNL     1      -4.444  14.851  21.367  0.00  0.00    +0.000 S 
ATOM     12  O   UNL     1      -4.913  15.378  20.103  0.00  0.00    +0.000 OA
ATOM     13  O   UNL     1      -4.204  15.709  22.508  0.00  0.00    +0.000 OA
BRANCH  11  14
ATOM     14  N   UNL     1      -3.030  13.894  21.066  0.00  0.00    +0.000 NA
ATOM     15  C   UNL     1      -1.870  14.732  20.617  0.00  0.00    +0.000 C 
ATOM     16  C   UNL     1      -0.565  13.955  20.514  0.00  0.00    +0.000 C 
ATOM     17  C   UNL     1      -0.273  13.210  21.804  0.00  0.00    +0.000 C 
ATOM     18  C   UNL     1      -1.407  12.236  22.069  0.00  0.00    +0.000 C 
ATOM     19  C   UNL     1      -2.742  12.957  22.196  0.00  0.00    +0.000 C 
ENDBRANCH  11  14
ENDBRANCH   9  11
BRANCH   1  20
ATOM     20  N   UNL     1      -4.739  12.516  19.157  0.00  0.00    +0.000 N 
ATOM     21  H   UNL     1      -4.682  13.523  19.047  0.00  0.00    +0.000 HD
BRANCH  20  26
ATOM     22  C   UNL     1      -3.642  10.699  16.077  0.00  0.00    +0.000 A 
ATOM     23  C   UNL     1      -2.366  10.293  16.459  0.00  0.00    +0.000 A 
ATOM     24  C   UNL     1      -1.881  10.603  17.731  0.00  0.00    +0.000 A 
ATOM     25  C   UNL     1      -2.675  11.322  18.633  0.00  0.00    +0.000 A 
ATOM     26  C   UNL     1      -3.957  11.746  18.270  0.00  0.00    +0.000 A 
ATOM     27  C   UNL     1      -4.420  11.428  16.981  0.00  0.00    +0.000 A 
BRANCH  22  29
ATOM     28  C   UNL     1      -2.976   9.913  13.937  0.00  0.00    +0.000 C 
ATOM     29  O   UNL     1      -4.020  10.328  14.814  0.00  0.00    +0.000 OA
ENDBRANCH  22  29
ENDBRANCH  20  26
ENDBRANCH   1  20
TORSDOF 5
ENDMDL
MODEL 3
REMARK VINA RESULT:      -6.6      3.947      6.325
REMARK  Name = 
REMARK  7 active torsions:
REMARK  status: ('A' for Active; 'I' for Inactive)
REMARK    1  A    between atoms: C_1  and  O_2
REMARK    2  A    between atoms: O_2  and  C_3
REMARK    3  A    between atoms: C_7  and  N_8
REMARK    4  A    between atoms: N_8  and  C_9
REMARK    5  A    between atoms: C_15  and  C_16
REMARK    6  A    between atoms: C_17  and  S_18
REMARK    7  A    between atoms: S_18  and  N_21
REMARK                            x       y       z     vdW  Elec       q    Type
REMARK                         _______ _______ _______ _____ _____    ______ ____
ROOT
ATOM      1  C   UNL     1      -1.405  10.750  18.121  0.00  0.00    +0.000 A 
ATOM      2  N   UNL     1      -1.702   9.987  17.038  0.00  0.00    +0.000 NA
ATOM      3  C   UNL     1      -2.944   9.962  16.556  0.00  0.00    +0.000 A 
ATOM      4  N   UNL     1      -3.997  10.606  17.043  0.00  0.00    +0.000 NA
ATOM      5  C   UNL     1      -3.702  11.333  18.130  0.00  0.00    +0.000 A 
ATOM      6  S   UNL     1      -4.935  12.202  18.904  0.00  0.00    +0.000 S 
ATOM      7  C   UNL     1      -3.872  12.806  20.105  0.00  0.00    +0.000 A 
ATOM      8  C   UNL     1      -4.447  13.709  21.146  0.00  0.00    +0.000 C 
ATOM      9  C   UNL     1      -2.586  12.325  19.906  0.00  0.00    +0.000 A 
ATOM     10  C   UNL     1      -2.461  11.474  18.733  0.00  0.00    +0.000 A 
ENDROOT
BRANCH   9  11
ATOM     11  S   UNL     1      -1.209  12.654  20.908  0.00  0.00    +0.000 S 
ATOM     12  O   UNL     1      -1.672  13.735  21.751  0.00  0.00    +0.000 OA
ATOM     13  O   UNL     1      -0.913  11.342  21.446  0.00  0.00    +0.000 OA
BRANCH  11  14
ATOM     14  N   UNL     1       0.155  13.218  19.999  0.00  0.00    +0.000 NA
ATOM     15  C   UNL     1      -0.072  14.588  19.437  0.00  0.00    +0.000 C 
ATOM     16  C   UNL     1       1.165  15.190  18.785  0.00  0.00    +0.000 C 
ATOM     17  C   UNL     1       2.354  15.142  19.729  0.00  0.00    +0.000 C 
ATOM     18  C   UNL     1       2.636  13.693  20.080  0.00  0.00    +0.000 C 
ATOM     19  C   UNL     1       1.436  13.038  20.751  0.00  0.00    +0.000 C 
ENDBRANCH  11  14
ENDBRANCH   9  11
BRANCH   1  20
ATOM     20  N   UNL     1      -0.068  10.774  18.545  0.00  0.00    +0.000 N 
ATOM     21  H   UNL     1       0.406  11.665  18.436  0.00  0.00    +0.000 HD
BRANCH  20  26
ATOM     22  C   UNL     1       2.504   8.077  18.215  0.00  0.00    +0.000 A 
ATOM     23  C   UNL     1       2.453   7.518  19.489  0.00  0.00    +0.000 A 
ATOM     24  C   UNL     1       1.565   8.018  20.443  0.00  0.00    +0.000 A 
ATOM     25  C   UNL     1       0.714   9.083  20.124  0.00  0.00    +0.000 A 
ATOM     26  C   UNL     1       0.750   9.666  18.853  0.00  0.00    +0.000 A 
ATOM     27  C   UNL     1       1.659   9.149  17.912  0.00  0.00    +0.000 A 
BRANCH  22  29
ATOM     28  C   UNL     1       3.860   6.196  17.706  0.00  0.00    +0.000 C 
ATOM     29  O   UNL     1       3.401   7.498  17.358  0.00  0.00    +0.000 OA
ENDBRANCH  22  29
ENDBRANCH  20  26
ENDBRANCH   1  20
TORSDOF 5
ENDMDL
MODEL 4
REMARK VINA RESULT:      -6.6      2.644      4.811
REMARK  Name = 
REMARK  7 active torsions:
REMARK  status: ('A' for Active; 'I' for Inactive)
REMARK    1  A    between atoms: C_1  and  O_2
REMARK    2  A    between atoms: O_2  and  C_3
REMARK    3  A    between atoms: C_7  and  N_8
REMARK    4  A    between atoms: N_8  and  C_9
REMARK    5  A    between atoms: C_15  and  C_16
REMARK    6  A    between atoms: C_17  and  S_18
REMARK    7  A    between atoms: S_18  and  N_21
REMARK                            x       y       z     vdW  Elec       q    Type
REMARK                         _______ _______ _______ _____ _____    ______ ____
ROOT
ATOM      1  C   UNL     1      -4.438  12.387  20.097  0.00  0.00    +0.000 A 
ATOM      2  N   UNL     1      -5.564  11.754  19.677  0.00  0.00    +0.000 NA
ATOM      3  C   UNL     1      -6.622  11.663  20.482  0.00  0.00    +0.000 A 
ATOM      4  N   UNL     1      -6.713  12.114  21.726  0.00  0.00    +0.000 NA
ATOM      5  C   UNL     1      -5.587  12.710  22.145  0.00  0.00    +0.000 A 
ATOM      6  S   UNL     1      -5.512  13.324  23.723  0.00  0.00    +0.000 S 
ATOM      7  C   UNL     1      -3.899  13.867  23.528  0.00  0.00    +0.000 A 
ATOM      8  C   UNL     1      -3.253  14.548  24.688  0.00  0.00    +0.000 C 
ATOM      9  C   UNL     1      -3.431  13.560  22.258  0.00  0.00    +0.000 A 
ATOM     10  C   UNL     1      -4.419  12.900  21.420  0.00  0.00    +0.000 A 
ENDROOT
BRANCH   9  11
ATOM     11  S   UNL     1      -1.841  13.893  21.650  0.00  0.00    +0.000 S 
ATOM     12  O   UNL     1      -2.099  14.791  20.545  0.00  0.00    +0.000 OA
ATOM     13  O   UNL     1      -1.152  14.334  22.845  0.00  0.00    +0.000 OA
BRANCH  11  14
ATOM     14  N   UNL     1      -1.056  12.478  21.029  0.00  0.00    +0.000 NA
ATOM     15  C   UNL     1       0.260  12.800  20.390  0.00  0.00    +0.000 C 
ATOM     16  C   UNL     1       1.061  11.568  19.992  0.00  0.00    +0.000 C 
ATOM     17  C   UNL     1       1.205  10.613  21.164  0.00  0.00    +0.000 C 
ATOM     18  C   UNL     1      -0.179  10.180  21.612  0.00  0.00    +0.000 C 
ATOM     19  C   UNL     1      -1.025  11.372  22.037  0.00  0.00    +0.000 C 
ENDBRANCH  11  14
ENDBRANCH   9  11
BRANCH   1  20
ATOM     20  N   UNL     1      -3.382  12.496  19.181  0.00  0.00    +0.000 N 
ATOM     21  H   UNL     1      -2.953  13.414  19.120  0.00  0.00    +0.000 HD
BRANCH  20  26
ATOM     22  C   UNL     1      -3.189  10.785  15.860  0.00  0.00    +0.000 A 
ATOM     23  C   UNL     1      -2.248   9.796  16.135  0.00  0.00    +0.000 A 
ATOM     24  C   UNL     1      -1.695   9.686  17.413  0.00  0.00    +0.000 A 
ATOM     25  C   UNL     1      -2.086  10.568  18.428  0.00  0.00    +0.000 A 
ATOM     26  C   UNL     1      -3.025  11.573  18.175  0.00  0.00    +0.000 A 
ATOM     27  C   UNL     1      -3.561  11.668  16.878  0.00  0.00    +0.000 A 
BRANCH  22  29
ATOM     28  C   UNL     1      -3.090   9.855  13.678  0.00  0.00    +0.000 C 
ATOM     29  O   UNL     1      -3.673  10.790  14.579  0.00  0.00    +0.000 OA
ENDBRANCH  22  29
ENDBRANCH  20  26
ENDBRANCH   1  20
TORSDOF 5
ENDMDL
MODEL 5
REMARK VINA RESULT:      -6.6      4.591      6.878
REMARK  Name = 
REMARK  7 active torsions:
REMARK  status: ('A' for Active; 'I' for Inactive)
REMARK    1  A    between atoms: C_1  and  O_2
REMARK    2  A    between atoms: O_2  and  C_3
REMARK    3  A    between atoms: C_7  and  N_8
REMARK    4  A    between atoms: N_8  and  C_9
REMARK    5  A    between atoms: C_15  and  C_16
REMARK    6  A    between atoms: C_17  and  S_18
REMARK    7  A    between atoms: S_18  and  N_21
REMARK                            x       y       z     vdW  Elec       q    Type
REMARK                         _______ _______ _______ _____ _____    ______ ____
ROOT
ATOM      1  C   UNL     1      -0.718  11.009  18.827  0.00  0.00    +0.000 A 
ATOM      2  N   UNL     1      -1.375  10.296  17.876  0.00  0.00    +0.000 NA
ATOM      3  C   UNL     1      -2.680  10.483  17.679  0.00  0.00    +0.000 A 
ATOM      4  N   UNL     1      -3.473  11.307  18.351  0.00  0.00    +0.000 NA
ATOM      5  C   UNL     1      -2.823  11.985  19.309  0.00  0.00    +0.000 A 
ATOM      6  S   UNL     1      -3.687  13.066  20.288  0.00  0.00    +0.000 S 
ATOM      7  C   UNL     1      -2.295  13.490  21.195  0.00  0.00    +0.000 A 
ATOM      8  C   UNL     1      -2.462  14.492  22.288  0.00  0.00    +0.000 C 
ATOM      9  C   UNL     1      -1.187  12.789  20.744  0.00  0.00    +0.000 A 
ATOM     10  C   UNL     1      -1.473  11.915  19.617  0.00  0.00    +0.000 A 
ENDROOT
BRANCH   9  11
ATOM     11  S   UNL     1       0.415  12.884  21.401  0.00  0.00    +0.000 S 
ATOM     12  O   UNL     1       0.272  13.855  22.464  0.00  0.00    +0.000 OA
ATOM     13  O   UNL     1       0.708  11.492  21.675  0.00  0.00    +0.000 OA
BRANCH  11  14
ATOM     14  N   UNL     1       1.568  13.494  20.259  0.00  0.00    +0.000 NA
ATOM     15  C   UNL     1       0.964  14.514  19.341  0.00  0.00    +0.000 C 
ATOM     16  C   UNL     1       1.983  15.201  18.443  0.00  0.00    +0.000 C 
ATOM     17  C   UNL     1       3.133  15.766  19.259  0.00  0.00    +0.000 C 
ATOM     18  C   UNL     1       3.812  14.626  19.995  0.00  0.00    +0.000 C 
ATOM     19  C   UNL     1       2.844  13.905  20.923  0.00  0.00    +0.000 C 
ENDBRANCH  11  14
ENDBRANCH   9  11
BRANCH   1  20
ATOM     20  N   UNL     1       0.664  10.804  18.945  0.00  0.00    +0.000 N 
ATOM     21  H   UNL     1       1.236  11.638  18.861  0.00  0.00    +0.000 HD
BRANCH  20  26
ATOM     22  C   UNL     1       1.867   7.395  19.909  0.00  0.00    +0.000 A 
ATOM     23  C   UNL     1       2.640   7.072  18.796  0.00  0.00    +0.000 A 
ATOM     24  C   UNL     1       2.775   7.981  17.745  0.00  0.00    +0.000 A 
ATOM     25  C   UNL     1       2.137   9.226  17.803  0.00  0.00    +0.000 A 
ATOM     26  C   UNL     1       1.351   9.571  18.907  0.00  0.00    +0.000 A 
ATOM     27  C   UNL     1       1.224   8.636  19.949  0.00  0.00    +0.000 A 
BRANCH  22  29
ATOM     28  C   UNL     1       2.029   5.092  20.462  0.00  0.00    +0.000 C 
ATOM     29  O   UNL     1       1.817   6.436  20.884  0.00  0.00    +0.000 OA
ENDBRANCH  22  29
ENDBRANCH  20  26
ENDBRANCH   1  20
TORSDOF 5
ENDMDL
MODEL 6
REMARK VINA RESULT:      -6.6      4.233      5.592
REMARK  Name = 
REMARK  7 active torsions:
REMARK  status: ('A' for Active; 'I' for Inactive)
REMARK    1  A    between atoms: C_1  and  O_2
REMARK    2  A    between atoms: O_2  and  C_3
REMARK    3  A    between atoms: C_7  and  N_8
REMARK    4  A    between atoms: N_8  and  C_9
REMARK    5  A    between atoms: C_15  and  C_16
REMARK    6  A    between atoms: C_17  and  S_18
REMARK    7  A    between atoms: S_18  and  N_21
REMARK                            x       y       z     vdW  Elec       q    Type
REMARK                         _______ _______ _______ _____ _____    ______ ____
ROOT
ATOM      1  C   UNL     1       1.033  12.215  18.652  0.00  0.00    +0.000 A 
ATOM      2  N   UNL     1       2.301  12.363  18.190  0.00  0.00    +0.000 NA
ATOM      3  C   UNL     1       2.920  13.539  18.289  0.00  0.00    +0.000 A 
ATOM      4  N   UNL     1       2.416  14.660  18.789  0.00  0.00    +0.000 NA
ATOM      5  C   UNL     1       1.153  14.514  19.216  0.00  0.00    +0.000 A 
ATOM      6  S   UNL     1       0.337  15.854  19.860  0.00  0.00    +0.000 S 
ATOM      7  C   UNL     1      -1.096  14.956  20.138  0.00  0.00    +0.000 A 
ATOM      8  C   UNL     1      -2.254  15.674  20.747  0.00  0.00    +0.000 C 
ATOM      9  C   UNL     1      -0.937  13.642  19.722  0.00  0.00    +0.000 A 
ATOM     10  C   UNL     1       0.389  13.356  19.198  0.00  0.00    +0.000 A 
ENDROOT
BRANCH   9  11
ATOM     11  S   UNL     1      -2.146  12.401  19.784  0.00  0.00    +0.000 S 
ATOM     12  O   UNL     1      -2.277  12.007  18.397  0.00  0.00    +0.000 OA
ATOM     13  O   UNL     1      -1.602  11.504  20.782  0.00  0.00    +0.000 OA
BRANCH  11  14
ATOM     14  N   UNL     1      -3.682  12.994  20.328  0.00  0.00    +0.000 NA
ATOM     15  C   UNL     1      -4.795  12.605  19.403  0.00  0.00    +0.000 C 
ATOM     16  C   UNL     1      -6.177  12.953  19.936  0.00  0.00    +0.000 C 
ATOM     17  C   UNL     1      -6.373  12.403  21.338  0.00  0.00    +0.000 C 
ATOM     18  C   UNL     1      -5.324  13.014  22.249  0.00  0.00    +0.000 C 
ATOM     19  C   UNL     1      -3.915  12.688  21.774  0.00  0.00    +0.000 C 
ENDBRANCH  11  14
ENDBRANCH   9  11
BRANCH   1  20
ATOM     20  N   UNL     1       0.461  10.938  18.566  0.00  0.00    +0.000 N 
ATOM     21  H   UNL     1      -0.536  10.921  18.375  0.00  0.00    +0.000 HD
BRANCH  20  26
ATOM     22  C   UNL     1       2.423   7.755  18.452  0.00  0.00    +0.000 A 
ATOM     23  C   UNL     1       2.280   7.319  19.767  0.00  0.00    +0.000 A 
ATOM     24  C   UNL     1       1.527   8.063  20.677  0.00  0.00    +0.000 A 
ATOM     25  C   UNL     1       0.907   9.252  20.274  0.00  0.00    +0.000 A 
ATOM     26  C   UNL     1       1.041   9.714  18.961  0.00  0.00    +0.000 A 
ATOM     27  C   UNL     1       1.811   8.951  18.065  0.00  0.00    +0.000 A 
BRANCH  22  29
ATOM     28  C   UNL     1       3.129   5.547  17.937  0.00  0.00    +0.000 C 
ATOM     29  O   UNL     1       3.170   6.941  17.644  0.00  0.00    +0.000 OA
ENDBRANCH  22  29
ENDBRANCH  20  26
ENDBRANCH   1  20
TORSDOF 5
ENDMDL
MODEL 7
REMARK VINA RESULT:      -6.4      3.854      6.161
REMARK  Name = 
REMARK  7 active torsions:
REMARK  status: ('A' for Active; 'I' for Inactive)
REMARK    1  A    between atoms: C_1  and  O_2
REMARK    2  A    between atoms: O_2  and  C_3
REMARK    3  A    between atoms: C_7  and  N_8
REMARK    4  A    between atoms: N_8  and  C_9
REMARK    5  A    between atoms: C_15  and  C_16
REMARK    6  A    between atoms: C_17  and  S_18
REMARK    7  A    between atoms: S_18  and  N_21
REMARK                            x       y       z     vdW  Elec       q    Type
REMARK                         _______ _______ _______ _____ _____    ______ ____
ROOT
ATOM      1  C   UNL     1      -1.419  10.760  18.163  0.00  0.00    +0.000 A 
ATOM      2  N   UNL     1      -1.723   9.934  17.129  0.00  0.00    +0.000 NA
ATOM      3  C   UNL     1      -2.964   9.896  16.643  0.00  0.00    +0.000 A 
ATOM      4  N   UNL     1      -4.009  10.583  17.084  0.00  0.00    +0.000 NA
ATOM      5  C   UNL     1      -3.708  11.373  18.125  0.00  0.00    +0.000 A 
ATOM      6  S   UNL     1      -4.931  12.306  18.837  0.00  0.00    +0.000 S 
ATOM      7  C   UNL     1      -3.865  12.970  20.002  0.00  0.00    +0.000 A 
ATOM      8  C   UNL     1      -4.431  13.945  20.981  0.00  0.00    +0.000 C 
ATOM      9  C   UNL     1      -2.585  12.460  19.840  0.00  0.00    +0.000 A 
ATOM     10  C   UNL     1      -2.467  11.535  18.723  0.00  0.00    +0.000 A 
ENDROOT
BRANCH   9  11
ATOM     11  S   UNL     1      -1.208  12.832  20.825  0.00  0.00    +0.000 S 
ATOM     12  O   UNL     1      -0.999  11.607  21.566  0.00  0.00    +0.000 OA
ATOM     13  O   UNL     1      -0.254  13.298  19.840  0.00  0.00    +0.000 OA
BRANCH  11  14
ATOM     14  N   UNL     1      -1.524  14.106  21.958  0.00  0.00    +0.000 NA
ATOM     15  C   UNL     1      -1.403  13.638  23.377  0.00  0.00    +0.000 C 
ATOM     16  C   UNL     1      -1.498  14.764  24.397  0.00  0.00    +0.000 C 
ATOM     17  C   UNL     1      -0.518  15.877  24.070  0.00  0.00    +0.000 C 
ATOM     18  C   UNL     1      -0.850  16.428  22.695  0.00  0.00    +0.000 C 
ATOM     19  C   UNL     1      -0.758  15.348  21.626  0.00  0.00    +0.000 C 
ENDBRANCH  11  14
ENDBRANCH   9  11
BRANCH   1  20
ATOM     20  N   UNL     1      -0.084  10.792  18.590  0.00  0.00    +0.000 N 
ATOM     21  H   UNL     1       0.385  11.686  18.482  0.00  0.00    +0.000 HD
BRANCH  20  26
ATOM     22  C   UNL     1       2.471   8.080  18.254  0.00  0.00    +0.000 A 
ATOM     23  C   UNL     1       2.455   7.552  19.542  0.00  0.00    +0.000 A 
ATOM     24  C   UNL     1       1.595   8.077  20.508  0.00  0.00    +0.000 A 
ATOM     25  C   UNL     1       0.738   9.137  20.187  0.00  0.00    +0.000 A 
ATOM     26  C   UNL     1       0.740   9.689  18.902  0.00  0.00    +0.000 A 
ATOM     27  C   UNL     1       1.621   9.147  17.949  0.00  0.00    +0.000 A 
BRANCH  22  29
ATOM     28  C   UNL     1       3.850   6.207  17.778  0.00  0.00    +0.000 C 
ATOM     29  O   UNL     1       3.343   7.479  17.386  0.00  0.00    +0.000 OA
ENDBRANCH  22  29
ENDBRANCH  20  26
ENDBRANCH   1  20
TORSDOF 5
ENDMDL
MODEL 8
REMARK VINA RESULT:      -6.4      2.941      5.098
REMARK  Name = 
REMARK  7 active torsions:
REMARK  status: ('A' for Active; 'I' for Inactive)
REMARK    1  A    between atoms: C_1  and  O_2
REMARK    2  A    between atoms: O_2  and  C_3
REMARK    3  A    between atoms: C_7  and  N_8
REMARK    4  A    between atoms: N_8  and  C_9
REMARK    5  A    between atoms: C_15  and  C_16
REMARK    6  A    between atoms: C_17  and  S_18
REMARK    7  A    between atoms: S_18  and  N_21
REMARK                            x       y       z     vdW  Elec       q    Type
REMARK                         _______ _______ _______ _____ _____    ______ ____
ROOT
ATOM      1  C   UNL     1      -4.882  12.141  19.277  0.00  0.00    +0.000 A 
ATOM      2  N   UNL     1      -5.456  11.461  18.251  0.00  0.00    +0.000 NA
ATOM      3  C   UNL     1      -6.715  11.037  18.349  0.00  0.00    +0.000 A 
ATOM      4  N   UNL     1      -7.522  11.180  19.393  0.00  0.00    +0.000 NA
ATOM      5  C   UNL     1      -6.938  11.825  20.413  0.00  0.00    +0.000 A 
ATOM      6  S   UNL     1      -7.812  12.074  21.844  0.00  0.00    +0.000 S 
ATOM      7  C   UNL     1      -6.503  12.876  22.606  0.00  0.00    +0.000 A 
ATOM      8  C   UNL     1      -6.711  13.367  24.000  0.00  0.00    +0.000 C 
ATOM      9  C   UNL     1      -5.406  12.934  21.759  0.00  0.00    +0.000 A 
ATOM     10  C   UNL     1      -5.650  12.341  20.453  0.00  0.00    +0.000 A 
ENDROOT
BRANCH   9  11
ATOM     11  S   UNL     1      -3.861  13.624  22.138  0.00  0.00    +0.000 S 
ATOM     12  O   UNL     1      -3.010  12.460  22.268  0.00  0.00    +0.000 OA
ATOM     13  O   UNL     1      -3.688  14.576  21.061  0.00  0.00    +0.000 OA
BRANCH  11  14
ATOM     14  N   UNL     1      -3.863  14.469  23.652  0.00  0.00    +0.000 NA
ATOM     15  C   UNL     1      -2.567  14.307  24.387  0.00  0.00    +0.000 C 
ATOM     16  C   UNL     1      -2.463  15.175  25.633  0.00  0.00    +0.000 C 
ATOM     17  C   UNL     1      -2.766  16.628  25.309  0.00  0.00    +0.000 C 
ATOM     18  C   UNL     1      -4.178  16.718  24.760  0.00  0.00    +0.000 C 
ATOM     19  C   UNL     1      -4.342  15.878  23.501  0.00  0.00    +0.000 C 
ENDBRANCH  11  14
ENDBRANCH   9  11
BRANCH   1  20
ATOM     20  N   UNL     1      -3.572  12.606  19.088  0.00  0.00    +0.000 N 
ATOM     21  H   UNL     1      -3.482  13.609  18.961  0.00  0.00    +0.000 HD
BRANCH  20  26
ATOM     22  C   UNL     1      -0.053  11.340  19.164  0.00  0.00    +0.000 A 
ATOM     23  C   UNL     1      -0.155  10.246  18.308  0.00  0.00    +0.000 A 
ATOM     24  C   UNL     1      -1.374   9.941  17.699  0.00  0.00    +0.000 A 
ATOM     25  C   UNL     1      -2.501  10.735  17.941  0.00  0.00    +0.000 A 
ATOM     26  C   UNL     1      -2.425  11.835  18.801  0.00  0.00    +0.000 A 
ATOM     27  C   UNL     1      -1.189  12.117  19.409  0.00  0.00    +0.000 A 
BRANCH  22  29
ATOM     28  C   UNL     1       1.921  12.660  19.172  0.00  0.00    +0.000 C 
ATOM     29  O   UNL     1       1.192  11.553  19.694  0.00  0.00    +0.000 OA
ENDBRANCH  22  29
ENDBRANCH  20  26
ENDBRANCH   1  20
TORSDOF 5
ENDMDL
MODEL 9
REMARK VINA RESULT:      -6.4      3.863      6.170
REMARK  Name = 
REMARK  7 active torsions:
REMARK  status: ('A' for Active; 'I' for Inactive)
REMARK    1  A    between atoms: C_1  and  O_2
REMARK    2  A    between atoms: O_2  and  C_3
REMARK    3  A    between atoms: C_7  and  N_8
REMARK    4  A    between atoms: N_8  and  C_9
REMARK    5  A    between atoms: C_15  and  C_16
REMARK    6  A    between atoms: C_17  and  S_18
REMARK    7  A    between atoms: S_18  and  N_21
REMARK                            x       y       z     vdW  Elec       q    Type
REMARK                         _______ _______ _______ _____ _____    ______ ____
ROOT
ATOM      1  C   UNL     1      -1.478  10.780  18.216  0.00  0.00    +0.000 A 
ATOM      2  N   UNL     1      -1.750   9.961  17.168  0.00  0.00    +0.000 NA
ATOM      3  C   UNL     1      -2.984   9.896  16.669  0.00  0.00    +0.000 A 
ATOM      4  N   UNL     1      -4.052  10.549  17.109  0.00  0.00    +0.000 NA
ATOM      5  C   UNL     1      -3.782  11.332  18.164  0.00  0.00    +0.000 A 
ATOM      6  S   UNL     1      -5.037  12.222  18.876  0.00  0.00    +0.000 S 
ATOM      7  C   UNL     1      -4.000  12.898  20.061  0.00  0.00    +0.000 A 
ATOM      8  C   UNL     1      -4.601  13.843  21.048  0.00  0.00    +0.000 C 
ATOM      9  C   UNL     1      -2.705  12.425  19.904  0.00  0.00    +0.000 A 
ATOM     10  C   UNL     1      -2.552  11.519  18.777  0.00  0.00    +0.000 A 
ENDROOT
BRANCH   9  11
ATOM     11  S   UNL     1      -1.347  12.820  20.908  0.00  0.00    +0.000 S 
ATOM     12  O   UNL     1      -1.106  11.587  21.626  0.00  0.00    +0.000 OA
ATOM     13  O   UNL     1      -0.402  13.335  19.940  0.00  0.00    +0.000 OA
BRANCH  11  14
ATOM     14  N   UNL     1      -1.712  14.060  22.063  0.00  0.00    +0.000 NA
ATOM     15  C   UNL     1      -1.279  13.682  23.448  0.00  0.00    +0.000 C 
ATOM     16  C   UNL     1      -1.419  14.813  24.457  0.00  0.00    +0.000 C 
ATOM     17  C   UNL     1      -0.733  16.074  23.960  0.00  0.00    +0.000 C 
ATOM     18  C   UNL     1      -1.380  16.495  22.653  0.00  0.00    +0.000 C 
ATOM     19  C   UNL     1      -1.259  15.407  21.595  0.00  0.00    +0.000 C 
ENDBRANCH  11  14
ENDBRANCH   9  11
BRANCH   1  20
ATOM     20  N   UNL     1      -0.148  10.842  18.657  0.00  0.00    +0.000 N 
ATOM     21  H   UNL     1       0.242  11.776  18.729  0.00  0.00    +0.000 HD
BRANCH  20  26
ATOM     22  C   UNL     1       1.628   7.818  19.960  0.00  0.00    +0.000 A 
ATOM     23  C   UNL     1       2.529   7.584  18.924  0.00  0.00    +0.000 A 
ATOM     24  C   UNL     1       2.559   8.429  17.814  0.00  0.00    +0.000 A 
ATOM     25  C   UNL     1       1.687   9.521  17.734  0.00  0.00    +0.000 A 
ATOM     26  C   UNL     1       0.769   9.773  18.758  0.00  0.00    +0.000 A 
ATOM     27  C   UNL     1       0.752   8.904  19.863  0.00  0.00    +0.000 A 
BRANCH  22  29
ATOM     28  C   UNL     1       1.871   5.564  20.665  0.00  0.00    +0.000 C 
ATOM     29  O   UNL     1       1.696   6.936  21.005  0.00  0.00    +0.000 OA
ENDBRANCH  22  29
ENDBRANCH  20  26
ENDBRANCH   1  20
TORSDOF 5
ENDMDL
