MODEL 1
REMARK VINA RESULT:      -7.5      0.000      0.000
REMARK  Name = 
REMARK  2 active torsions:
REMARK  status: ('A' for Active; 'I' for Inactive)
REMARK    1  A    between atoms: C_1  and  C_2
REMARK    2  A    between atoms: C_2  and  N_3
REMARK                            x       y       z     vdW  Elec       q    Type
REMARK                         _______ _______ _______ _____ _____    ______ ____
ROOT
ATOM      1  N   UNL     1       6.077   5.822  16.747  0.00  0.00    +0.000 N 
ATOM      2  C   UNL     1       6.664   5.168  15.671  0.00  0.00    +0.000 A 
ATOM      3  N   UNL     1       7.668   5.607  14.972  0.00  0.00    +0.000 NA
ATOM      4  C   UNL     1       6.160   3.842  15.217  0.00  0.00    +0.000 A 
ATOM      5  C   UNL     1       5.111   3.302  15.847  0.00  0.00    +0.000 A 
ATOM      6  C   UNL     1       4.473   4.008  16.962  0.00  0.00    +0.000 A 
ATOM      7  C   UNL     1       4.949   5.247  17.401  0.00  0.00    +0.000 A 
ATOM      8  N   UNL     1       4.354   5.897  18.428  0.00  0.00    +0.000 NA
ATOM      9  C   UNL     1       3.293   5.353  19.043  0.00  0.00    +0.000 A 
ATOM     10  C   UNL     1       2.692   6.025  20.103  0.00  0.00    +0.000 A 
ATOM     11  C   UNL     1       1.581   5.501  20.776  0.00  0.00    +0.000 A 
ATOM     12  C   UNL     1       1.049   4.277  20.390  0.00  0.00    +0.000 A 
ATOM     13  C   UNL     1       1.633   3.585  19.336  0.00  0.00    +0.000 A 
ATOM     14  C   UNL     1       2.756   4.118  18.661  0.00  0.00    +0.000 A 
ATOM     15  N   UNL     1       3.370   3.442  17.594  0.00  0.00    +0.000 N 
ATOM     16  O   UNL     1       2.907   2.302  17.208  0.00  0.00    +0.000 OA
ATOM     17  H   UNL     1       7.992   6.511  15.307  0.00  0.00    +0.000 HD
ENDROOT
BRANCH   1  19
ATOM     18  C   UNL     1       7.718   7.134  18.024  0.00  0.00    +0.000 C 
ATOM     19  C   UNL     1       6.445   7.166  17.189  0.00  0.00    +0.000 C 
ENDBRANCH   1  19
TORSDOF 1
ENDMDL
MODEL 2
REMARK VINA RESULT:      -7.3      1.094      1.148
REMARK  Name = 
REMARK  2 active torsions:
REMARK  status: ('A' for Active; 'I' for Inactive)
REMARK    1  A    between atoms: C_1  and  C_2
REMARK    2  A    between atoms: C_2  and  N_3
REMARK                            x       y       z     vdW  Elec       q    Type
REMARK                         _______ _______ _______ _____ _____    ______ ____
ROOT
ATOM      1  N   UNL     1       6.117   5.490  17.560  0.00  0.00    +0.000 N 
ATOM      2  C   UNL     1       6.553   5.424  16.244  0.00  0.00    +0.000 A 
ATOM      3  N   UNL     1       7.614   6.002  15.766  0.00  0.00    +0.000 NA
ATOM      4  C   UNL     1       5.795   4.641  15.227  0.00  0.00    +0.000 A 
ATOM      5  C   UNL     1       4.669   4.023  15.599  0.00  0.00    +0.000 A 
ATOM      6  C   UNL     1       4.194   4.119  16.982  0.00  0.00    +0.000 A 
ATOM      7  C   UNL     1       4.907   4.842  17.943  0.00  0.00    +0.000 A 
ATOM      8  N   UNL     1       4.462   4.931  19.219  0.00  0.00    +0.000 NA
ATOM      9  C   UNL     1       3.322   4.319  19.577  0.00  0.00    +0.000 A 
ATOM     10  C   UNL     1       2.876   4.410  20.891  0.00  0.00    +0.000 A 
ATOM     11  C   UNL     1       1.693   3.792  21.315  0.00  0.00    +0.000 A 
ATOM     12  C   UNL     1       0.929   3.062  20.413  0.00  0.00    +0.000 A 
ATOM     13  C   UNL     1       1.354   2.955  19.094  0.00  0.00    +0.000 A 
ATOM     14  C   UNL     1       2.552   3.580  18.672  0.00  0.00    +0.000 A 
ATOM     15  N   UNL     1       3.010   3.487  17.347  0.00  0.00    +0.000 N 
ATOM     16  O   UNL     1       2.330   2.817  16.482  0.00  0.00    +0.000 OA
ATOM     17  H   UNL     1       8.112   6.525  16.482  0.00  0.00    +0.000 HD
ENDROOT
BRANCH   1  19
ATOM     18  C   UNL     1       7.942   5.602  19.204  0.00  0.00    +0.000 C 
ATOM     19  C   UNL     1       6.744   6.315  18.592  0.00  0.00    +0.000 C 
ENDBRANCH   1  19
TORSDOF 1
ENDMDL
MODEL 3
REMARK VINA RESULT:      -7.2      1.555      3.045
REMARK  Name = 
REMARK  2 active torsions:
REMARK  status: ('A' for Active; 'I' for Inactive)
REMARK    1  A    between atoms: C_1  and  C_2
REMARK    2  A    between atoms: C_2  and  N_3
REMARK                            x       y       z     vdW  Elec       q    Type
REMARK                         _______ _______ _______ _____ _____    ______ ____
ROOT
ATOM      1  N   UNL     1       5.739   4.645  16.180  0.00  0.00    +0.000 N 
ATOM      2  C   UNL     1       6.578   5.752  16.196  0.00  0.00    +0.000 A 
ATOM      3  N   UNL     1       7.617   5.928  15.436  0.00  0.00    +0.000 NA
ATOM      4  C   UNL     1       6.334   6.880  17.138  0.00  0.00    +0.000 A 
ATOM      5  C   UNL     1       5.306   6.797  17.989  0.00  0.00    +0.000 A 
ATOM      6  C   UNL     1       4.440   5.615  17.991  0.00  0.00    +0.000 A 
ATOM      7  C   UNL     1       4.657   4.558  17.101  0.00  0.00    +0.000 A 
ATOM      8  N   UNL     1       3.856   3.467  17.110  0.00  0.00    +0.000 NA
ATOM      9  C   UNL     1       2.836   3.388  17.979  0.00  0.00    +0.000 A 
ATOM     10  C   UNL     1       2.014   2.265  17.975  0.00  0.00    +0.000 A 
ATOM     11  C   UNL     1       0.939   2.133  18.863  0.00  0.00    +0.000 A 
ATOM     12  C   UNL     1       0.668   3.141  19.780  0.00  0.00    +0.000 A 
ATOM     13  C   UNL     1       1.473   4.274  19.802  0.00  0.00    +0.000 A 
ATOM     14  C   UNL     1       2.557   4.402  18.901  0.00  0.00    +0.000 A 
ATOM     15  N   UNL     1       3.387   5.536  18.897  0.00  0.00    +0.000 N 
ATOM     16  O   UNL     1       3.166   6.493  19.731  0.00  0.00    +0.000 OA
ATOM     17  H   UNL     1       7.756   5.145  14.802  0.00  0.00    +0.000 HD
ENDROOT
BRANCH   1  19
ATOM     18  C   UNL     1       5.776   3.768  13.883  0.00  0.00    +0.000 C 
ATOM     19  C   UNL     1       5.967   3.455  15.360  0.00  0.00    +0.000 C 
ENDBRANCH   1  19
TORSDOF 1
ENDMDL
MODEL 4
REMARK VINA RESULT:      -6.8      3.220      5.309
REMARK  Name = 
REMARK  2 active torsions:
REMARK  status: ('A' for Active; 'I' for Inactive)
REMARK    1  A    between atoms: C_1  and  C_2
REMARK    2  A    between atoms: C_2  and  N_3
REMARK                            x       y       z     vdW  Elec       q    Type
REMARK                         _______ _______ _______ _____ _____    ______ ____
ROOT
ATOM      1  N   UNL     1       1.210   8.486  20.148  0.00  0.00    +0.000 N 
ATOM      2  C   UNL     1       1.305   9.519  19.224  0.00  0.00    +0.000 A 
ATOM      3  N   UNL     1       0.755  10.691  19.337  0.00  0.00    +0.000 NA
ATOM      4  C   UNL     1       2.089   9.350  17.969  0.00  0.00    +0.000 A 
ATOM      5  C   UNL     1       2.679   8.174  17.732  0.00  0.00    +0.000 A 
ATOM      6  C   UNL     1       2.552   7.075  18.693  0.00  0.00    +0.000 A 
ATOM      7  C   UNL     1       1.828   7.231  19.879  0.00  0.00    +0.000 A 
ATOM      8  N   UNL     1       1.710   6.212  20.762  0.00  0.00    +0.000 NA
ATOM      9  C   UNL     1       2.294   5.031  20.507  0.00  0.00    +0.000 A 
ATOM     10  C   UNL     1       2.174   3.991  21.424  0.00  0.00    +0.000 A 
ATOM     11  C   UNL     1       2.762   2.739  21.204  0.00  0.00    +0.000 A 
ATOM     12  C   UNL     1       3.491   2.509  20.044  0.00  0.00    +0.000 A 
ATOM     13  C   UNL     1       3.628   3.532  19.113  0.00  0.00    +0.000 A 
ATOM     14  C   UNL     1       3.033   4.796  19.342  0.00  0.00    +0.000 A 
ATOM     15  N   UNL     1       3.156   5.851  18.423  0.00  0.00    +0.000 N 
ATOM     16  O   UNL     1       3.826   5.676  17.336  0.00  0.00    +0.000 OA
ATOM     17  H   UNL     1       0.230  10.778  20.204  0.00  0.00    +0.000 HD
ENDROOT
BRANCH   1  19
ATOM     18  C   UNL     1       1.098   9.271  22.475  0.00  0.00    +0.000 C 
ATOM     19  C   UNL     1       0.381   8.536  21.352  0.00  0.00    +0.000 C 
ENDBRANCH   1  19
TORSDOF 1
ENDMDL
MODEL 5
REMARK VINA RESULT:      -6.8      2.398      6.063
REMARK  Name = 
REMARK  2 active torsions:
REMARK  status: ('A' for Active; 'I' for Inactive)
REMARK    1  A    between atoms: C_1  and  C_2
REMARK    2  A    between atoms: C_2  and  N_3
REMARK                            x       y       z     vdW  Elec       q    Type
REMARK                         _______ _______ _______ _____ _____    ______ ____
ROOT
ATOM      1  N   UNL     1       3.986   4.032  17.759  0.00  0.00    +0.000 N 
ATOM      2  C   UNL     1       4.082   4.641  19.003  0.00  0.00    +0.000 A 
ATOM      3  N   UNL     1       3.273   4.460  20.003  0.00  0.00    +0.000 NA
ATOM      4  C   UNL     1       5.184   5.601  19.299  0.00  0.00    +0.000 A 
ATOM      5  C   UNL     1       6.065   5.886  18.334  0.00  0.00    +0.000 A 
ATOM      6  C   UNL     1       5.943   5.265  17.013  0.00  0.00    +0.000 A 
ATOM      7  C   UNL     1       4.919   4.355  16.733  0.00  0.00    +0.000 A 
ATOM      8  N   UNL     1       4.809   3.787  15.509  0.00  0.00    +0.000 NA
ATOM      9  C   UNL     1       5.690   4.093  14.544  0.00  0.00    +0.000 A 
ATOM     10  C   UNL     1       5.573   3.498  13.292  0.00  0.00    +0.000 A 
ATOM     11  C   UNL     1       6.465   3.785  12.251  0.00  0.00    +0.000 A 
ATOM     12  C   UNL     1       7.503   4.685  12.454  0.00  0.00    +0.000 A 
ATOM     13  C   UNL     1       7.643   5.291  13.697  0.00  0.00    +0.000 A 
ATOM     14  C   UNL     1       6.740   4.995  14.746  0.00  0.00    +0.000 A 
ATOM     15  N   UNL     1       6.856   5.588  16.014  0.00  0.00    +0.000 N 
ATOM     16  O   UNL     1       7.808   6.427  16.242  0.00  0.00    +0.000 OA
ATOM     17  H   UNL     1       2.535   3.799  19.773  0.00  0.00    +0.000 HD
ENDROOT
BRANCH   1  19
ATOM     18  C   UNL     1       3.041   1.770  17.957  0.00  0.00    +0.000 C 
ATOM     19  C   UNL     1       2.883   3.160  17.356  0.00  0.00    +0.000 C 
ENDBRANCH   1  19
TORSDOF 1
ENDMDL
MODEL 6
REMARK VINA RESULT:      -6.7      1.937      2.415
REMARK  Name = 
REMARK  2 active torsions:
REMARK  status: ('A' for Active; 'I' for Inactive)
REMARK    1  A    between atoms: C_1  and  C_2
REMARK    2  A    between atoms: C_2  and  N_3
REMARK                            x       y       z     vdW  Elec       q    Type
REMARK                         _______ _______ _______ _____ _____    ______ ____
ROOT
ATOM      1  N   UNL     1       6.307   5.271  17.896  0.00  0.00    +0.000 N 
ATOM      2  C   UNL     1       6.448   6.246  16.917  0.00  0.00    +0.000 A 
ATOM      3  N   UNL     1       7.572   6.651  16.405  0.00  0.00    +0.000 NA
ATOM      4  C   UNL     1       5.256   6.937  16.351  0.00  0.00    +0.000 A 
ATOM      5  C   UNL     1       4.045   6.621  16.821  0.00  0.00    +0.000 A 
ATOM      6  C   UNL     1       3.900   5.613  17.875  0.00  0.00    +0.000 A 
ATOM      7  C   UNL     1       5.014   4.953  18.403  0.00  0.00    +0.000 A 
ATOM      8  N   UNL     1       4.876   4.026  19.380  0.00  0.00    +0.000 NA
ATOM      9  C   UNL     1       3.657   3.728  19.855  0.00  0.00    +0.000 A 
ATOM     10  C   UNL     1       3.524   2.768  20.854  0.00  0.00    +0.000 A 
ATOM     11  C   UNL     1       2.275   2.423  21.385  0.00  0.00    +0.000 A 
ATOM     12  C   UNL     1       1.124   3.043  20.915  0.00  0.00    +0.000 A 
ATOM     13  C   UNL     1       1.231   4.003  19.916  0.00  0.00    +0.000 A 
ATOM     14  C   UNL     1       2.495   4.346  19.381  0.00  0.00    +0.000 A 
ATOM     15  N   UNL     1       2.635   5.310  18.368  0.00  0.00    +0.000 N 
ATOM     16  O   UNL     1       1.590   5.906  17.905  0.00  0.00    +0.000 OA
ATOM     17  H   UNL     1       8.366   6.160  16.808  0.00  0.00    +0.000 HD
ENDROOT
BRANCH   1  19
ATOM     18  C   UNL     1       8.045   5.546  19.613  0.00  0.00    +0.000 C 
ATOM     19  C   UNL     1       7.428   4.621  18.574  0.00  0.00    +0.000 C 
ENDBRANCH   1  19
TORSDOF 1
ENDMDL
MODEL 7
REMARK VINA RESULT:      -6.7      3.057      4.840
REMARK  Name = 
REMARK  2 active torsions:
REMARK  status: ('A' for Active; 'I' for Inactive)
REMARK    1  A    between atoms: C_1  and  C_2
REMARK    2  A    between atoms: C_2  and  N_3
REMARK                            x       y       z     vdW  Elec       q    Type
REMARK                         _______ _______ _______ _____ _____    ______ ____
ROOT
ATOM      1  N   UNL     1       2.977   4.235  19.861  0.00  0.00    +0.000 N 
ATOM      2  C   UNL     1       3.756   3.571  18.922  0.00  0.00    +0.000 A 
ATOM      3  N   UNL     1       4.206   2.357  19.031  0.00  0.00    +0.000 NA
ATOM      4  C   UNL     1       4.152   4.239  17.651  0.00  0.00    +0.000 A 
ATOM      5  C   UNL     1       3.768   5.502  17.440  0.00  0.00    +0.000 A 
ATOM      6  C   UNL     1       2.972   6.211  18.446  0.00  0.00    +0.000 A 
ATOM      7  C   UNL     1       2.586   5.586  19.636  0.00  0.00    +0.000 A 
ATOM      8  N   UNL     1       1.854   6.247  20.563  0.00  0.00    +0.000 NA
ATOM      9  C   UNL     1       1.487   7.520  20.348  0.00  0.00    +0.000 A 
ATOM     10  C   UNL     1       0.729   8.188  21.303  0.00  0.00    +0.000 A 
ATOM     11  C   UNL     1       0.322   9.517  21.128  0.00  0.00    +0.000 A 
ATOM     12  C   UNL     1       0.674  10.204  19.973  0.00  0.00    +0.000 A 
ATOM     13  C   UNL     1       1.430   9.557  19.002  0.00  0.00    +0.000 A 
ATOM     14  C   UNL     1       1.836   8.214  19.184  0.00  0.00    +0.000 A 
ATOM     15  N   UNL     1       2.597   7.532  18.220  0.00  0.00    +0.000 N 
ATOM     16  O   UNL     1       2.941   8.135  17.134  0.00  0.00    +0.000 OA
ATOM     17  H   UNL     1       3.916   1.926  19.906  0.00  0.00    +0.000 HD
ENDROOT
BRANCH   1  19
ATOM     18  C   UNL     1       1.349   2.871  21.100  0.00  0.00    +0.000 C 
ATOM     19  C   UNL     1       2.631   3.690  21.173  0.00  0.00    +0.000 C 
ENDBRANCH   1  19
TORSDOF 1
ENDMDL
MODEL 8
REMARK VINA RESULT:      -6.7      2.239      5.689
REMARK  Name = 
REMARK  2 active torsions:
REMARK  status: ('A' for Active; 'I' for Inactive)
REMARK    1  A    between atoms: C_1  and  C_2
REMARK    2  A    between atoms: C_2  and  N_3
REMARK                            x       y       z     vdW  Elec       q    Type
REMARK                         _______ _______ _______ _____ _____    ______ ____
ROOT
ATOM      1  N   UNL     1       3.256   3.266  19.988  0.00  0.00    +0.000 N 
ATOM      2  C   UNL     1       2.390   3.808  20.928  0.00  0.00    +0.000 A 
ATOM      3  N   UNL     1       1.867   3.174  21.934  0.00  0.00    +0.000 NA
ATOM      4  C   UNL     1       1.974   5.237  20.847  0.00  0.00    +0.000 A 
ATOM      5  C   UNL     1       2.429   5.984  19.836  0.00  0.00    +0.000 A 
ATOM      6  C   UNL     1       3.319   5.402  18.828  0.00  0.00    +0.000 A 
ATOM      7  C   UNL     1       3.722   4.065  18.904  0.00  0.00    +0.000 A 
ATOM      8  N   UNL     1       4.542   3.531  17.968  0.00  0.00    +0.000 NA
ATOM      9  C   UNL     1       4.980   4.286  16.949  0.00  0.00    +0.000 A 
ATOM     10  C   UNL     1       5.827   3.730  15.996  0.00  0.00    +0.000 A 
ATOM     11  C   UNL     1       6.310   4.475  14.912  0.00  0.00    +0.000 A 
ATOM     12  C   UNL     1       5.946   5.807  14.767  0.00  0.00    +0.000 A 
ATOM     13  C   UNL     1       5.102   6.386  15.708  0.00  0.00    +0.000 A 
ATOM     14  C   UNL     1       4.619   5.630  16.802  0.00  0.00    +0.000 A 
ATOM     15  N   UNL     1       3.768   6.187  17.771  0.00  0.00    +0.000 N 
ATOM     16  O   UNL     1       3.409   7.421  17.672  0.00  0.00    +0.000 OA
ATOM     17  H   UNL     1       2.172   2.203  21.965  0.00  0.00    +0.000 HD
ENDROOT
BRANCH   1  19
ATOM     18  C   UNL     1       4.886   1.595  20.760  0.00  0.00    +0.000 C 
ATOM     19  C   UNL     1       3.632   1.854  19.937  0.00  0.00    +0.000 C 
ENDBRANCH   1  19
TORSDOF 1
ENDMDL
MODEL 9
REMARK VINA RESULT:      -6.6      4.398      6.276
REMARK  Name = 
REMARK  2 active torsions:
REMARK  status: ('A' for Active; 'I' for Inactive)
REMARK    1  A    between atoms: C_1  and  C_2
REMARK    2  A    between atoms: C_2  and  N_3
REMARK                            x       y       z     vdW  Elec       q    Type
REMARK                         _______ _______ _______ _____ _____    ______ ____
ROOT
ATOM      1  N   UNL     1       2.276   6.491  19.771  0.00  0.00    +0.000 N 
ATOM      2  C   UNL     1       2.966   6.354  18.573  0.00  0.00    +0.000 A 
ATOM      3  N   UNL     1       3.605   5.292  18.183  0.00  0.00    +0.000 NA
ATOM      4  C   UNL     1       3.026   7.475  17.595  0.00  0.00    +0.000 A 
ATOM      5  C   UNL     1       2.425   8.630  17.901  0.00  0.00    +0.000 A 
ATOM      6  C   UNL     1       1.724   8.783  19.179  0.00  0.00    +0.000 A 
ATOM      7  C   UNL     1       1.654   7.731  20.097  0.00  0.00    +0.000 A 
ATOM      8  N   UNL     1       1.008   7.879  21.277  0.00  0.00    +0.000 NA
ATOM      9  C   UNL     1       0.422   9.047  21.581  0.00  0.00    +0.000 A 
ATOM     10  C   UNL     1      -0.245   9.188  22.793  0.00  0.00    +0.000 A 
ATOM     11  C   UNL     1      -0.871  10.387  23.158  0.00  0.00    +0.000 A 
ATOM     12  C   UNL     1      -0.836  11.478  22.300  0.00  0.00    +0.000 A 
ATOM     13  C   UNL     1      -0.177  11.362  21.081  0.00  0.00    +0.000 A 
ATOM     14  C   UNL     1       0.451  10.148  20.717  0.00  0.00    +0.000 A 
ATOM     15  N   UNL     1       1.122   9.998  19.491  0.00  0.00    +0.000 N 
ATOM     16  O   UNL     1       1.173  10.987  18.667  0.00  0.00    +0.000 OA
ATOM     17  H   UNL     1       3.543   4.543  18.869  0.00  0.00    +0.000 HD
ENDROOT
BRANCH   1  19
ATOM     18  C   UNL     1       1.226   4.399  20.521  0.00  0.00    +0.000 C 
ATOM     19  C   UNL     1       2.254   5.479  20.826  0.00  0.00    +0.000 C 
ENDBRANCH   1  19
TORSDOF 1
ENDMDL
