MODEL 1
REMARK VINA RESULT:      -6.7      0.000      0.000
REMARK  Name = 
REMARK  3 active torsions:
REMARK  status: ('A' for Active; 'I' for Inactive)
REMARK    1  A    between atoms: N_4  and  N_5
REMARK    2  A    between atoms: C_6  and  C_7
REMARK    3  A    between atoms: C_12  and  N_13
REMARK                            x       y       z     vdW  Elec       q    Type
REMARK                         _______ _______ _______ _____ _____    ______ ____
ROOT
ATOM      1  N   UNL     1       4.807   4.324  17.693  0.00  0.00    +0.000 NA
ATOM      2  C   UNL     1       3.734   3.613  17.689  0.00  0.00    +0.000 C 
ENDROOT
BRANCH   1   6
ATOM      3  N   UNL     1       7.625   4.867  15.555  0.00  0.00    +0.000 NA
ATOM      4  C   UNL     1       6.949   4.584  16.609  0.00  0.00    +0.000 C 
ATOM      5  N   UNL     1       7.620   4.298  17.831  0.00  0.00    +0.000 N 
ATOM      6  N   UNL     1       5.528   4.596  16.555  0.00  0.00    +0.000 N 
ATOM      7  H   UNL     1       8.657   4.880  15.566  0.00  0.00    +0.000 HD
ATOM      8  H   UNL     1       8.649   4.317  17.884  0.00  0.00    +0.000 HD
ATOM      9  H   UNL     1       7.094   4.080  18.691  0.00  0.00    +0.000 HD
ATOM     10  H   UNL     1       5.050   4.855  15.679  0.00  0.00    +0.000 HD
ENDBRANCH   1   6
BRANCH   2  11
ATOM     11  C   UNL     1       2.991   3.411  18.964  0.00  0.00    +0.000 A 
ATOM     12  C   UNL     1       1.671   3.903  19.059  0.00  0.00    +0.000 A 
ATOM     13  C   UNL     1       0.917   3.726  20.217  0.00  0.00    +0.000 A 
ATOM     14  C   UNL     1       1.460   3.046  21.302  0.00  0.00    +0.000 A 
ATOM     15  C   UNL     1       2.762   2.550  21.236  0.00  0.00    +0.000 A 
ATOM     16  C   UNL     1       3.546   2.725  20.082  0.00  0.00    +0.000 A 
BRANCH  16  17
ATOM     17  N   UNL     1       4.863   2.190  20.076  0.00  0.00    +0.000 N 
ATOM     18  H   UNL     1       5.661   2.776  20.365  0.00  0.00    +0.000 HD
ATOM     19  H   UNL     1       5.074   1.226  19.795  0.00  0.00    +0.000 HD
ENDBRANCH  16  17
ENDBRANCH   2  11
TORSDOF 3
ENDMDL
MODEL 2
REMARK VINA RESULT:      -6.4      1.393      1.443
REMARK  Name = 
REMARK  3 active torsions:
REMARK  status: ('A' for Active; 'I' for Inactive)
REMARK    1  A    between atoms: N_4  and  N_5
REMARK    2  A    between atoms: C_6  and  C_7
REMARK    3  A    between atoms: C_12  and  N_13
REMARK                            x       y       z     vdW  Elec       q    Type
REMARK                         _______ _______ _______ _____ _____    ______ ____
ROOT
ATOM      1  N   UNL     1       4.545   3.905  17.100  0.00  0.00    +0.000 NA
ATOM      2  C   UNL     1       3.559   4.644  17.470  0.00  0.00    +0.000 C 
ENDROOT
BRANCH   1   6
ATOM      3  N   UNL     1       7.641   4.869  15.587  0.00  0.00    +0.000 NA
ATOM      4  C   UNL     1       6.806   4.485  16.483  0.00  0.00    +0.000 C 
ATOM      5  N   UNL     1       7.237   4.299  17.826  0.00  0.00    +0.000 N 
ATOM      6  N   UNL     1       5.443   4.285  16.132  0.00  0.00    +0.000 N 
ATOM      7  H   UNL     1       8.634   5.036  15.814  0.00  0.00    +0.000 HD
ATOM      8  H   UNL     1       8.217   4.472  18.094  0.00  0.00    +0.000 HD
ATOM      9  H   UNL     1       6.579   4.003  18.563  0.00  0.00    +0.000 HD
ATOM     10  H   UNL     1       5.129   4.472  15.168  0.00  0.00    +0.000 HD
ENDBRANCH   1   6
BRANCH   2  11
ATOM     11  C   UNL     1       2.664   4.169  18.562  0.00  0.00    +0.000 A 
ATOM     12  C   UNL     1       2.264   5.092  19.554  0.00  0.00    +0.000 A 
ATOM     13  C   UNL     1       1.411   4.714  20.588  0.00  0.00    +0.000 A 
ATOM     14  C   UNL     1       0.930   3.412  20.651  0.00  0.00    +0.000 A 
ATOM     15  C   UNL     1       1.310   2.478  19.687  0.00  0.00    +0.000 A 
ATOM     16  C   UNL     1       2.178   2.833  18.638  0.00  0.00    +0.000 A 
BRANCH  16  17
ATOM     17  N   UNL     1       2.521   1.837  17.683  0.00  0.00    +0.000 N 
ATOM     18  H   UNL     1       2.733   0.876  17.991  0.00  0.00    +0.000 HD
ATOM     19  H   UNL     1       2.570   2.023  16.675  0.00  0.00    +0.000 HD
ENDBRANCH  16  17
ENDBRANCH   2  11
TORSDOF 3
ENDMDL
MODEL 3
REMARK VINA RESULT:      -6.3      1.539      1.862
REMARK  Name = 
REMARK  3 active torsions:
REMARK  status: ('A' for Active; 'I' for Inactive)
REMARK    1  A    between atoms: N_4  and  N_5
REMARK    2  A    between atoms: C_6  and  C_7
REMARK    3  A    between atoms: C_12  and  N_13
REMARK                            x       y       z     vdW  Elec       q    Type
REMARK                         _______ _______ _______ _____ _____    ______ ____
ROOT
ATOM      1  N   UNL     1       4.832   4.039  17.163  0.00  0.00    +0.000 NA
ATOM      2  C   UNL     1       4.746   3.866  18.435  0.00  0.00    +0.000 C 
ENDROOT
BRANCH   1   6
ATOM      3  N   UNL     1       7.486   5.158  15.039  0.00  0.00    +0.000 NA
ATOM      4  C   UNL     1       6.381   5.167  15.694  0.00  0.00    +0.000 C 
ATOM      5  N   UNL     1       5.501   6.280  15.594  0.00  0.00    +0.000 N 
ATOM      6  N   UNL     1       6.029   4.041  16.488  0.00  0.00    +0.000 N 
ATOM      7  H   UNL     1       7.763   5.955  14.443  0.00  0.00    +0.000 HD
ATOM      8  H   UNL     1       5.736   7.086  14.996  0.00  0.00    +0.000 HD
ATOM      9  H   UNL     1       4.604   6.300  16.103  0.00  0.00    +0.000 HD
ATOM     10  H   UNL     1       6.649   3.217  16.514  0.00  0.00    +0.000 HD
ENDBRANCH   1   6
BRANCH   2  11
ATOM     11  C   UNL     1       3.401   3.830  19.074  0.00  0.00    +0.000 A 
ATOM     12  C   UNL     1       3.067   4.848  19.996  0.00  0.00    +0.000 A 
ATOM     13  C   UNL     1       1.817   4.882  20.610  0.00  0.00    +0.000 A 
ATOM     14  C   UNL     1       0.870   3.909  20.312  0.00  0.00    +0.000 A 
ATOM     15  C   UNL     1       1.173   2.890  19.408  0.00  0.00    +0.000 A 
ATOM     16  C   UNL     1       2.432   2.830  18.782  0.00  0.00    +0.000 A 
BRANCH  16  17
ATOM     17  N   UNL     1       2.675   1.772  17.864  0.00  0.00    +0.000 N 
ATOM     18  H   UNL     1       1.885   1.249  17.455  0.00  0.00    +0.000 HD
ATOM     19  H   UNL     1       3.618   1.488  17.575  0.00  0.00    +0.000 HD
ENDBRANCH  16  17
ENDBRANCH   2  11
TORSDOF 3
ENDMDL
MODEL 4
REMARK VINA RESULT:      -6.3      1.434      1.833
REMARK  Name = 
REMARK  3 active torsions:
REMARK  status: ('A' for Active; 'I' for Inactive)
REMARK    1  A    between atoms: N_4  and  N_5
REMARK    2  A    between atoms: C_6  and  C_7
REMARK    3  A    between atoms: C_12  and  N_13
REMARK                            x       y       z     vdW  Elec       q    Type
REMARK                         _______ _______ _______ _____ _____    ______ ____
ROOT
ATOM      1  N   UNL     1       5.411   4.454  16.703  0.00  0.00    +0.000 NA
ATOM      2  C   UNL     1       4.379   4.976  17.268  0.00  0.00    +0.000 C 
ENDROOT
BRANCH   1   6
ATOM      3  N   UNL     1       7.711   5.447  14.147  0.00  0.00    +0.000 NA
ATOM      4  C   UNL     1       6.807   4.770  14.759  0.00  0.00    +0.000 C 
ATOM      5  N   UNL     1       6.290   3.579  14.175  0.00  0.00    +0.000 N 
ATOM      6  N   UNL     1       6.355   5.198  16.037  0.00  0.00    +0.000 N 
ATOM      7  H   UNL     1       8.069   5.154  13.224  0.00  0.00    +0.000 HD
ATOM      8  H   UNL     1       6.636   3.247  13.262  0.00  0.00    +0.000 HD
ATOM      9  H   UNL     1       5.573   3.015  14.656  0.00  0.00    +0.000 HD
ATOM     10  H   UNL     1       6.772   6.033  16.475  0.00  0.00    +0.000 HD
ENDBRANCH   1   6
BRANCH   2  11
ATOM     11  C   UNL     1       3.433   4.096  18.009  0.00  0.00    +0.000 A 
ATOM     12  C   UNL     1       2.057   4.170  17.695  0.00  0.00    +0.000 A 
ATOM     13  C   UNL     1       1.127   3.358  18.339  0.00  0.00    +0.000 A 
ATOM     14  C   UNL     1       1.547   2.447  19.301  0.00  0.00    +0.000 A 
ATOM     15  C   UNL     1       2.899   2.354  19.633  0.00  0.00    +0.000 A 
ATOM     16  C   UNL     1       3.856   3.170  19.004  0.00  0.00    +0.000 A 
BRANCH  16  17
ATOM     17  N   UNL     1       5.219   3.020  19.382  0.00  0.00    +0.000 N 
ATOM     18  H   UNL     1       5.874   2.516  18.765  0.00  0.00    +0.000 HD
ATOM     19  H   UNL     1       5.601   3.395  20.257  0.00  0.00    +0.000 HD
ENDBRANCH  16  17
ENDBRANCH   2  11
TORSDOF 3
ENDMDL
MODEL 5
REMARK VINA RESULT:      -6.2      1.494      1.604
REMARK  Name = 
REMARK  3 active torsions:
REMARK  status: ('A' for Active; 'I' for Inactive)
REMARK    1  A    between atoms: N_4  and  N_5
REMARK    2  A    between atoms: C_6  and  C_7
REMARK    3  A    between atoms: C_12  and  N_13
REMARK                            x       y       z     vdW  Elec       q    Type
REMARK                         _______ _______ _______ _____ _____    ______ ____
ROOT
ATOM      1  N   UNL     1       4.577   4.743  17.454  0.00  0.00    +0.000 NA
ATOM      2  C   UNL     1       3.305   4.610  17.316  0.00  0.00    +0.000 C 
ENDROOT
BRANCH   1   6
ATOM      3  N   UNL     1       7.573   5.382  15.606  0.00  0.00    +0.000 NA
ATOM      4  C   UNL     1       6.800   4.951  16.536  0.00  0.00    +0.000 C 
ATOM      5  N   UNL     1       7.348   4.287  17.668  0.00  0.00    +0.000 N 
ATOM      6  N   UNL     1       5.399   5.176  16.442  0.00  0.00    +0.000 N 
ATOM      7  H   UNL     1       8.596   5.245  15.651  0.00  0.00    +0.000 HD
ATOM      8  H   UNL     1       8.365   4.148  17.757  0.00  0.00    +0.000 HD
ATOM      9  H   UNL     1       6.744   3.945  18.432  0.00  0.00    +0.000 HD
ATOM     10  H   UNL     1       5.016   5.703  15.643  0.00  0.00    +0.000 HD
ENDBRANCH   1   6
BRANCH   2  11
ATOM     11  C   UNL     1       2.486   4.180  18.483  0.00  0.00    +0.000 A 
ATOM     12  C   UNL     1       1.619   3.075  18.327  0.00  0.00    +0.000 A 
ATOM     13  C   UNL     1       0.845   2.611  19.388  0.00  0.00    +0.000 A 
ATOM     14  C   UNL     1       0.924   3.231  20.629  0.00  0.00    +0.000 A 
ATOM     15  C   UNL     1       1.770   4.326  20.812  0.00  0.00    +0.000 A 
ATOM     16  C   UNL     1       2.554   4.819  19.753  0.00  0.00    +0.000 A 
BRANCH  16  17
ATOM     17  N   UNL     1       3.401   5.932  20.006  0.00  0.00    +0.000 N 
ATOM     18  H   UNL     1       4.244   6.083  19.431  0.00  0.00    +0.000 HD
ATOM     19  H   UNL     1       3.218   6.617  20.749  0.00  0.00    +0.000 HD
ENDBRANCH  16  17
ENDBRANCH   2  11
TORSDOF 3
ENDMDL
MODEL 6
REMARK VINA RESULT:      -6.2      1.206      1.315
REMARK  Name = 
REMARK  3 active torsions:
REMARK  status: ('A' for Active; 'I' for Inactive)
REMARK    1  A    between atoms: N_4  and  N_5
REMARK    2  A    between atoms: C_6  and  C_7
REMARK    3  A    between atoms: C_12  and  N_13
REMARK                            x       y       z     vdW  Elec       q    Type
REMARK                         _______ _______ _______ _____ _____    ______ ____
ROOT
ATOM      1  N   UNL     1       4.888   4.907  17.585  0.00  0.00    +0.000 NA
ATOM      2  C   UNL     1       4.628   5.282  18.788  0.00  0.00    +0.000 C 
ENDROOT
BRANCH   1   6
ATOM      3  N   UNL     1       7.474   5.219  15.132  0.00  0.00    +0.000 NA
ATOM      4  C   UNL     1       6.529   4.697  15.827  0.00  0.00    +0.000 C 
ATOM      5  N   UNL     1       6.165   3.336  15.627  0.00  0.00    +0.000 N 
ATOM      6  N   UNL     1       5.877   5.477  16.821  0.00  0.00    +0.000 N 
ATOM      7  H   UNL     1       7.976   4.674  14.412  0.00  0.00    +0.000 HD
ATOM      8  H   UNL     1       6.654   2.756  14.930  0.00  0.00    +0.000 HD
ATOM      9  H   UNL     1       5.416   2.896  16.184  0.00  0.00    +0.000 HD
ATOM     10  H   UNL     1       6.183   6.447  16.994  0.00  0.00    +0.000 HD
ENDBRANCH   1   6
BRANCH   2  11
ATOM     11  C   UNL     1       3.568   4.573  19.558  0.00  0.00    +0.000 A 
ATOM     12  C   UNL     1       2.386   5.276  19.881  0.00  0.00    +0.000 A 
ATOM     13  C   UNL     1       1.350   4.661  20.580  0.00  0.00    +0.000 A 
ATOM     14  C   UNL     1       1.465   3.330  20.964  0.00  0.00    +0.000 A 
ATOM     15  C   UNL     1       2.622   2.611  20.660  0.00  0.00    +0.000 A 
ATOM     16  C   UNL     1       3.685   3.213  19.964  0.00  0.00    +0.000 A 
BRANCH  16  17
ATOM     17  N   UNL     1       4.833   2.425  19.678  0.00  0.00    +0.000 N 
ATOM     18  H   UNL     1       5.325   2.533  18.778  0.00  0.00    +0.000 HD
ATOM     19  H   UNL     1       5.214   1.734  20.335  0.00  0.00    +0.000 HD
ENDBRANCH  16  17
ENDBRANCH   2  11
TORSDOF 3
ENDMDL
MODEL 7
REMARK VINA RESULT:      -6.2      1.531      1.736
REMARK  Name = 
REMARK  3 active torsions:
REMARK  status: ('A' for Active; 'I' for Inactive)
REMARK    1  A    between atoms: N_4  and  N_5
REMARK    2  A    between atoms: C_6  and  C_7
REMARK    3  A    between atoms: C_12  and  N_13
REMARK                            x       y       z     vdW  Elec       q    Type
REMARK                         _______ _______ _______ _____ _____    ______ ____
ROOT
ATOM      1  N   UNL     1       5.112   4.010  17.461  0.00  0.00    +0.000 NA
ATOM      2  C   UNL     1       3.855   3.865  17.227  0.00  0.00    +0.000 C 
ENDROOT
BRANCH   1   6
ATOM      3  N   UNL     1       7.471   5.307  15.103  0.00  0.00    +0.000 NA
ATOM      4  C   UNL     1       6.606   5.280  16.052  0.00  0.00    +0.000 C 
ATOM      5  N   UNL     1       6.172   6.492  16.656  0.00  0.00    +0.000 N 
ATOM      6  N   UNL     1       6.060   4.034  16.467  0.00  0.00    +0.000 N 
ATOM      7  H   UNL     1       7.876   6.197  14.771  0.00  0.00    +0.000 HD
ATOM      8  H   UNL     1       6.541   7.401  16.339  0.00  0.00    +0.000 HD
ATOM      9  H   UNL     1       5.469   6.492  17.411  0.00  0.00    +0.000 HD
ATOM     10  H   UNL     1       6.343   3.165  15.989  0.00  0.00    +0.000 HD
ENDBRANCH   1   6
BRANCH   2  11
ATOM     11  C   UNL     1       2.894   3.900  18.364  0.00  0.00    +0.000 A 
ATOM     12  C   UNL     1       1.802   3.003  18.351  0.00  0.00    +0.000 A 
ATOM     13  C   UNL     1       0.882   2.973  19.397  0.00  0.00    +0.000 A 
ATOM     14  C   UNL     1       1.035   3.828  20.482  0.00  0.00    +0.000 A 
ATOM     15  C   UNL     1       2.103   4.726  20.520  0.00  0.00    +0.000 A 
ATOM     16  C   UNL     1       3.039   4.781  19.472  0.00  0.00    +0.000 A 
BRANCH  16  17
ATOM     17  N   UNL     1       4.109   5.712  19.576  0.00  0.00    +0.000 N 
ATOM     18  H   UNL     1       4.700   5.915  18.755  0.00  0.00    +0.000 HD
ATOM     19  H   UNL     1       4.334   6.211  20.444  0.00  0.00    +0.000 HD
ENDBRANCH  16  17
ENDBRANCH   2  11
TORSDOF 3
ENDMDL
MODEL 8
REMARK VINA RESULT:      -6.1      1.998      2.168
REMARK  Name = 
REMARK  3 active torsions:
REMARK  status: ('A' for Active; 'I' for Inactive)
REMARK    1  A    between atoms: N_4  and  N_5
REMARK    2  A    between atoms: C_6  and  C_7
REMARK    3  A    between atoms: C_12  and  N_13
REMARK                            x       y       z     vdW  Elec       q    Type
REMARK                         _______ _______ _______ _____ _____    ______ ____
ROOT
ATOM      1  N   UNL     1       4.577   5.650  18.117  0.00  0.00    +0.000 NA
ATOM      2  C   UNL     1       3.392   5.415  17.675  0.00  0.00    +0.000 C 
ENDROOT
BRANCH   1   6
ATOM      3  N   UNL     1       7.720   6.731  16.791  0.00  0.00    +0.000 NA
ATOM      4  C   UNL     1       6.856   6.006  17.405  0.00  0.00    +0.000 C 
ATOM      5  N   UNL     1       7.270   4.825  18.083  0.00  0.00    +0.000 N 
ATOM      6  N   UNL     1       5.494   6.411  17.433  0.00  0.00    +0.000 N 
ATOM      7  H   UNL     1       8.719   6.471  16.764  0.00  0.00    +0.000 HD
ATOM      8  H   UNL     1       8.261   4.543  18.092  0.00  0.00    +0.000 HD
ATOM      9  H   UNL     1       6.593   4.236  18.592  0.00  0.00    +0.000 HD
ATOM     10  H   UNL     1       5.212   7.295  16.982  0.00  0.00    +0.000 HD
ENDBRANCH   1   6
BRANCH   2  11
ATOM     11  C   UNL     1       2.449   4.618  18.508  0.00  0.00    +0.000 A 
ATOM     12  C   UNL     1       1.923   3.421  17.973  0.00  0.00    +0.000 A 
ATOM     13  C   UNL     1       1.054   2.622  18.712  0.00  0.00    +0.000 A 
ATOM     14  C   UNL     1       0.698   2.992  20.003  0.00  0.00    +0.000 A 
ATOM     15  C   UNL     1       1.200   4.170  20.557  0.00  0.00    +0.000 A 
ATOM     16  C   UNL     1       2.071   4.999  19.827  0.00  0.00    +0.000 A 
BRANCH  16  17
ATOM     17  N   UNL     1       2.554   6.182  20.451  0.00  0.00    +0.000 N 
ATOM     18  H   UNL     1       3.458   6.586  20.164  0.00  0.00    +0.000 HD
ATOM     19  H   UNL     1       2.040   6.672  21.191  0.00  0.00    +0.000 HD
ENDBRANCH  16  17
ENDBRANCH   2  11
TORSDOF 3
ENDMDL
MODEL 9
REMARK VINA RESULT:      -6.1      1.550      1.896
REMARK  Name = 
REMARK  3 active torsions:
REMARK  status: ('A' for Active; 'I' for Inactive)
REMARK    1  A    between atoms: N_4  and  N_5
REMARK    2  A    between atoms: C_6  and  C_7
REMARK    3  A    between atoms: C_12  and  N_13
REMARK                            x       y       z     vdW  Elec       q    Type
REMARK                         _______ _______ _______ _____ _____    ______ ____
ROOT
ATOM      1  N   UNL     1       5.571   3.563  15.951  0.00  0.00    +0.000 NA
ATOM      2  C   UNL     1       4.421   4.030  16.288  0.00  0.00    +0.000 C 
ENDROOT
BRANCH   1   6
ATOM      3  N   UNL     1       7.782   5.499  13.908  0.00  0.00    +0.000 NA
ATOM      4  C   UNL     1       7.163   5.079  14.952  0.00  0.00    +0.000 C 
ATOM      5  N   UNL     1       7.358   5.725  16.205  0.00  0.00    +0.000 N 
ATOM      6  N   UNL     1       6.256   3.990  14.839  0.00  0.00    +0.000 N 
ATOM      7  H   UNL     1       8.437   6.295  13.956  0.00  0.00    +0.000 HD
ATOM      8  H   UNL     1       7.991   6.535  16.287  0.00  0.00    +0.000 HD
ATOM      9  H   UNL     1       6.861   5.411  17.052  0.00  0.00    +0.000 HD
ATOM     10  H   UNL     1       6.082   3.561  13.918  0.00  0.00    +0.000 HD
ENDBRANCH   1   6
BRANCH   2  11
ATOM     11  C   UNL     1       3.775   3.542  17.539  0.00  0.00    +0.000 A 
ATOM     12  C   UNL     1       2.424   3.132  17.483  0.00  0.00    +0.000 A 
ATOM     13  C   UNL     1       1.772   2.646  18.613  0.00  0.00    +0.000 A 
ATOM     14  C   UNL     1       2.453   2.547  19.820  0.00  0.00    +0.000 A 
ATOM     15  C   UNL     1       3.788   2.946  19.905  0.00  0.00    +0.000 A 
ATOM     16  C   UNL     1       4.465   3.450  18.780  0.00  0.00    +0.000 A 
BRANCH  16  17
ATOM     17  N   UNL     1       5.826   3.832  18.931  0.00  0.00    +0.000 N 
ATOM     18  H   UNL     1       6.564   3.336  18.407  0.00  0.00    +0.000 HD
ATOM     19  H   UNL     1       6.128   4.594  19.547  0.00  0.00    +0.000 HD
ENDBRANCH  16  17
ENDBRANCH   2  11
TORSDOF 3
ENDMDL
