MODEL 1
REMARK VINA RESULT:      -8.5      0.000      0.000
REMARK  Name = 
REMARK  6 active torsions:
REMARK  status: ('A' for Active; 'I' for Inactive)
REMARK    1  A    between atoms: C_1  and  C_2
REMARK    2  A    between atoms: N_4  and  S_5
REMARK    3  A    between atoms: S_5  and  C_8
REMARK    4  A    between atoms: C_11  and  N_12
REMARK    5  A    between atoms: C_13  and  C_15
REMARK    6  A    between atoms: C_24  and  C_25
REMARK                            x       y       z     vdW  Elec       q    Type
REMARK                         _______ _______ _______ _____ _____    ______ ____
ROOT
ATOM      1  N   UNL     1       2.177   7.816  19.589  0.00  0.00    +0.000 N 
ATOM      2  C   UNL     1       2.308   6.461  19.863  0.00  0.00    +0.000 C 
ATOM      3  O   UNL     1       1.665   5.852  20.712  0.00  0.00    +0.000 OA
ATOM      4  H   UNL     1       2.674   8.144  18.767  0.00  0.00    +0.000 HD
ENDROOT
BRANCH   2   5
ATOM      5  C   UNL     1       3.246   5.772  18.993  0.00  0.00    +0.000 A 
ATOM      6  O   UNL     1       4.587   5.969  19.174  0.00  0.00    +0.000 OA
ATOM      7  C   UNL     1       5.232   5.280  18.191  0.00  0.00    +0.000 A 
ATOM      8  C   UNL     1       6.612   5.165  18.031  0.00  0.00    +0.000 A 
ATOM      9 CL   UNL     1       7.707   5.784  19.198  0.00  0.00    +0.000 Cl
ATOM     10  C   UNL     1       7.072   4.498  16.894  0.00  0.00    +0.000 A 
ATOM     11  C   UNL     1       6.173   3.976  15.960  0.00  0.00    +0.000 A 
ATOM     12  C   UNL     1       4.789   4.043  16.178  0.00  0.00    +0.000 A 
ATOM     13  C   UNL     1       4.309   4.688  17.336  0.00  0.00    +0.000 A 
ATOM     14  C   UNL     1       3.034   4.881  17.947  0.00  0.00    +0.000 A 
ATOM     15  C   UNL     1       1.741   4.253  17.568  0.00  0.00    +0.000 C 
ENDBRANCH   2   5
BRANCH   1  19
ATOM     16  C   UNL     1      -0.269  10.533  21.694  0.00  0.00    +0.000 A 
ATOM     17  C   UNL     1      -0.223  10.591  20.303  0.00  0.00    +0.000 A 
ATOM     18  C   UNL     1       0.572   9.690  19.596  0.00  0.00    +0.000 A 
ATOM     19  C   UNL     1       1.342   8.732  20.267  0.00  0.00    +0.000 A 
ATOM     20  C   UNL     1       1.286   8.678  21.667  0.00  0.00    +0.000 A 
ATOM     21  C   UNL     1       0.492   9.585  22.385  0.00  0.00    +0.000 A 
BRANCH  16  22
ATOM     22  S   UNL     1      -1.281  11.692  22.576  0.00  0.00    +0.000 S 
ATOM     23  O   UNL     1      -0.475  12.818  22.988  0.00  0.00    +0.000 OA
ATOM     24  O   UNL     1      -2.061  10.943  23.541  0.00  0.00    +0.000 OA
BRANCH  22  28
ATOM     25  C   UNL     1      -4.272  13.343  20.431  0.00  0.00    +0.000 C 
ATOM     26  C   UNL     1      -3.468  13.022  21.658  0.00  0.00    +0.000 C 
ATOM     27  O   UNL     1      -3.740  13.493  22.751  0.00  0.00    +0.000 OA
ATOM     28  N   UNL     1      -2.373  12.180  21.424  0.00  0.00    +0.000 N 
ATOM     29  H   UNL     1      -2.158  11.833  20.497  0.00  0.00    +0.000 HD
ENDBRANCH  22  28
ENDBRANCH  16  22
ENDBRANCH   1  19
TORSDOF 4
ENDMDL
MODEL 2
REMARK VINA RESULT:      -8.2      1.301      1.767
REMARK  Name = 
REMARK  6 active torsions:
REMARK  status: ('A' for Active; 'I' for Inactive)
REMARK    1  A    between atoms: C_1  and  C_2
REMARK    2  A    between atoms: N_4  and  S_5
REMARK    3  A    between atoms: S_5  and  C_8
REMARK    4  A    between atoms: C_11  and  N_12
REMARK    5  A    between atoms: C_13  and  C_15
REMARK    6  A    between atoms: C_24  and  C_25
REMARK                            x       y       z     vdW  Elec       q    Type
REMARK                         _______ _______ _______ _____ _____    ______ ____
ROOT
ATOM      1  N   UNL     1       2.147   7.884  19.503  0.00  0.00    +0.000 N 
ATOM      2  C   UNL     1       2.297   6.543  19.830  0.00  0.00    +0.000 C 
ATOM      3  O   UNL     1       1.667   5.960  20.708  0.00  0.00    +0.000 OA
ATOM      4  H   UNL     1       2.634   8.186  18.666  0.00  0.00    +0.000 HD
ENDROOT
BRANCH   2   5
ATOM      5  C   UNL     1       3.238   5.832  18.982  0.00  0.00    +0.000 A 
ATOM      6  O   UNL     1       4.579   6.026  19.169  0.00  0.00    +0.000 OA
ATOM      7  C   UNL     1       5.228   5.315  18.206  0.00  0.00    +0.000 A 
ATOM      8  C   UNL     1       6.609   5.190  18.060  0.00  0.00    +0.000 A 
ATOM      9 CL   UNL     1       7.698   5.828  19.222  0.00  0.00    +0.000 Cl
ATOM     10  C   UNL     1       7.075   4.497  16.940  0.00  0.00    +0.000 A 
ATOM     11  C   UNL     1       6.180   3.960  16.010  0.00  0.00    +0.000 A 
ATOM     12  C   UNL     1       4.795   4.039  16.215  0.00  0.00    +0.000 A 
ATOM     13  C   UNL     1       4.310   4.709  17.356  0.00  0.00    +0.000 A 
ATOM     14  C   UNL     1       3.031   4.921  17.953  0.00  0.00    +0.000 A 
ATOM     15  C   UNL     1       1.737   4.291  17.577  0.00  0.00    +0.000 C 
ENDBRANCH   2   5
BRANCH   1  19
ATOM     16  C   UNL     1      -0.413  10.681  21.353  0.00  0.00    +0.000 A 
ATOM     17  C   UNL     1       0.291   9.774  22.141  0.00  0.00    +0.000 A 
ATOM     18  C   UNL     1       1.149   8.854  21.542  0.00  0.00    +0.000 A 
ATOM     19  C   UNL     1       1.304   8.816  20.150  0.00  0.00    +0.000 A 
ATOM     20  C   UNL     1       0.595   9.736  19.366  0.00  0.00    +0.000 A 
ATOM     21  C   UNL     1      -0.274  10.662  19.962  0.00  0.00    +0.000 A 
BRANCH  16  22
ATOM     22  S   UNL     1      -1.506  11.839  22.133  0.00  0.00    +0.000 S 
ATOM     23  O   UNL     1      -1.876  11.348  23.440  0.00  0.00    +0.000 OA
ATOM     24  O   UNL     1      -2.519  12.203  21.162  0.00  0.00    +0.000 OA
BRANCH  22  28
ATOM     25  C   UNL     1       0.092  15.462  22.904  0.00  0.00    +0.000 C 
ATOM     26  C   UNL     1      -0.981  14.415  22.832  0.00  0.00    +0.000 C 
ATOM     27  O   UNL     1      -2.112  14.617  23.245  0.00  0.00    +0.000 OA
ATOM     28  N   UNL     1      -0.557  13.192  22.294  0.00  0.00    +0.000 N 
ATOM     29  H   UNL     1       0.399  13.048  21.990  0.00  0.00    +0.000 HD
ENDBRANCH  22  28
ENDBRANCH  16  22
ENDBRANCH   1  19
TORSDOF 4
ENDMDL
MODEL 3
REMARK VINA RESULT:      -8.1      1.736      2.273
REMARK  Name = 
REMARK  6 active torsions:
REMARK  status: ('A' for Active; 'I' for Inactive)
REMARK    1  A    between atoms: C_1  and  C_2
REMARK    2  A    between atoms: N_4  and  S_5
REMARK    3  A    between atoms: S_5  and  C_8
REMARK    4  A    between atoms: C_11  and  N_12
REMARK    5  A    between atoms: C_13  and  C_15
REMARK    6  A    between atoms: C_24  and  C_25
REMARK                            x       y       z     vdW  Elec       q    Type
REMARK                         _______ _______ _______ _____ _____    ______ ____
ROOT
ATOM      1  N   UNL     1       1.925   8.512  18.217  0.00  0.00    +0.000 N 
ATOM      2  C   UNL     1       2.362   7.412  18.944  0.00  0.00    +0.000 C 
ATOM      3  O   UNL     1       1.946   7.094  20.054  0.00  0.00    +0.000 OA
ATOM      4  H   UNL     1       2.260   8.563  17.260  0.00  0.00    +0.000 HD
ENDROOT
BRANCH   2   5
ATOM      5  C   UNL     1       3.335   6.592  18.243  0.00  0.00    +0.000 A 
ATOM      6  O   UNL     1       4.596   7.083  18.041  0.00  0.00    +0.000 OA
ATOM      7  C   UNL     1       5.274   6.162  17.301  0.00  0.00    +0.000 A 
ATOM      8  C   UNL     1       6.611   6.236  16.912  0.00  0.00    +0.000 A 
ATOM      9 CL   UNL     1       7.644   7.485  17.474  0.00  0.00    +0.000 Cl
ATOM     10  C   UNL     1       7.088   5.233  16.065  0.00  0.00    +0.000 A 
ATOM     11  C   UNL     1       6.246   4.206  15.630  0.00  0.00    +0.000 A 
ATOM     12  C   UNL     1       4.925   4.114  16.091  0.00  0.00    +0.000 A 
ATOM     13  C   UNL     1       4.437   5.103  16.969  0.00  0.00    +0.000 A 
ATOM     14  C   UNL     1       3.234   5.313  17.709  0.00  0.00    +0.000 A 
ATOM     15  C   UNL     1       2.105   4.363  17.895  0.00  0.00    +0.000 C 
ENDBRANCH   2   5
BRANCH   1  19
ATOM     16  C   UNL     1      -0.942  11.360  19.427  0.00  0.00    +0.000 A 
ATOM     17  C   UNL     1       0.176  11.135  20.225  0.00  0.00    +0.000 A 
ATOM     18  C   UNL     1       1.137  10.206  19.829  0.00  0.00    +0.000 A 
ATOM     19  C   UNL     1       0.986   9.478  18.642  0.00  0.00    +0.000 A 
ATOM     20  C   UNL     1      -0.141   9.714  17.843  0.00  0.00    +0.000 A 
ATOM     21  C   UNL     1      -1.114  10.644  18.237  0.00  0.00    +0.000 A 
BRANCH  16  22
ATOM     22  S   UNL     1      -2.157  12.541  19.951  0.00  0.00    +0.000 S 
ATOM     23  O   UNL     1      -3.402  12.288  19.264  0.00  0.00    +0.000 OA
ATOM     24  O   UNL     1      -1.536  13.851  19.909  0.00  0.00    +0.000 OA
BRANCH  22  28
ATOM     25  C   UNL     1      -3.237  12.278  23.829  0.00  0.00    +0.000 C 
ATOM     26  C   UNL     1      -3.258  12.806  22.424  0.00  0.00    +0.000 C 
ATOM     27  O   UNL     1      -4.047  13.667  22.068  0.00  0.00    +0.000 OA
ATOM     28  N   UNL     1      -2.331  12.198  21.567  0.00  0.00    +0.000 N 
ATOM     29  H   UNL     1      -1.712  11.463  21.888  0.00  0.00    +0.000 HD
ENDBRANCH  22  28
ENDBRANCH  16  22
ENDBRANCH   1  19
TORSDOF 4
ENDMDL
MODEL 4
REMARK VINA RESULT:      -8.0      4.647     10.172
REMARK  Name = 
REMARK  6 active torsions:
REMARK  status: ('A' for Active; 'I' for Inactive)
REMARK    1  A    between atoms: C_1  and  C_2
REMARK    2  A    between atoms: N_4  and  S_5
REMARK    3  A    between atoms: S_5  and  C_8
REMARK    4  A    between atoms: C_11  and  N_12
REMARK    5  A    between atoms: C_13  and  C_15
REMARK    6  A    between atoms: C_24  and  C_25
REMARK                            x       y       z     vdW  Elec       q    Type
REMARK                         _______ _______ _______ _____ _____    ______ ____
ROOT
ATOM      1  N   UNL     1       2.556   7.479  18.680  0.00  0.00    +0.000 N 
ATOM      2  C   UNL     1       1.903   8.674  18.404  0.00  0.00    +0.000 C 
ATOM      3  O   UNL     1       1.931   9.256  17.324  0.00  0.00    +0.000 OA
ATOM      4  H   UNL     1       2.324   7.051  19.571  0.00  0.00    +0.000 HD
ENDROOT
BRANCH   2   5
ATOM      5  C   UNL     1       1.096   9.171  19.505  0.00  0.00    +0.000 A 
ATOM      6  O   UNL     1       0.409  10.343  19.348  0.00  0.00    +0.000 OA
ATOM      7  C   UNL     1      -0.194  10.620  20.539  0.00  0.00    +0.000 A 
ATOM      8  C   UNL     1      -1.038  11.697  20.808  0.00  0.00    +0.000 A 
ATOM      9 CL   UNL     1      -1.557  12.764  19.569  0.00  0.00    +0.000 Cl
ATOM     10  C   UNL     1      -1.470  11.858  22.126  0.00  0.00    +0.000 A 
ATOM     11  C   UNL     1      -1.062  10.971  23.125  0.00  0.00    +0.000 A 
ATOM     12  C   UNL     1      -0.269   9.855  22.816  0.00  0.00    +0.000 A 
ATOM     13  C   UNL     1       0.152   9.662  21.485  0.00  0.00    +0.000 A 
ATOM     14  C   UNL     1       0.858   8.649  20.771  0.00  0.00    +0.000 A 
ATOM     15  C   UNL     1       1.251   7.300  21.259  0.00  0.00    +0.000 C 
ENDBRANCH   2   5
BRANCH   1  19
ATOM     16  C   UNL     1       5.145   5.420  16.063  0.00  0.00    +0.000 A 
ATOM     17  C   UNL     1       4.176   4.708  16.765  0.00  0.00    +0.000 A 
ATOM     18  C   UNL     1       3.307   5.379  17.623  0.00  0.00    +0.000 A 
ATOM     19  C   UNL     1       3.403   6.765  17.804  0.00  0.00    +0.000 A 
ATOM     20  C   UNL     1       4.379   7.474  17.089  0.00  0.00    +0.000 A 
ATOM     21  C   UNL     1       5.260   6.804  16.227  0.00  0.00    +0.000 A 
BRANCH  16  22
ATOM     22  S   UNL     1       6.247   4.547  14.982  0.00  0.00    +0.000 S 
ATOM     23  O   UNL     1       6.761   3.379  15.659  0.00  0.00    +0.000 OA
ATOM     24  O   UNL     1       7.146   5.523  14.396  0.00  0.00    +0.000 OA
BRANCH  22  28
ATOM     25  C   UNL     1       4.570   3.155  11.587  0.00  0.00    +0.000 C 
ATOM     26  C   UNL     1       5.682   3.538  12.520  0.00  0.00    +0.000 C 
ATOM     27  O   UNL     1       6.856   3.353  12.238  0.00  0.00    +0.000 OA
ATOM     28  N   UNL     1       5.251   4.078  13.739  0.00  0.00    +0.000 N 
ATOM     29  H   UNL     1       4.266   4.187  13.953  0.00  0.00    +0.000 HD
ENDBRANCH  22  28
ENDBRANCH  16  22
ENDBRANCH   1  19
TORSDOF 4
ENDMDL
MODEL 5
REMARK VINA RESULT:      -8.0      2.040      2.490
REMARK  Name = 
REMARK  6 active torsions:
REMARK  status: ('A' for Active; 'I' for Inactive)
REMARK    1  A    between atoms: C_1  and  C_2
REMARK    2  A    between atoms: N_4  and  S_5
REMARK    3  A    between atoms: S_5  and  C_8
REMARK    4  A    between atoms: C_11  and  N_12
REMARK    5  A    between atoms: C_13  and  C_15
REMARK    6  A    between atoms: C_24  and  C_25
REMARK                            x       y       z     vdW  Elec       q    Type
REMARK                         _______ _______ _______ _____ _____    ______ ____
ROOT
ATOM      1  N   UNL     1       1.970   8.462  18.308  0.00  0.00    +0.000 N 
ATOM      2  C   UNL     1       2.374   7.324  18.994  0.00  0.00    +0.000 C 
ATOM      3  O   UNL     1       1.942   6.973  20.088  0.00  0.00    +0.000 OA
ATOM      4  H   UNL     1       2.313   8.542  17.356  0.00  0.00    +0.000 HD
ENDROOT
BRANCH   2   5
ATOM      5  C   UNL     1       3.331   6.507  18.267  0.00  0.00    +0.000 A 
ATOM      6  O   UNL     1       4.593   6.990  18.059  0.00  0.00    +0.000 OA
ATOM      7  C   UNL     1       5.254   6.075  17.295  0.00  0.00    +0.000 A 
ATOM      8  C   UNL     1       6.587   6.144  16.891  0.00  0.00    +0.000 A 
ATOM      9 CL   UNL     1       7.638   7.373  17.463  0.00  0.00    +0.000 Cl
ATOM     10  C   UNL     1       7.044   5.152  16.021  0.00  0.00    +0.000 A 
ATOM     11  C   UNL     1       6.188   4.140  15.579  0.00  0.00    +0.000 A 
ATOM     12  C   UNL     1       4.871   4.053  16.054  0.00  0.00    +0.000 A 
ATOM     13  C   UNL     1       4.403   5.030  16.955  0.00  0.00    +0.000 A 
ATOM     14  C   UNL     1       3.211   5.238  17.712  0.00  0.00    +0.000 A 
ATOM     15  C   UNL     1       2.075   4.296  17.895  0.00  0.00    +0.000 C 
ENDBRANCH   2   5
BRANCH   1  19
ATOM     16  C   UNL     1      -0.829  11.339  19.605  0.00  0.00    +0.000 A 
ATOM     17  C   UNL     1       0.217  10.976  20.449  0.00  0.00    +0.000 A 
ATOM     18  C   UNL     1       1.156  10.036  20.025  0.00  0.00    +0.000 A 
ATOM     19  C   UNL     1       1.053   9.434  18.765  0.00  0.00    +0.000 A 
ATOM     20  C   UNL     1      -0.003   9.809  17.921  0.00  0.00    +0.000 A 
ATOM     21  C   UNL     1      -0.953  10.751  18.342  0.00  0.00    +0.000 A 
BRANCH  16  22
ATOM     22  S   UNL     1      -2.018  12.531  20.164  0.00  0.00    +0.000 S 
ATOM     23  O   UNL     1      -1.871  12.726  21.588  0.00  0.00    +0.000 OA
ATOM     24  O   UNL     1      -3.300  12.169  19.591  0.00  0.00    +0.000 OA
BRANCH  22  28
ATOM     25  C   UNL     1      -0.224  15.856  18.750  0.00  0.00    +0.000 C 
ATOM     26  C   UNL     1      -0.430  14.681  19.662  0.00  0.00    +0.000 C 
ATOM     27  O   UNL     1       0.352  14.415  20.562  0.00  0.00    +0.000 OA
ATOM     28  N   UNL     1      -1.562  13.911  19.361  0.00  0.00    +0.000 N 
ATOM     29  H   UNL     1      -2.172  14.143  18.586  0.00  0.00    +0.000 HD
ENDBRANCH  22  28
ENDBRANCH  16  22
ENDBRANCH   1  19
TORSDOF 4
ENDMDL
MODEL 6
REMARK VINA RESULT:      -8.0      4.466      9.737
REMARK  Name = 
REMARK  6 active torsions:
REMARK  status: ('A' for Active; 'I' for Inactive)
REMARK    1  A    between atoms: C_1  and  C_2
REMARK    2  A    between atoms: N_4  and  S_5
REMARK    3  A    between atoms: S_5  and  C_8
REMARK    4  A    between atoms: C_11  and  N_12
REMARK    5  A    between atoms: C_13  and  C_15
REMARK    6  A    between atoms: C_24  and  C_25
REMARK                            x       y       z     vdW  Elec       q    Type
REMARK                         _______ _______ _______ _____ _____    ______ ____
ROOT
ATOM      1  N   UNL     1       1.167   8.301  18.289  0.00  0.00    +0.000 N 
ATOM      2  C   UNL     1       1.038   9.684  18.258  0.00  0.00    +0.000 C 
ATOM      3  O   UNL     1       1.974  10.474  18.184  0.00  0.00    +0.000 OA
ATOM      4  H   UNL     1       0.299   7.781  18.210  0.00  0.00    +0.000 HD
ENDROOT
BRANCH   2   5
ATOM      5  C   UNL     1      -0.339  10.146  18.249  0.00  0.00    +0.000 A 
ATOM      6  O   UNL     1      -1.080  10.007  17.108  0.00  0.00    +0.000 OA
ATOM      7  C   UNL     1      -2.292  10.584  17.340  0.00  0.00    +0.000 A 
ATOM      8  C   UNL     1      -3.372  10.622  16.459  0.00  0.00    +0.000 A 
ATOM      9 CL   UNL     1      -3.346   9.775  14.967  0.00  0.00    +0.000 Cl
ATOM     10  C   UNL     1      -4.493  11.357  16.851  0.00  0.00    +0.000 A 
ATOM     11  C   UNL     1      -4.515  12.025  18.078  0.00  0.00    +0.000 A 
ATOM     12  C   UNL     1      -3.444  11.914  18.977  0.00  0.00    +0.000 A 
ATOM     13  C   UNL     1      -2.317  11.153  18.608  0.00  0.00    +0.000 A 
ATOM     14  C   UNL     1      -1.111  10.733  19.245  0.00  0.00    +0.000 A 
ATOM     15  C   UNL     1      -0.747  10.870  20.681  0.00  0.00    +0.000 C 
ENDBRANCH   2   5
BRANCH   1  19
ATOM     16  C   UNL     1       4.740   6.062  18.388  0.00  0.00    +0.000 A 
ATOM     17  C   UNL     1       4.553   7.004  17.380  0.00  0.00    +0.000 A 
ATOM     18  C   UNL     1       3.382   7.759  17.346  0.00  0.00    +0.000 A 
ATOM     19  C   UNL     1       2.377   7.572  18.303  0.00  0.00    +0.000 A 
ATOM     20  C   UNL     1       2.577   6.624  19.316  0.00  0.00    +0.000 A 
ATOM     21  C   UNL     1       3.751   5.857  19.355  0.00  0.00    +0.000 A 
BRANCH  16  22
ATOM     22  S   UNL     1       6.234   5.106  18.412  0.00  0.00    +0.000 S 
ATOM     23  O   UNL     1       5.999   3.861  19.107  0.00  0.00    +0.000 OA
ATOM     24  O   UNL     1       7.310   5.990  18.814  0.00  0.00    +0.000 OA
BRANCH  22  28
ATOM     25  C   UNL     1       6.140   3.932  14.554  0.00  0.00    +0.000 C 
ATOM     26  C   UNL     1       5.694   4.001  15.986  0.00  0.00    +0.000 C 
ATOM     27  O   UNL     1       4.689   3.431  16.380  0.00  0.00    +0.000 OA
ATOM     28  N   UNL     1       6.504   4.803  16.802  0.00  0.00    +0.000 N 
ATOM     29  H   UNL     1       7.314   5.289  16.434  0.00  0.00    +0.000 HD
ENDBRANCH  22  28
ENDBRANCH  16  22
ENDBRANCH   1  19
TORSDOF 4
ENDMDL
MODEL 7
REMARK VINA RESULT:      -8.0      1.320      1.320
REMARK  Name = 
REMARK  6 active torsions:
REMARK  status: ('A' for Active; 'I' for Inactive)
REMARK    1  A    between atoms: C_1  and  C_2
REMARK    2  A    between atoms: N_4  and  S_5
REMARK    3  A    between atoms: S_5  and  C_8
REMARK    4  A    between atoms: C_11  and  N_12
REMARK    5  A    between atoms: C_13  and  C_15
REMARK    6  A    between atoms: C_24  and  C_25
REMARK                            x       y       z     vdW  Elec       q    Type
REMARK                         _______ _______ _______ _____ _____    ______ ____
ROOT
ATOM      1  N   UNL     1       1.991   8.150  19.748  0.00  0.00    +0.000 N 
ATOM      2  C   UNL     1       2.168   8.056  18.373  0.00  0.00    +0.000 C 
ATOM      3  O   UNL     1       1.627   8.783  17.545  0.00  0.00    +0.000 OA
ATOM      4  H   UNL     1       2.612   7.573  20.306  0.00  0.00    +0.000 HD
ENDROOT
BRANCH   2   5
ATOM      5  C   UNL     1       3.128   7.043  17.970  0.00  0.00    +0.000 A 
ATOM      6  O   UNL     1       4.432   7.405  17.774  0.00  0.00    +0.000 OA
ATOM      7  C   UNL     1       5.095   6.300  17.331  0.00  0.00    +0.000 A 
ATOM      8  C   UNL     1       6.459   6.208  17.056  0.00  0.00    +0.000 A 
ATOM      9 CL   UNL     1       7.535   7.498  17.403  0.00  0.00    +0.000 Cl
ATOM     10  C   UNL     1       6.923   5.010  16.510  0.00  0.00    +0.000 A 
ATOM     11  C   UNL     1       6.044   3.955  16.251  0.00  0.00    +0.000 A 
ATOM     12  C   UNL     1       4.688   4.046  16.601  0.00  0.00    +0.000 A 
ATOM     13  C   UNL     1       4.210   5.238  17.180  0.00  0.00    +0.000 A 
ATOM     14  C   UNL     1       2.974   5.681  17.740  0.00  0.00    +0.000 A 
ATOM     15  C   UNL     1       1.768   4.864  18.040  0.00  0.00    +0.000 C 
ENDBRANCH   2   5
BRANCH   1  19
ATOM     16  C   UNL     1      -0.583  10.754  21.842  0.00  0.00    +0.000 A 
ATOM     17  C   UNL     1       0.058  11.207  20.691  0.00  0.00    +0.000 A 
ATOM     18  C   UNL     1       0.901  10.351  19.984  0.00  0.00    +0.000 A 
ATOM     19  C   UNL     1       1.128   9.040  20.423  0.00  0.00    +0.000 A 
ATOM     20  C   UNL     1       0.475   8.593  21.580  0.00  0.00    +0.000 A 
ATOM     21  C   UNL     1      -0.371   9.450  22.300  0.00  0.00    +0.000 A 
BRANCH  16  22
ATOM     22  S   UNL     1      -1.645  11.860  22.732  0.00  0.00    +0.000 S 
ATOM     23  O   UNL     1      -0.864  12.948  23.274  0.00  0.00    +0.000 OA
ATOM     24  O   UNL     1      -2.492  11.054  23.591  0.00  0.00    +0.000 OA
BRANCH  22  28
ATOM     25  C   UNL     1      -4.496  13.659  20.517  0.00  0.00    +0.000 C 
ATOM     26  C   UNL     1      -3.782  13.240  21.769  0.00  0.00    +0.000 C 
ATOM     27  O   UNL     1      -4.144  13.608  22.875  0.00  0.00    +0.000 OA
ATOM     28  N   UNL     1      -2.656  12.435  21.547  0.00  0.00    +0.000 N 
ATOM     29  H   UNL     1      -2.365  12.174  20.612  0.00  0.00    +0.000 HD
ENDBRANCH  22  28
ENDBRANCH  16  22
ENDBRANCH   1  19
TORSDOF 4
ENDMDL
MODEL 8
REMARK VINA RESULT:      -7.9      3.995      9.723
REMARK  Name = 
REMARK  6 active torsions:
REMARK  status: ('A' for Active; 'I' for Inactive)
REMARK    1  A    between atoms: C_1  and  C_2
REMARK    2  A    between atoms: N_4  and  S_5
REMARK    3  A    between atoms: S_5  and  C_8
REMARK    4  A    between atoms: C_11  and  N_12
REMARK    5  A    between atoms: C_13  and  C_15
REMARK    6  A    between atoms: C_24  and  C_25
REMARK                            x       y       z     vdW  Elec       q    Type
REMARK                         _______ _______ _______ _____ _____    ______ ____
ROOT
ATOM      1  N   UNL     1       1.408   8.579  19.198  0.00  0.00    +0.000 N 
ATOM      2  C   UNL     1       1.294   9.719  18.412  0.00  0.00    +0.000 C 
ATOM      3  O   UNL     1       1.960   9.949  17.407  0.00  0.00    +0.000 OA
ATOM      4  H   UNL     1       0.695   8.468  19.911  0.00  0.00    +0.000 HD
ENDROOT
BRANCH   2   5
ATOM      5  C   UNL     1       0.241  10.624  18.839  0.00  0.00    +0.000 A 
ATOM      6  O   UNL     1       0.517  11.557  19.802  0.00  0.00    +0.000 OA
ATOM      7  C   UNL     1      -0.646  12.214  20.071  0.00  0.00    +0.000 A 
ATOM      8  C   UNL     1      -0.807  13.280  20.955  0.00  0.00    +0.000 A 
ATOM      9 CL   UNL     1       0.535  14.018  21.729  0.00  0.00    +0.000 Cl
ATOM     10  C   UNL     1      -2.106  13.747  21.166  0.00  0.00    +0.000 A 
ATOM     11  C   UNL     1      -3.192  13.156  20.514  0.00  0.00    +0.000 A 
ATOM     12  C   UNL     1      -2.997  12.130  19.577  0.00  0.00    +0.000 A 
ATOM     13  C   UNL     1      -1.688  11.668  19.331  0.00  0.00    +0.000 A 
ATOM     14  C   UNL     1      -1.080  10.747  18.426  0.00  0.00    +0.000 A 
ATOM     15  C   UNL     1      -1.711  10.064  17.265  0.00  0.00    +0.000 C 
ENDBRANCH   2   5
BRANCH   1  19
ATOM     16  C   UNL     1       4.130   5.391  18.729  0.00  0.00    +0.000 A 
ATOM     17  C   UNL     1       4.104   6.411  17.782  0.00  0.00    +0.000 A 
ATOM     18  C   UNL     1       3.218   7.476  17.934  0.00  0.00    +0.000 A 
ATOM     19  C   UNL     1       2.336   7.529  19.020  0.00  0.00    +0.000 A 
ATOM     20  C   UNL     1       2.373   6.499  19.971  0.00  0.00    +0.000 A 
ATOM     21  C   UNL     1       3.259   5.421  19.823  0.00  0.00    +0.000 A 
BRANCH  16  22
ATOM     22  S   UNL     1       5.259   4.040  18.515  0.00  0.00    +0.000 S 
ATOM     23  O   UNL     1       4.704   2.848  19.114  0.00  0.00    +0.000 OA
ATOM     24  O   UNL     1       6.579   4.513  18.886  0.00  0.00    +0.000 OA
BRANCH  22  28
ATOM     25  C   UNL     1       6.207   3.901  14.597  0.00  0.00    +0.000 C 
ATOM     26  C   UNL     1       6.402   4.208  16.053  0.00  0.00    +0.000 C 
ATOM     27  O   UNL     1       7.441   4.687  16.480  0.00  0.00    +0.000 OA
ATOM     28  N   UNL     1       5.314   3.862  16.865  0.00  0.00    +0.000 N 
ATOM     29  H   UNL     1       4.478   3.436  16.482  0.00  0.00    +0.000 HD
ENDBRANCH  22  28
ENDBRANCH  16  22
ENDBRANCH   1  19
TORSDOF 4
ENDMDL
MODEL 9
REMARK VINA RESULT:      -7.9      1.669      1.886
REMARK  Name = 
REMARK  6 active torsions:
REMARK  status: ('A' for Active; 'I' for Inactive)
REMARK    1  A    between atoms: C_1  and  C_2
REMARK    2  A    between atoms: N_4  and  S_5
REMARK    3  A    between atoms: S_5  and  C_8
REMARK    4  A    between atoms: C_11  and  N_12
REMARK    5  A    between atoms: C_13  and  C_15
REMARK    6  A    between atoms: C_24  and  C_25
REMARK                            x       y       z     vdW  Elec       q    Type
REMARK                         _______ _______ _______ _____ _____    ______ ____
ROOT
ATOM      1  N   UNL     1       1.926   8.444  18.231  0.00  0.00    +0.000 N 
ATOM      2  C   UNL     1       2.380   7.341  18.943  0.00  0.00    +0.000 C 
ATOM      3  O   UNL     1       1.984   7.014  20.058  0.00  0.00    +0.000 OA
ATOM      4  H   UNL     1       2.246   8.503  17.270  0.00  0.00    +0.000 HD
ENDROOT
BRANCH   2   5
ATOM      5  C   UNL     1       3.346   6.531  18.221  0.00  0.00    +0.000 A 
ATOM      6  O   UNL     1       4.608   7.020  18.023  0.00  0.00    +0.000 OA
ATOM      7  C   UNL     1       5.278   6.111  17.262  0.00  0.00    +0.000 A 
ATOM      8  C   UNL     1       6.614   6.187  16.868  0.00  0.00    +0.000 A 
ATOM      9 CL   UNL     1       7.655   7.420  17.450  0.00  0.00    +0.000 Cl
ATOM     10  C   UNL     1       7.082   5.199  15.998  0.00  0.00    +0.000 A 
ATOM     11  C   UNL     1       6.234   4.185  15.548  0.00  0.00    +0.000 A 
ATOM     12  C   UNL     1       4.914   4.090  16.013  0.00  0.00    +0.000 A 
ATOM     13  C   UNL     1       4.435   5.062  16.913  0.00  0.00    +0.000 A 
ATOM     14  C   UNL     1       3.237   5.263  17.663  0.00  0.00    +0.000 A 
ATOM     15  C   UNL     1       2.104   4.315  17.835  0.00  0.00    +0.000 C 
ENDBRANCH   2   5
BRANCH   1  19
ATOM     16  C   UNL     1      -0.808  11.338  19.625  0.00  0.00    +0.000 A 
ATOM     17  C   UNL     1      -1.042  10.709  18.405  0.00  0.00    +0.000 A 
ATOM     18  C   UNL     1      -0.153   9.741  17.941  0.00  0.00    +0.000 A 
ATOM     19  C   UNL     1       0.989   9.402  18.678  0.00  0.00    +0.000 A 
ATOM     20  C   UNL     1       1.214  10.038  19.906  0.00  0.00    +0.000 A 
ATOM     21  C   UNL     1       0.326  11.016  20.378  0.00  0.00    +0.000 A 
BRANCH  16  22
ATOM     22  S   UNL     1      -1.947  12.572  20.195  0.00  0.00    +0.000 S 
ATOM     23  O   UNL     1      -1.447  13.884  19.855  0.00  0.00    +0.000 OA
ATOM     24  O   UNL     1      -2.297  12.242  21.563  0.00  0.00    +0.000 OA
BRANCH  22  28
ATOM     25  C   UNL     1      -5.651  12.321  18.618  0.00  0.00    +0.000 C 
ATOM     26  C   UNL     1      -4.598  12.726  19.608  0.00  0.00    +0.000 C 
ATOM     27  O   UNL     1      -4.851  13.440  20.566  0.00  0.00    +0.000 OA
ATOM     28  N   UNL     1      -3.315  12.249  19.311  0.00  0.00    +0.000 N 
ATOM     29  H   UNL     1      -3.134  11.684  18.488  0.00  0.00    +0.000 HD
ENDBRANCH  22  28
ENDBRANCH  16  22
ENDBRANCH   1  19
TORSDOF 4
ENDMDL
