MODEL 1
REMARK VINA RESULT:      -7.9      0.000      0.000
REMARK  Name = 
REMARK  8 active torsions:
REMARK  status: ('A' for Active; 'I' for Inactive)
REMARK    1  A    between atoms: C_1  and  C_2
REMARK    2  A    between atoms: C_2  and  O_4
REMARK    3  A    between atoms: O_4  and  C_5
REMARK    4  A    between atoms: C_5  and  C_6
REMARK    5  A    between atoms: C_5  and  C_12
REMARK    6  A    between atoms: C_12  and  C_13
REMARK    7  A    between atoms: C_12  and  C_19
REMARK    8  A    between atoms: C_13  and  N_14
REMARK                            x       y       z     vdW  Elec       q    Type
REMARK                         _______ _______ _______ _____ _____    ______ ____
ROOT
ATOM      1  C   UNL     1       3.247   5.860  18.497  0.00  0.00    +0.000 C 
ENDROOT
BRANCH   1   2
ATOM      2  C   UNL     1       2.507   7.199  18.742  0.00  0.00    +0.000 A 
ATOM      3  C   UNL     1       1.983   7.486  20.017  0.00  0.00    +0.000 A 
ATOM      4  C   UNL     1       1.270   8.667  20.264  0.00  0.00    +0.000 A 
ATOM      5  C   UNL     1       1.071   9.588  19.240  0.00  0.00    +0.000 A 
ATOM      6 BR   UNL     1       0.088  11.169  19.556  0.00  0.00    +0.000 Br
ATOM      7  C   UNL     1       1.604   9.349  17.982  0.00  0.00    +0.000 A 
ATOM      8  C   UNL     1       2.335   8.181  17.749  0.00  0.00    +0.000 A 
ENDBRANCH   1   2
BRANCH   1   9
ATOM      9  C   UNL     1       4.368   5.833  17.392  0.00  0.00    +0.000 C 
BRANCH   9  10
ATOM     10  C   UNL     1       5.800   6.218  17.779  0.00  0.00    +0.000 A 
ATOM     11  C   UNL     1       6.448   5.481  18.788  0.00  0.00    +0.000 A 
ATOM     12  C   UNL     1       7.695   5.863  19.285  0.00  0.00    +0.000 A 
ATOM     13  C   UNL     1       8.339   6.978  18.768  0.00  0.00    +0.000 A 
ATOM     14  C   UNL     1       7.752   7.691  17.731  0.00  0.00    +0.000 A 
ATOM     15  C   UNL     1       6.503   7.308  17.236  0.00  0.00    +0.000 A 
ENDBRANCH   9  10
BRANCH   9  16
ATOM     16  O   UNL     1       4.383   4.483  16.838  0.00  0.00    +0.000 OA
BRANCH  16  18
ATOM     17  C   UNL     1       5.104   5.161  14.708  0.00  0.00    +0.000 C 
ATOM     18  C   UNL     1       5.258   4.192  15.842  0.00  0.00    +0.000 C 
ATOM     19  O   UNL     1       6.079   3.287  15.853  0.00  0.00    +0.000 OA
ENDBRANCH  16  18
ENDBRANCH   9  16
ENDBRANCH   1   9
BRANCH   1  20
ATOM     20  C   UNL     1       2.235   4.695  18.326  0.00  0.00    +0.000 C 
BRANCH  20  21
ATOM     21  N   UNL     1       2.069   3.840  19.480  0.00  0.00    +0.000 N 
ATOM     22  C   UNL     1       0.912   3.503  20.121  0.00  0.00    +0.000 A 
ATOM     23  C   UNL     1       1.337   2.800  21.219  0.00  0.00    +0.000 A 
ATOM     24  N   UNL     1       2.702   2.717  21.205  0.00  0.00    +0.000 NA
ATOM     25  N   UNL     1       3.141   3.360  20.130  0.00  0.00    +0.000 NA
ENDBRANCH  20  21
ENDBRANCH   1  20
TORSDOF 7
ENDMDL
MODEL 2
REMARK VINA RESULT:      -7.9      1.473      1.719
REMARK  Name = 
REMARK  8 active torsions:
REMARK  status: ('A' for Active; 'I' for Inactive)
REMARK    1  A    between atoms: C_1  and  C_2
REMARK    2  A    between atoms: C_2  and  O_4
REMARK    3  A    between atoms: O_4  and  C_5
REMARK    4  A    between atoms: C_5  and  C_6
REMARK    5  A    between atoms: C_5  and  C_12
REMARK    6  A    between atoms: C_12  and  C_13
REMARK    7  A    between atoms: C_12  and  C_19
REMARK    8  A    between atoms: C_13  and  N_14
REMARK                            x       y       z     vdW  Elec       q    Type
REMARK                         _______ _______ _______ _____ _____    ______ ____
ROOT
ATOM      1  C   UNL     1       4.175   5.193  17.673  0.00  0.00    +0.000 C 
ENDROOT
BRANCH   1   2
ATOM      2  C   UNL     1       3.324   6.330  18.293  0.00  0.00    +0.000 A 
ATOM      3  C   UNL     1       2.836   6.200  19.608  0.00  0.00    +0.000 A 
ATOM      4  C   UNL     1       2.025   7.187  20.186  0.00  0.00    +0.000 A 
ATOM      5  C   UNL     1       1.692   8.327  19.461  0.00  0.00    +0.000 A 
ATOM      6 BR   UNL     1       0.579   9.650  20.221  0.00  0.00    +0.000 Br
ATOM      7  C   UNL     1       2.186   8.499  18.176  0.00  0.00    +0.000 A 
ATOM      8  C   UNL     1       3.013   7.523  17.615  0.00  0.00    +0.000 A 
ENDBRANCH   1   2
BRANCH   1   9
ATOM      9  C   UNL     1       5.393   5.602  16.763  0.00  0.00    +0.000 C 
BRANCH   9  10
ATOM     10  C   UNL     1       6.548   6.396  17.383  0.00  0.00    +0.000 A 
ATOM     11  C   UNL     1       7.280   5.813  18.433  0.00  0.00    +0.000 A 
ATOM     12  C   UNL     1       8.251   6.531  19.135  0.00  0.00    +0.000 A 
ATOM     13  C   UNL     1       8.532   7.845  18.787  0.00  0.00    +0.000 A 
ATOM     14  C   UNL     1       7.867   8.429  17.717  0.00  0.00    +0.000 A 
ATOM     15  C   UNL     1       6.895   7.709  17.018  0.00  0.00    +0.000 A 
ENDBRANCH   9  10
BRANCH   9  16
ATOM     16  O   UNL     1       5.929   4.370  16.195  0.00  0.00    +0.000 OA
BRANCH  16  18
ATOM     17  C   UNL     1       5.736   3.980  13.887  0.00  0.00    +0.000 C 
ATOM     18  C   UNL     1       6.608   4.429  15.021  0.00  0.00    +0.000 C 
ATOM     19  O   UNL     1       7.760   4.811  14.880  0.00  0.00    +0.000 OA
ENDBRANCH  16  18
ENDBRANCH   9  16
ENDBRANCH   1   9
BRANCH   1  20
ATOM     20  C   UNL     1       3.267   4.137  16.986  0.00  0.00    +0.000 C 
BRANCH  20  21
ATOM     21  N   UNL     1       2.444   3.349  17.877  0.00  0.00    +0.000 N 
ATOM     22  C   UNL     1       2.844   2.428  18.801  0.00  0.00    +0.000 A 
ATOM     23  C   UNL     1       1.668   1.887  19.254  0.00  0.00    +0.000 A 
ATOM     24  N   UNL     1       0.616   2.491  18.622  0.00  0.00    +0.000 NA
ATOM     25  N   UNL     1       1.106   3.389  17.777  0.00  0.00    +0.000 NA
ENDBRANCH  20  21
ENDBRANCH   1  20
TORSDOF 7
ENDMDL
MODEL 3
REMARK VINA RESULT:      -7.8      0.573      1.192
REMARK  Name = 
REMARK  8 active torsions:
REMARK  status: ('A' for Active; 'I' for Inactive)
REMARK    1  A    between atoms: C_1  and  C_2
REMARK    2  A    between atoms: C_2  and  O_4
REMARK    3  A    between atoms: O_4  and  C_5
REMARK    4  A    between atoms: C_5  and  C_6
REMARK    5  A    between atoms: C_5  and  C_12
REMARK    6  A    between atoms: C_12  and  C_13
REMARK    7  A    between atoms: C_12  and  C_19
REMARK    8  A    between atoms: C_13  and  N_14
REMARK                            x       y       z     vdW  Elec       q    Type
REMARK                         _______ _______ _______ _____ _____    ______ ____
ROOT
ATOM      1  C   UNL     1       3.242   5.971  18.546  0.00  0.00    +0.000 C 
ENDROOT
BRANCH   1   2
ATOM      2  C   UNL     1       2.428   7.251  18.858  0.00  0.00    +0.000 A 
ATOM      3  C   UNL     1       2.190   8.195  17.840  0.00  0.00    +0.000 A 
ATOM      4  C   UNL     1       1.496   9.386  18.097  0.00  0.00    +0.000 A 
ATOM      5  C   UNL     1       1.021   9.653  19.377  0.00  0.00    +0.000 A 
ATOM      6 BR   UNL     1       0.109  11.267  19.739  0.00  0.00    +0.000 Br
ATOM      7  C   UNL     1       1.210   8.727  20.392  0.00  0.00    +0.000 A 
ATOM      8  C   UNL     1       1.881   7.532  20.124  0.00  0.00    +0.000 A 
ENDBRANCH   1   2
BRANCH   1   9
ATOM      9  C   UNL     1       4.335   6.055  17.414  0.00  0.00    +0.000 C 
BRANCH   9  10
ATOM     10  C   UNL     1       5.786   6.356  17.805  0.00  0.00    +0.000 A 
ATOM     11  C   UNL     1       6.392   5.572  18.804  0.00  0.00    +0.000 A 
ATOM     12  C   UNL     1       7.658   5.878  19.305  0.00  0.00    +0.000 A 
ATOM     13  C   UNL     1       8.363   6.962  18.802  0.00  0.00    +0.000 A 
ATOM     14  C   UNL     1       7.815   7.719  17.775  0.00  0.00    +0.000 A 
ATOM     15  C   UNL     1       6.547   7.412  17.276  0.00  0.00    +0.000 A 
ENDBRANCH   9  10
BRANCH   9  16
ATOM     16  O   UNL     1       4.300   4.784  16.698  0.00  0.00    +0.000 OA
BRANCH  16  18
ATOM     17  C   UNL     1       5.944   3.375  15.789  0.00  0.00    +0.000 C 
ATOM     18  C   UNL     1       5.113   4.612  15.625  0.00  0.00    +0.000 C 
ATOM     19  O   UNL     1       5.164   5.338  14.643  0.00  0.00    +0.000 OA
ENDBRANCH  16  18
ENDBRANCH   9  16
ENDBRANCH   1   9
BRANCH   1  20
ATOM     20  C   UNL     1       2.301   4.751  18.354  0.00  0.00    +0.000 C 
BRANCH  20  21
ATOM     21  N   UNL     1       2.131   3.907  19.516  0.00  0.00    +0.000 N 
ATOM     22  C   UNL     1       1.023   3.762  20.298  0.00  0.00    +0.000 A 
ATOM     23  C   UNL     1       1.451   2.964  21.329  0.00  0.00    +0.000 A 
ATOM     24  N   UNL     1       2.767   2.642  21.138  0.00  0.00    +0.000 NA
ATOM     25  N   UNL     1       3.174   3.228  20.019  0.00  0.00    +0.000 NA
ENDBRANCH  20  21
ENDBRANCH   1  20
TORSDOF 7
ENDMDL
MODEL 4
REMARK VINA RESULT:      -7.8      0.687      1.192
REMARK  Name = 
REMARK  8 active torsions:
REMARK  status: ('A' for Active; 'I' for Inactive)
REMARK    1  A    between atoms: C_1  and  C_2
REMARK    2  A    between atoms: C_2  and  O_4
REMARK    3  A    between atoms: O_4  and  C_5
REMARK    4  A    between atoms: C_5  and  C_6
REMARK    5  A    between atoms: C_5  and  C_12
REMARK    6  A    between atoms: C_12  and  C_13
REMARK    7  A    between atoms: C_12  and  C_19
REMARK    8  A    between atoms: C_13  and  N_14
REMARK                            x       y       z     vdW  Elec       q    Type
REMARK                         _______ _______ _______ _____ _____    ______ ____
ROOT
ATOM      1  C   UNL     1       3.036   5.852  18.253  0.00  0.00    +0.000 C 
ENDROOT
BRANCH   1   2
ATOM      2  C   UNL     1       2.415   7.233  18.583  0.00  0.00    +0.000 A 
ATOM      3  C   UNL     1       1.976   7.507  19.893  0.00  0.00    +0.000 A 
ATOM      4  C   UNL     1       1.368   8.728  20.217  0.00  0.00    +0.000 A 
ATOM      5  C   UNL     1       1.193   9.701  19.238  0.00  0.00    +0.000 A 
ATOM      6 BR   UNL     1       0.351  11.338  19.660  0.00  0.00    +0.000 Br
ATOM      7  C   UNL     1       1.646   9.473  17.947  0.00  0.00    +0.000 A 
ATOM      8  C   UNL     1       2.273   8.264  17.636  0.00  0.00    +0.000 A 
ENDBRANCH   1   2
BRANCH   1   9
ATOM      9  C   UNL     1       4.293   5.821  17.304  0.00  0.00    +0.000 C 
BRANCH   9  10
ATOM     10  C   UNL     1       5.662   6.209  17.873  0.00  0.00    +0.000 A 
ATOM     11  C   UNL     1       6.350   7.291  17.296  0.00  0.00    +0.000 A 
ATOM     12  C   UNL     1       7.656   7.611  17.670  0.00  0.00    +0.000 A 
ATOM     13  C   UNL     1       8.300   6.870  18.651  0.00  0.00    +0.000 A 
ATOM     14  C   UNL     1       7.626   5.832  19.281  0.00  0.00    +0.000 A 
ATOM     15  C   UNL     1       6.319   5.513  18.903  0.00  0.00    +0.000 A 
ENDBRANCH   9  10
BRANCH   9  16
ATOM     16  O   UNL     1       4.380   4.469  16.762  0.00  0.00    +0.000 OA
BRANCH  16  18
ATOM     17  C   UNL     1       5.126   5.061  14.615  0.00  0.00    +0.000 C 
ATOM     18  C   UNL     1       5.323   4.197  15.825  0.00  0.00    +0.000 C 
ATOM     19  O   UNL     1       6.228   3.384  15.937  0.00  0.00    +0.000 OA
ENDBRANCH  16  18
ENDBRANCH   9  16
ENDBRANCH   1   9
BRANCH   1  20
ATOM     20  C   UNL     1       1.942   4.849  17.800  0.00  0.00    +0.000 C 
BRANCH  20  21
ATOM     21  N   UNL     1       1.636   3.793  18.740  0.00  0.00    +0.000 N 
ATOM     22  C   UNL     1       1.185   3.910  20.022  0.00  0.00    +0.000 A 
ATOM     23  C   UNL     1       1.204   2.623  20.495  0.00  0.00    +0.000 A 
ATOM     24  N   UNL     1       1.638   1.782  19.507  0.00  0.00    +0.000 NA
ATOM     25  N   UNL     1       1.901   2.513  18.432  0.00  0.00    +0.000 NA
ENDBRANCH  20  21
ENDBRANCH   1  20
TORSDOF 7
ENDMDL
MODEL 5
REMARK VINA RESULT:      -7.7      1.378      1.841
REMARK  Name = 
REMARK  8 active torsions:
REMARK  status: ('A' for Active; 'I' for Inactive)
REMARK    1  A    between atoms: C_1  and  C_2
REMARK    2  A    between atoms: C_2  and  O_4
REMARK    3  A    between atoms: O_4  and  C_5
REMARK    4  A    between atoms: C_5  and  C_6
REMARK    5  A    between atoms: C_5  and  C_12
REMARK    6  A    between atoms: C_12  and  C_13
REMARK    7  A    between atoms: C_12  and  C_19
REMARK    8  A    between atoms: C_13  and  N_14
REMARK                            x       y       z     vdW  Elec       q    Type
REMARK                         _______ _______ _______ _____ _____    ______ ____
ROOT
ATOM      1  C   UNL     1       3.898   5.267  17.863  0.00  0.00    +0.000 C 
ENDROOT
BRANCH   1   2
ATOM      2  C   UNL     1       3.079   6.436  18.467  0.00  0.00    +0.000 A 
ATOM      3  C   UNL     1       2.592   6.340  19.785  0.00  0.00    +0.000 A 
ATOM      4  C   UNL     1       1.810   7.358  20.349  0.00  0.00    +0.000 A 
ATOM      5  C   UNL     1       1.504   8.494  19.606  0.00  0.00    +0.000 A 
ATOM      6 BR   UNL     1       0.429   9.858  20.348  0.00  0.00    +0.000 Br
ATOM      7  C   UNL     1       1.998   8.632  18.317  0.00  0.00    +0.000 A 
ATOM      8  C   UNL     1       2.797   7.625  17.770  0.00  0.00    +0.000 A 
ENDBRANCH   1   2
BRANCH   1   9
ATOM      9  C   UNL     1       5.166   5.629  17.002  0.00  0.00    +0.000 C 
BRANCH   9  10
ATOM     10  C   UNL     1       6.315   6.400  17.661  0.00  0.00    +0.000 A 
ATOM     11  C   UNL     1       6.616   7.692  17.193  0.00  0.00    +0.000 A 
ATOM     12  C   UNL     1       7.733   8.393  17.651  0.00  0.00    +0.000 A 
ATOM     13  C   UNL     1       8.564   7.830  18.608  0.00  0.00    +0.000 A 
ATOM     14  C   UNL     1       8.260   6.581  19.132  0.00  0.00    +0.000 A 
ATOM     15  C   UNL     1       7.142   5.880  18.671  0.00  0.00    +0.000 A 
ENDBRANCH   9  10
BRANCH   9  16
ATOM     16  O   UNL     1       5.691   4.373  16.475  0.00  0.00    +0.000 OA
BRANCH  16  18
ATOM     17  C   UNL     1       5.719   4.028  14.152  0.00  0.00    +0.000 C 
ATOM     18  C   UNL     1       6.492   4.405  15.380  0.00  0.00    +0.000 C 
ATOM     19  O   UNL     1       7.674   4.714  15.368  0.00  0.00    +0.000 OA
ENDBRANCH  16  18
ENDBRANCH   9  16
ENDBRANCH   1   9
BRANCH   1  20
ATOM     20  C   UNL     1       2.968   4.262  17.132  0.00  0.00    +0.000 C 
BRANCH  20  21
ATOM     21  N   UNL     1       2.193   3.393  17.990  0.00  0.00    +0.000 N 
ATOM     22  C   UNL     1       2.647   2.480  18.896  0.00  0.00    +0.000 A 
ATOM     23  C   UNL     1       1.508   1.842  19.317  0.00  0.00    +0.000 A 
ATOM     24  N   UNL     1       0.423   2.384  18.684  0.00  0.00    +0.000 NA
ATOM     25  N   UNL     1       0.857   3.338  17.871  0.00  0.00    +0.000 NA
ENDBRANCH  20  21
ENDBRANCH   1  20
TORSDOF 7
ENDMDL
MODEL 6
REMARK VINA RESULT:      -7.6      1.295      1.727
REMARK  Name = 
REMARK  8 active torsions:
REMARK  status: ('A' for Active; 'I' for Inactive)
REMARK    1  A    between atoms: C_1  and  C_2
REMARK    2  A    between atoms: C_2  and  O_4
REMARK    3  A    between atoms: O_4  and  C_5
REMARK    4  A    between atoms: C_5  and  C_6
REMARK    5  A    between atoms: C_5  and  C_12
REMARK    6  A    between atoms: C_12  and  C_13
REMARK    7  A    between atoms: C_12  and  C_19
REMARK    8  A    between atoms: C_13  and  N_14
REMARK                            x       y       z     vdW  Elec       q    Type
REMARK                         _______ _______ _______ _____ _____    ______ ____
ROOT
ATOM      1  C   UNL     1       3.357   6.055  18.318  0.00  0.00    +0.000 C 
ENDROOT
BRANCH   1   2
ATOM      2  C   UNL     1       2.495   7.285  18.698  0.00  0.00    +0.000 A 
ATOM      3  C   UNL     1       2.181   8.248  17.720  0.00  0.00    +0.000 A 
ATOM      4  C   UNL     1       1.441   9.396  18.037  0.00  0.00    +0.000 A 
ATOM      5  C   UNL     1       0.997   9.600  19.340  0.00  0.00    +0.000 A 
ATOM      6 BR   UNL     1       0.023  11.157  19.783  0.00  0.00    +0.000 Br
ATOM      7  C   UNL     1       1.262   8.653  20.318  0.00  0.00    +0.000 A 
ATOM      8  C   UNL     1       1.978   7.500  19.989  0.00  0.00    +0.000 A 
ENDBRANCH   1   2
BRANCH   1   9
ATOM      9  C   UNL     1       4.498   6.261  17.252  0.00  0.00    +0.000 C 
BRANCH   9  10
ATOM     10  C   UNL     1       5.930   6.511  17.737  0.00  0.00    +0.000 A 
ATOM     11  C   UNL     1       6.489   5.625  18.676  0.00  0.00    +0.000 A 
ATOM     12  C   UNL     1       7.732   5.870  19.263  0.00  0.00    +0.000 A 
ATOM     13  C   UNL     1       8.460   6.996  18.906  0.00  0.00    +0.000 A 
ATOM     14  C   UNL     1       7.961   7.858  17.939  0.00  0.00    +0.000 A 
ATOM     15  C   UNL     1       6.716   7.612  17.354  0.00  0.00    +0.000 A 
ENDBRANCH   9  10
BRANCH   9  16
ATOM     16  O   UNL     1       4.496   5.078  16.398  0.00  0.00    +0.000 OA
BRANCH  16  18
ATOM     17  C   UNL     1       6.082   3.684  15.369  0.00  0.00    +0.000 C 
ATOM     18  C   UNL     1       5.379   5.009  15.369  0.00  0.00    +0.000 C 
ATOM     19  O   UNL     1       5.576   5.881  14.536  0.00  0.00    +0.000 OA
ENDBRANCH  16  18
ENDBRANCH   9  16
ENDBRANCH   1   9
BRANCH   1  20
ATOM     20  C   UNL     1       2.459   4.836  17.978  0.00  0.00    +0.000 C 
BRANCH  20  21
ATOM     21  N   UNL     1       2.925   3.561  18.477  0.00  0.00    +0.000 N 
ATOM     22  C   UNL     1       3.659   3.311  19.600  0.00  0.00    +0.000 A 
ATOM     23  C   UNL     1       3.943   1.972  19.516  0.00  0.00    +0.000 A 
ATOM     24  N   UNL     1       3.373   1.457  18.383  0.00  0.00    +0.000 NA
ATOM     25  N   UNL     1       2.749   2.444  17.753  0.00  0.00    +0.000 NA
ENDBRANCH  20  21
ENDBRANCH   1  20
TORSDOF 7
ENDMDL
MODEL 7
REMARK VINA RESULT:      -7.6      0.983      1.775
REMARK  Name = 
REMARK  8 active torsions:
REMARK  status: ('A' for Active; 'I' for Inactive)
REMARK    1  A    between atoms: C_1  and  C_2
REMARK    2  A    between atoms: C_2  and  O_4
REMARK    3  A    between atoms: O_4  and  C_5
REMARK    4  A    between atoms: C_5  and  C_6
REMARK    5  A    between atoms: C_5  and  C_12
REMARK    6  A    between atoms: C_12  and  C_13
REMARK    7  A    between atoms: C_12  and  C_19
REMARK    8  A    between atoms: C_13  and  N_14
REMARK                            x       y       z     vdW  Elec       q    Type
REMARK                         _______ _______ _______ _____ _____    ______ ____
ROOT
ATOM      1  C   UNL     1       3.096   6.031  18.277  0.00  0.00    +0.000 C 
ENDROOT
BRANCH   1   2
ATOM      2  C   UNL     1       2.352   7.317  18.718  0.00  0.00    +0.000 A 
ATOM      3  C   UNL     1       2.086   8.329  17.777  0.00  0.00    +0.000 A 
ATOM      4  C   UNL     1       1.455   9.525  18.149  0.00  0.00    +0.000 A 
ATOM      5  C   UNL     1       1.073   9.727  19.472  0.00  0.00    +0.000 A 
ATOM      6 BR   UNL     1       0.247  11.345  19.989  0.00  0.00    +0.000 Br
ATOM      7  C   UNL     1       1.291   8.735  20.415  0.00  0.00    +0.000 A 
ATOM      8  C   UNL     1       1.898   7.536  20.032  0.00  0.00    +0.000 A 
ENDBRANCH   1   2
BRANCH   1   9
ATOM      9  C   UNL     1       4.341   6.195  17.327  0.00  0.00    +0.000 C 
BRANCH   9  10
ATOM     10  C   UNL     1       5.725   6.416  17.948  0.00  0.00    +0.000 A 
ATOM     11  C   UNL     1       6.515   7.479  17.475  0.00  0.00    +0.000 A 
ATOM     12  C   UNL     1       7.834   7.653  17.896  0.00  0.00    +0.000 A 
ATOM     13  C   UNL     1       8.391   6.781  18.821  0.00  0.00    +0.000 A 
ATOM     14  C   UNL     1       7.617   5.757  19.350  0.00  0.00    +0.000 A 
ATOM     15  C   UNL     1       6.297   5.584  18.926  0.00  0.00    +0.000 A 
ENDBRANCH   9  10
BRANCH   9  16
ATOM     16  O   UNL     1       4.393   5.002  16.488  0.00  0.00    +0.000 OA
BRANCH  16  18
ATOM     17  C   UNL     1       6.062   3.648  15.542  0.00  0.00    +0.000 C 
ATOM     18  C   UNL     1       5.307   4.943  15.486  0.00  0.00    +0.000 C 
ATOM     19  O   UNL     1       5.492   5.799  14.635  0.00  0.00    +0.000 OA
ENDBRANCH  16  18
ENDBRANCH   9  16
ENDBRANCH   1   9
BRANCH   1  20
ATOM     20  C   UNL     1       2.096   4.970  17.745  0.00  0.00    +0.000 C 
BRANCH  20  21
ATOM     21  N   UNL     1       1.790   3.890  18.657  0.00  0.00    +0.000 N 
ATOM     22  C   UNL     1       2.120   3.782  19.976  0.00  0.00    +0.000 A 
ATOM     23  C   UNL     1       1.717   2.515  20.312  0.00  0.00    +0.000 A 
ATOM     24  N   UNL     1       1.153   1.913  19.221  0.00  0.00    +0.000 NA
ATOM     25  N   UNL     1       1.203   2.769  18.209  0.00  0.00    +0.000 NA
ENDBRANCH  20  21
ENDBRANCH   1  20
TORSDOF 7
ENDMDL
MODEL 8
REMARK VINA RESULT:      -7.6      0.809      1.264
REMARK  Name = 
REMARK  8 active torsions:
REMARK  status: ('A' for Active; 'I' for Inactive)
REMARK    1  A    between atoms: C_1  and  C_2
REMARK    2  A    between atoms: C_2  and  O_4
REMARK    3  A    between atoms: O_4  and  C_5
REMARK    4  A    between atoms: C_5  and  C_6
REMARK    5  A    between atoms: C_5  and  C_12
REMARK    6  A    between atoms: C_12  and  C_13
REMARK    7  A    between atoms: C_12  and  C_19
REMARK    8  A    between atoms: C_13  and  N_14
REMARK                            x       y       z     vdW  Elec       q    Type
REMARK                         _______ _______ _______ _____ _____    ______ ____
ROOT
ATOM      1  C   UNL     1       3.865   5.473  18.220  0.00  0.00    +0.000 C 
ENDROOT
BRANCH   1   2
ATOM      2  C   UNL     1       2.983   6.686  18.611  0.00  0.00    +0.000 A 
ATOM      3  C   UNL     1       2.773   7.726  17.684  0.00  0.00    +0.000 A 
ATOM      4  C   UNL     1       2.019   8.859  18.018  0.00  0.00    +0.000 A 
ATOM      5  C   UNL     1       1.455   8.972  19.285  0.00  0.00    +0.000 A 
ATOM      6 BR   UNL     1       0.459  10.508  19.753  0.00  0.00    +0.000 Br
ATOM      7  C   UNL     1       1.615   7.949  20.208  0.00  0.00    +0.000 A 
ATOM      8  C   UNL     1       2.348   6.811  19.860  0.00  0.00    +0.000 A 
ENDBRANCH   1   2
BRANCH   1   9
ATOM      9  C   UNL     1       5.011   5.710  17.166  0.00  0.00    +0.000 C 
BRANCH   9  10
ATOM     10  C   UNL     1       6.280   6.449  17.603  0.00  0.00    +0.000 A 
ATOM     11  C   UNL     1       7.082   5.876  18.607  0.00  0.00    +0.000 A 
ATOM     12  C   UNL     1       8.172   6.558  19.149  0.00  0.00    +0.000 A 
ATOM     13  C   UNL     1       8.504   7.823  18.683  0.00  0.00    +0.000 A 
ATOM     14  C   UNL     1       7.767   8.390  17.652  0.00  0.00    +0.000 A 
ATOM     15  C   UNL     1       6.675   7.705  17.112  0.00  0.00    +0.000 A 
ENDBRANCH   9  10
BRANCH   9  16
ATOM     16  O   UNL     1       5.390   4.397  16.653  0.00  0.00    +0.000 OA
BRANCH  16  18
ATOM     17  C   UNL     1       5.354   4.273  14.308  0.00  0.00    +0.000 C 
ATOM     18  C   UNL     1       6.185   4.326  15.555  0.00  0.00    +0.000 C 
ATOM     19  O   UNL     1       7.407   4.326  15.557  0.00  0.00    +0.000 OA
ENDBRANCH  16  18
ENDBRANCH   9  16
ENDBRANCH   1   9
BRANCH   1  20
ATOM     20  C   UNL     1       2.985   4.247  17.856  0.00  0.00    +0.000 C 
BRANCH  20  21
ATOM     21  N   UNL     1       2.420   3.531  18.979  0.00  0.00    +0.000 N 
ATOM     22  C   UNL     1       1.104   3.297  19.254  0.00  0.00    +0.000 A 
ATOM     23  C   UNL     1       1.127   2.711  20.494  0.00  0.00    +0.000 A 
ATOM     24  N   UNL     1       2.423   2.593  20.916  0.00  0.00    +0.000 NA
ATOM     25  N   UNL     1       3.209   3.100  19.976  0.00  0.00    +0.000 NA
ENDBRANCH  20  21
ENDBRANCH   1  20
TORSDOF 7
ENDMDL
MODEL 9
REMARK VINA RESULT:      -7.5      1.106      1.273
REMARK  Name = 
REMARK  8 active torsions:
REMARK  status: ('A' for Active; 'I' for Inactive)
REMARK    1  A    between atoms: C_1  and  C_2
REMARK    2  A    between atoms: C_2  and  O_4
REMARK    3  A    between atoms: O_4  and  C_5
REMARK    4  A    between atoms: C_5  and  C_6
REMARK    5  A    between atoms: C_5  and  C_12
REMARK    6  A    between atoms: C_12  and  C_13
REMARK    7  A    between atoms: C_12  and  C_19
REMARK    8  A    between atoms: C_13  and  N_14
REMARK                            x       y       z     vdW  Elec       q    Type
REMARK                         _______ _______ _______ _____ _____    ______ ____
ROOT
ATOM      1  C   UNL     1       3.336   5.969  18.125  0.00  0.00    +0.000 C 
ENDROOT
BRANCH   1   2
ATOM      2  C   UNL     1       2.569   7.230  18.596  0.00  0.00    +0.000 A 
ATOM      3  C   UNL     1       2.113   7.315  19.926  0.00  0.00    +0.000 A 
ATOM      4  C   UNL     1       1.376   8.420  20.375  0.00  0.00    +0.000 A 
ATOM      5  C   UNL     1       1.086   9.465  19.503  0.00  0.00    +0.000 A 
ATOM      6 BR   UNL     1       0.072  10.946  20.092  0.00  0.00    +0.000 Br
ATOM      7  C   UNL     1       1.551   9.426  18.197  0.00  0.00    +0.000 A 
ATOM      8  C   UNL     1       2.305   8.333  17.763  0.00  0.00    +0.000 A 
ENDBRANCH   1   2
BRANCH   1   9
ATOM      9  C   UNL     1       4.528   6.171  17.115  0.00  0.00    +0.000 C 
BRANCH   9  10
ATOM     10  C   UNL     1       5.932   6.437  17.668  0.00  0.00    +0.000 A 
ATOM     11  C   UNL     1       6.446   5.570  18.650  0.00  0.00    +0.000 A 
ATOM     12  C   UNL     1       7.656   5.832  19.295  0.00  0.00    +0.000 A 
ATOM     13  C   UNL     1       8.396   6.956  18.956  0.00  0.00    +0.000 A 
ATOM     14  C   UNL     1       7.944   7.798  17.950  0.00  0.00    +0.000 A 
ATOM     15  C   UNL     1       6.732   7.535  17.307  0.00  0.00    +0.000 A 
ENDBRANCH   9  10
BRANCH   9  16
ATOM     16  O   UNL     1       4.576   4.978  16.276  0.00  0.00    +0.000 OA
BRANCH  16  18
ATOM     17  C   UNL     1       6.089   3.622  15.098  0.00  0.00    +0.000 C 
ATOM     18  C   UNL     1       5.418   4.959  15.211  0.00  0.00    +0.000 C 
ATOM     19  O   UNL     1       5.603   5.879  14.429  0.00  0.00    +0.000 OA
ENDBRANCH  16  18
ENDBRANCH   9  16
ENDBRANCH   1   9
BRANCH   1  20
ATOM     20  C   UNL     1       2.350   4.870  17.648  0.00  0.00    +0.000 C 
BRANCH  20  21
ATOM     21  N   UNL     1       2.288   3.686  18.476  0.00  0.00    +0.000 N 
ATOM     22  C   UNL     1       3.222   2.700  18.611  0.00  0.00    +0.000 A 
ATOM     23  C   UNL     1       2.599   1.763  19.395  0.00  0.00    +0.000 A 
ATOM     24  N   UNL     1       1.345   2.203  19.720  0.00  0.00    +0.000 NA
ATOM     25  N   UNL     1       1.165   3.388  19.150  0.00  0.00    +0.000 NA
ENDBRANCH  20  21
ENDBRANCH   1  20
TORSDOF 7
ENDMDL
