MODEL 1
REMARK VINA RESULT:      -8.6      0.000      0.000
REMARK  Name = 
REMARK  7 active torsions:
REMARK  status: ('A' for Active; 'I' for Inactive)
REMARK    1  A    between atoms: C_1  and  O_2
REMARK    2  A    between atoms: O_2  and  C_3
REMARK    3  A    between atoms: C_5  and  C_6
REMARK    4  A    between atoms: N_8  and  C_9
REMARK    5  A    between atoms: C_9  and  C_10
REMARK    6  A    between atoms: C_24  and  N_25
REMARK    7  A    between atoms: C_28  and  C_29
REMARK                            x       y       z     vdW  Elec       q    Type
REMARK                         _______ _______ _______ _____ _____    ______ ____
ROOT
ATOM      1  C   UNL     1       8.559   9.122  18.474  0.00  0.00    +0.000 A 
ATOM      2  C   UNL     1       8.752   7.916  19.108  0.00  0.00    +0.000 A 
ATOM      3  N   UNL     1       8.002   7.039  18.384  0.00  0.00    +0.000 N 
ATOM      4  N   UNL     1       7.375   7.659  17.363  0.00  0.00    +0.000 NA
ATOM      5  N   UNL     1       7.715   8.939  17.407  0.00  0.00    +0.000 NA
ENDROOT
BRANCH   1   8
ATOM      6  C   UNL     1       9.889  12.638  18.249  0.00  0.00    +0.000 A 
ATOM      7  C   UNL     1       9.398  11.375  17.896  0.00  0.00    +0.000 A 
ATOM      8  C   UNL     1       9.127  10.394  18.859  0.00  0.00    +0.000 A 
ATOM      9  C   UNL     1       9.398  10.669  20.196  0.00  0.00    +0.000 A 
ATOM     10  C   UNL     1       9.951  11.898  20.563  0.00  0.00    +0.000 A 
ATOM     11  C   UNL     1      10.197  12.894  19.598  0.00  0.00    +0.000 A 
BRANCH  11  12
ATOM     12  N   UNL     1      10.751  14.129  20.039  0.00  0.00    +0.000 N 
ATOM     13  C   UNL     1      11.972  14.685  19.727  0.00  0.00    +0.000 A 
ATOM     14  N   UNL     1      12.167  15.846  20.317  0.00  0.00    +0.000 NA
ATOM     15  C   UNL     1      11.036  16.071  21.054  0.00  0.00    +0.000 A 
ATOM     16  C   UNL     1      10.898  17.266  21.912  0.00  0.00    +0.000 C 
ATOM     17  C   UNL     1      10.138  15.042  20.873  0.00  0.00    +0.000 A 
ENDBRANCH  11  12
BRANCH   6  19
ATOM     18  C   UNL     1      11.325  13.366  16.508  0.00  0.00    +0.000 C 
ATOM     19  O   UNL     1      10.157  13.589  17.299  0.00  0.00    +0.000 OA
ENDBRANCH   6  19
ENDBRANCH   1   8
BRANCH   3  20
ATOM     20  C   UNL     1       7.650   5.684  18.748  0.00  0.00    +0.000 C 
BRANCH  20  21
ATOM     21  C   UNL     1       6.677   5.038  17.793  0.00  0.00    +0.000 A 
ATOM     22  C   UNL     1       7.132   4.607  16.533  0.00  0.00    +0.000 A 
ATOM     23  C   UNL     1       6.231   4.156  15.577  0.00  0.00    +0.000 A 
ATOM     24  C   UNL     1       4.870   4.162  15.861  0.00  0.00    +0.000 A 
ATOM     25  C   UNL     1       4.410   4.564  17.128  0.00  0.00    +0.000 A 
ATOM     26  C   UNL     1       3.040   4.616  17.417  0.00  0.00    +0.000 A 
ATOM     27  C   UNL     1       2.611   4.989  18.684  0.00  0.00    +0.000 A 
ATOM     28  C   UNL     1       3.574   5.279  19.628  0.00  0.00    +0.000 A 
ATOM     29  N   UNL     1       4.902   5.286  19.373  0.00  0.00    +0.000 NA
ATOM     30  C   UNL     1       5.322   4.957  18.133  0.00  0.00    +0.000 A 
ENDBRANCH  20  21
ENDBRANCH   3  20
TORSDOF 5
ENDMDL
MODEL 2
REMARK VINA RESULT:      -8.5      6.353      8.053
REMARK  Name = 
REMARK  7 active torsions:
REMARK  status: ('A' for Active; 'I' for Inactive)
REMARK    1  A    between atoms: C_1  and  O_2
REMARK    2  A    between atoms: O_2  and  C_3
REMARK    3  A    between atoms: C_5  and  C_6
REMARK    4  A    between atoms: N_8  and  C_9
REMARK    5  A    between atoms: C_9  and  C_10
REMARK    6  A    between atoms: C_24  and  N_25
REMARK    7  A    between atoms: C_28  and  C_29
REMARK                            x       y       z     vdW  Elec       q    Type
REMARK                         _______ _______ _______ _____ _____    ______ ____
ROOT
ATOM      1  C   UNL     1       2.120   6.756  19.832  0.00  0.00    +0.000 A 
ATOM      2  C   UNL     1       2.979   6.181  18.924  0.00  0.00    +0.000 A 
ATOM      3  N   UNL     1       3.104   4.895  19.357  0.00  0.00    +0.000 N 
ATOM      4  N   UNL     1       2.372   4.681  20.469  0.00  0.00    +0.000 NA
ATOM      5  N   UNL     1       1.759   5.818  20.766  0.00  0.00    +0.000 NA
ENDROOT
BRANCH   1   8
ATOM      6  C   UNL     1       0.906  10.099  21.071  0.00  0.00    +0.000 A 
ATOM      7  C   UNL     1       1.288   8.751  21.031  0.00  0.00    +0.000 A 
ATOM      8  C   UNL     1       1.668   8.129  19.835  0.00  0.00    +0.000 A 
ATOM      9  C   UNL     1       1.620   8.859  18.650  0.00  0.00    +0.000 A 
ATOM     10  C   UNL     1       1.179  10.183  18.658  0.00  0.00    +0.000 A 
ATOM     11  C   UNL     1       0.823  10.817  19.864  0.00  0.00    +0.000 A 
BRANCH  11  12
ATOM     12  N   UNL     1       0.392  12.172  19.805  0.00  0.00    +0.000 N 
ATOM     13  C   UNL     1      -0.893  12.668  19.800  0.00  0.00    +0.000 A 
ATOM     14  N   UNL     1      -0.931  13.982  19.734  0.00  0.00    +0.000 NA
ATOM     15  C   UNL     1       0.378  14.379  19.687  0.00  0.00    +0.000 A 
ATOM     16  C   UNL     1       0.750  15.803  19.552  0.00  0.00    +0.000 C 
ATOM     17  C   UNL     1       1.210  13.283  19.761  0.00  0.00    +0.000 A 
ENDBRANCH  11  12
BRANCH   6  19
ATOM     18  C   UNL     1      -0.677  10.208  22.834  0.00  0.00    +0.000 C 
ATOM     19  O   UNL     1       0.529  10.697  22.245  0.00  0.00    +0.000 OA
ENDBRANCH   6  19
ENDBRANCH   1   8
BRANCH   3  20
ATOM     20  C   UNL     1       4.072   3.916  18.914  0.00  0.00    +0.000 C 
BRANCH  20  21
ATOM     21  C   UNL     1       5.392   4.517  18.504  0.00  0.00    +0.000 A 
ATOM     22  C   UNL     1       6.188   5.156  19.473  0.00  0.00    +0.000 A 
ATOM     23  C   UNL     1       7.328   5.855  19.096  0.00  0.00    +0.000 A 
ATOM     24  C   UNL     1       7.662   5.947  17.749  0.00  0.00    +0.000 A 
ATOM     25  C   UNL     1       6.888   5.287  16.778  0.00  0.00    +0.000 A 
ATOM     26  C   UNL     1       7.186   5.403  15.415  0.00  0.00    +0.000 A 
ATOM     27  C   UNL     1       6.424   4.719  14.476  0.00  0.00    +0.000 A 
ATOM     28  C   UNL     1       5.397   3.923  14.940  0.00  0.00    +0.000 A 
ATOM     29  N   UNL     1       5.050   3.824  16.243  0.00  0.00    +0.000 NA
ATOM     30  C   UNL     1       5.767   4.514  17.155  0.00  0.00    +0.000 A 
ENDBRANCH  20  21
ENDBRANCH   3  20
TORSDOF 5
ENDMDL
MODEL 3
REMARK VINA RESULT:      -8.4      1.099      1.768
REMARK  Name = 
REMARK  7 active torsions:
REMARK  status: ('A' for Active; 'I' for Inactive)
REMARK    1  A    between atoms: C_1  and  O_2
REMARK    2  A    between atoms: O_2  and  C_3
REMARK    3  A    between atoms: C_5  and  C_6
REMARK    4  A    between atoms: N_8  and  C_9
REMARK    5  A    between atoms: C_9  and  C_10
REMARK    6  A    between atoms: C_24  and  N_25
REMARK    7  A    between atoms: C_28  and  C_29
REMARK                            x       y       z     vdW  Elec       q    Type
REMARK                         _______ _______ _______ _____ _____    ______ ____
ROOT
ATOM      1  C   UNL     1       8.321   9.018  18.254  0.00  0.00    +0.000 A 
ATOM      2  C   UNL     1       8.633   7.799  18.810  0.00  0.00    +0.000 A 
ATOM      3  N   UNL     1       7.776   6.931  18.203  0.00  0.00    +0.000 N 
ATOM      4  N   UNL     1       6.974   7.568  17.326  0.00  0.00    +0.000 NA
ATOM      5  N   UNL     1       7.305   8.852  17.347  0.00  0.00    +0.000 NA
ENDROOT
BRANCH   1   8
ATOM      6  C   UNL     1       9.833  11.844  20.232  0.00  0.00    +0.000 A 
ATOM      7  C   UNL     1       9.182  10.648  19.901  0.00  0.00    +0.000 A 
ATOM      8  C   UNL     1       8.935  10.288  18.571  0.00  0.00    +0.000 A 
ATOM      9  C   UNL     1       9.304  11.165  17.555  0.00  0.00    +0.000 A 
ATOM     10  C   UNL     1       9.893  12.393  17.865  0.00  0.00    +0.000 A 
ATOM     11  C   UNL     1      10.167  12.743  19.202  0.00  0.00    +0.000 A 
BRANCH  11  12
ATOM     12  N   UNL     1      10.778  14.004  19.450  0.00  0.00    +0.000 N 
ATOM     13  C   UNL     1      12.115  14.297  19.600  0.00  0.00    +0.000 A 
ATOM     14  N   UNL     1      12.333  15.576  19.824  0.00  0.00    +0.000 NA
ATOM     15  C   UNL     1      11.093  16.157  19.827  0.00  0.00    +0.000 A 
ATOM     16  C   UNL     1      10.917  17.599  20.104  0.00  0.00    +0.000 C 
ATOM     17  C   UNL     1      10.125  15.214  19.569  0.00  0.00    +0.000 A 
ENDBRANCH  11  12
BRANCH   6  19
ATOM     18  C   UNL     1       8.939  12.701  22.255  0.00  0.00    +0.000 C 
ATOM     19  O   UNL     1      10.064  12.191  21.537  0.00  0.00    +0.000 OA
ENDBRANCH   6  19
ENDBRANCH   1   8
BRANCH   3  20
ATOM     20  C   UNL     1       7.506   5.562  18.584  0.00  0.00    +0.000 C 
BRANCH  20  21
ATOM     21  C   UNL     1       6.596   4.838  17.624  0.00  0.00    +0.000 A 
ATOM     22  C   UNL     1       7.075   4.502  16.343  0.00  0.00    +0.000 A 
ATOM     23  C   UNL     1       6.214   3.981  15.386  0.00  0.00    +0.000 A 
ATOM     24  C   UNL     1       4.866   3.821  15.690  0.00  0.00    +0.000 A 
ATOM     25  C   UNL     1       4.387   4.126  16.976  0.00  0.00    +0.000 A 
ATOM     26  C   UNL     1       3.026   4.011  17.286  0.00  0.00    +0.000 A 
ATOM     27  C   UNL     1       2.580   4.291  18.571  0.00  0.00    +0.000 A 
ATOM     28  C   UNL     1       3.520   4.661  19.511  0.00  0.00    +0.000 A 
ATOM     29  N   UNL     1       4.834   4.829  19.237  0.00  0.00    +0.000 NA
ATOM     30  C   UNL     1       5.266   4.590  17.980  0.00  0.00    +0.000 A 
ENDBRANCH  20  21
ENDBRANCH   3  20
TORSDOF 5
ENDMDL
MODEL 4
REMARK VINA RESULT:      -8.4      6.756      8.950
REMARK  Name = 
REMARK  7 active torsions:
REMARK  status: ('A' for Active; 'I' for Inactive)
REMARK    1  A    between atoms: C_1  and  O_2
REMARK    2  A    between atoms: O_2  and  C_3
REMARK    3  A    between atoms: C_5  and  C_6
REMARK    4  A    between atoms: N_8  and  C_9
REMARK    5  A    between atoms: C_9  and  C_10
REMARK    6  A    between atoms: C_24  and  N_25
REMARK    7  A    between atoms: C_28  and  C_29
REMARK                            x       y       z     vdW  Elec       q    Type
REMARK                         _______ _______ _______ _____ _____    ______ ____
ROOT
ATOM      1  C   UNL     1       1.825   8.404  19.289  0.00  0.00    +0.000 A 
ATOM      2  C   UNL     1       2.234   7.148  19.674  0.00  0.00    +0.000 A 
ATOM      3  N   UNL     1       2.908   6.674  18.589  0.00  0.00    +0.000 N 
ATOM      4  N   UNL     1       2.917   7.576  17.587  0.00  0.00    +0.000 NA
ATOM      5  N   UNL     1       2.257   8.645  18.009  0.00  0.00    +0.000 NA
ENDROOT
BRANCH   1   8
ATOM      6  C   UNL     1      -0.470  11.249  20.198  0.00  0.00    +0.000 A 
ATOM      7  C   UNL     1       0.340  10.373  19.463  0.00  0.00    +0.000 A 
ATOM      8  C   UNL     1       1.048   9.333  20.078  0.00  0.00    +0.000 A 
ATOM      9  C   UNL     1       0.980   9.198  21.462  0.00  0.00    +0.000 A 
ATOM     10  C   UNL     1       0.232  10.100  22.221  0.00  0.00    +0.000 A 
ATOM     11  C   UNL     1      -0.502  11.129  21.600  0.00  0.00    +0.000 A 
BRANCH  11  12
ATOM     12  N   UNL     1      -1.253  12.009  22.429  0.00  0.00    +0.000 N 
ATOM     13  C   UNL     1      -0.920  13.271  22.868  0.00  0.00    +0.000 A 
ATOM     14  N   UNL     1      -1.852  13.806  23.630  0.00  0.00    +0.000 NA
ATOM     15  C   UNL     1      -2.841  12.863  23.705  0.00  0.00    +0.000 A 
ATOM     16  C   UNL     1      -4.051  13.076  24.528  0.00  0.00    +0.000 C 
ATOM     17  C   UNL     1      -2.507  11.762  22.949  0.00  0.00    +0.000 A 
ENDBRANCH  11  12
BRANCH   6  19
ATOM     18  C   UNL     1      -2.392  11.909  18.976  0.00  0.00    +0.000 C 
ATOM     19  O   UNL     1      -1.153  12.268  19.588  0.00  0.00    +0.000 OA
ENDBRANCH   6  19
ENDBRANCH   1   8
BRANCH   3  20
ATOM     20  C   UNL     1       3.342   5.314  18.357  0.00  0.00    +0.000 C 
BRANCH  20  21
ATOM     21  C   UNL     1       4.840   5.169  18.257  0.00  0.00    +0.000 A 
ATOM     22  C   UNL     1       5.634   5.434  19.389  0.00  0.00    +0.000 A 
ATOM     23  C   UNL     1       7.018   5.463  19.285  0.00  0.00    +0.000 A 
ATOM     24  C   UNL     1       7.617   5.259  18.047  0.00  0.00    +0.000 A 
ATOM     25  C   UNL     1       6.832   4.964  16.918  0.00  0.00    +0.000 A 
ATOM     26  C   UNL     1       7.415   4.798  15.655  0.00  0.00    +0.000 A 
ATOM     27  C   UNL     1       6.623   4.480  14.560  0.00  0.00    +0.000 A 
ATOM     28  C   UNL     1       5.269   4.320  14.772  0.00  0.00    +0.000 A 
ATOM     29  N   UNL     1       4.664   4.520  15.965  0.00  0.00    +0.000 NA
ATOM     30  C   UNL     1       5.427   4.862  17.025  0.00  0.00    +0.000 A 
ENDBRANCH  20  21
ENDBRANCH   3  20
TORSDOF 5
ENDMDL
MODEL 5
REMARK VINA RESULT:      -8.3      7.414     11.199
REMARK  Name = 
REMARK  7 active torsions:
REMARK  status: ('A' for Active; 'I' for Inactive)
REMARK    1  A    between atoms: C_1  and  O_2
REMARK    2  A    between atoms: O_2  and  C_3
REMARK    3  A    between atoms: C_5  and  C_6
REMARK    4  A    between atoms: N_8  and  C_9
REMARK    5  A    between atoms: C_9  and  C_10
REMARK    6  A    between atoms: C_24  and  N_25
REMARK    7  A    between atoms: C_28  and  C_29
REMARK                            x       y       z     vdW  Elec       q    Type
REMARK                         _______ _______ _______ _____ _____    ______ ____
ROOT
ATOM      1  C   UNL     1       0.548   9.760  19.588  0.00  0.00    +0.000 A 
ATOM      2  C   UNL     1       0.122  10.850  18.864  0.00  0.00    +0.000 A 
ATOM      3  N   UNL     1      -0.780  11.458  19.684  0.00  0.00    +0.000 N 
ATOM      4  N   UNL     1      -0.913  10.788  20.847  0.00  0.00    +0.000 NA
ATOM      5  N   UNL     1      -0.098   9.744  20.799  0.00  0.00    +0.000 NA
ENDROOT
BRANCH   1   8
ATOM      6  C   UNL     1       2.650   6.636  19.533  0.00  0.00    +0.000 A 
ATOM      7  C   UNL     1       1.775   7.645  19.955  0.00  0.00    +0.000 A 
ATOM      8  C   UNL     1       1.504   8.765  19.158  0.00  0.00    +0.000 A 
ATOM      9  C   UNL     1       2.160   8.898  17.937  0.00  0.00    +0.000 A 
ATOM     10  C   UNL     1       3.087   7.937  17.528  0.00  0.00    +0.000 A 
ATOM     11  C   UNL     1       3.338   6.797  18.317  0.00  0.00    +0.000 A 
BRANCH  11  12
ATOM     12  N   UNL     1       4.286   5.850  17.838  0.00  0.00    +0.000 N 
ATOM     13  C   UNL     1       4.058   4.644  17.213  0.00  0.00    +0.000 A 
ATOM     14  N   UNL     1       5.171   4.013  16.903  0.00  0.00    +0.000 NA
ATOM     15  C   UNL     1       6.181   4.827  17.342  0.00  0.00    +0.000 A 
ATOM     16  C   UNL     1       7.600   4.432  17.220  0.00  0.00    +0.000 C 
ATOM     17  C   UNL     1       5.659   5.977  17.893  0.00  0.00    +0.000 A 
ENDBRANCH  11  12
BRANCH   6  19
ATOM     18  C   UNL     1       1.782   4.765  20.706  0.00  0.00    +0.000 C 
ATOM     19  O   UNL     1       2.914   5.547  20.323  0.00  0.00    +0.000 OA
ENDBRANCH   6  19
ENDBRANCH   1   8
BRANCH   3  20
ATOM     20  C   UNL     1      -1.707  12.511  19.333  0.00  0.00    +0.000 C 
BRANCH  20  21
ATOM     21  C   UNL     1      -3.050  12.000  18.873  0.00  0.00    +0.000 A 
ATOM     22  C   UNL     1      -3.170  11.441  17.586  0.00  0.00    +0.000 A 
ATOM     23  C   UNL     1      -4.420  11.111  17.078  0.00  0.00    +0.000 A 
ATOM     24  C   UNL     1      -5.557  11.364  17.837  0.00  0.00    +0.000 A 
ATOM     25  C   UNL     1      -5.443  11.894  19.134  0.00  0.00    +0.000 A 
ATOM     26  C   UNL     1      -6.580  12.194  19.895  0.00  0.00    +0.000 A 
ATOM     27  C   UNL     1      -6.442  12.691  21.184  0.00  0.00    +0.000 A 
ATOM     28  C   UNL     1      -5.164  12.853  21.676  0.00  0.00    +0.000 A 
ATOM     29  N   UNL     1      -4.043  12.620  20.956  0.00  0.00    +0.000 NA
ATOM     30  C   UNL     1      -4.174  12.169  19.689  0.00  0.00    +0.000 A 
ENDBRANCH  20  21
ENDBRANCH   3  20
TORSDOF 5
ENDMDL
MODEL 6
REMARK VINA RESULT:      -8.3      7.098     11.100
REMARK  Name = 
REMARK  7 active torsions:
REMARK  status: ('A' for Active; 'I' for Inactive)
REMARK    1  A    between atoms: C_1  and  O_2
REMARK    2  A    between atoms: O_2  and  C_3
REMARK    3  A    between atoms: C_5  and  C_6
REMARK    4  A    between atoms: N_8  and  C_9
REMARK    5  A    between atoms: C_9  and  C_10
REMARK    6  A    between atoms: C_24  and  N_25
REMARK    7  A    between atoms: C_28  and  C_29
REMARK                            x       y       z     vdW  Elec       q    Type
REMARK                         _______ _______ _______ _____ _____    ______ ____
ROOT
ATOM      1  C   UNL     1       0.681   9.662  20.064  0.00  0.00    +0.000 A 
ATOM      2  C   UNL     1       0.577  10.977  19.674  0.00  0.00    +0.000 A 
ATOM      3  N   UNL     1      -0.360  11.497  20.516  0.00  0.00    +0.000 N 
ATOM      4  N   UNL     1      -0.816  10.564  21.375  0.00  0.00    +0.000 NA
ATOM      5  N   UNL     1      -0.179   9.433  21.109  0.00  0.00    +0.000 NA
ENDROOT
BRANCH   1   8
ATOM      6  C   UNL     1       2.615   6.464  19.596  0.00  0.00    +0.000 A 
ATOM      7  C   UNL     1       1.841   7.481  20.170  0.00  0.00    +0.000 A 
ATOM      8  C   UNL     1       1.536   8.657  19.473  0.00  0.00    +0.000 A 
ATOM      9  C   UNL     1       2.057   8.838  18.195  0.00  0.00    +0.000 A 
ATOM     10  C   UNL     1       2.887   7.866  17.630  0.00  0.00    +0.000 A 
ATOM     11  C   UNL     1       3.170   6.671  18.320  0.00  0.00    +0.000 A 
BRANCH  11  12
ATOM     12  N   UNL     1       4.013   5.717  17.684  0.00  0.00    +0.000 N 
ATOM     13  C   UNL     1       3.724   4.421  17.320  0.00  0.00    +0.000 A 
ATOM     14  N   UNL     1       4.745   3.814  16.750  0.00  0.00    +0.000 NA
ATOM     15  C   UNL     1       5.753   4.739  16.738  0.00  0.00    +0.000 A 
ATOM     16  C   UNL     1       7.097   4.409  16.218  0.00  0.00    +0.000 C 
ATOM     17  C   UNL     1       5.316   5.927  17.279  0.00  0.00    +0.000 A 
ENDBRANCH  11  12
BRANCH   6  19
ATOM     18  C   UNL     1       1.802   4.625  20.853  0.00  0.00    +0.000 C 
ATOM     19  O   UNL     1       2.914   5.320  20.289  0.00  0.00    +0.000 OA
ENDBRANCH   6  19
ENDBRANCH   1   8
BRANCH   3  20
ATOM     20  C   UNL     1      -1.028  12.774  20.396  0.00  0.00    +0.000 C 
BRANCH  20  21
ATOM     21  C   UNL     1      -2.510  12.656  20.145  0.00  0.00    +0.000 A 
ATOM     22  C   UNL     1      -3.411  13.001  21.170  0.00  0.00    +0.000 A 
ATOM     23  C   UNL     1      -4.770  12.753  21.024  0.00  0.00    +0.000 A 
ATOM     24  C   UNL     1      -5.233  12.132  19.869  0.00  0.00    +0.000 A 
ATOM     25  C   UNL     1      -4.344  11.812  18.829  0.00  0.00    +0.000 A 
ATOM     26  C   UNL     1      -4.786  11.149  17.677  0.00  0.00    +0.000 A 
ATOM     27  C   UNL     1      -3.894  10.868  16.651  0.00  0.00    +0.000 A 
ATOM     28  C   UNL     1      -2.587  11.280  16.805  0.00  0.00    +0.000 A 
ATOM     29  N   UNL     1      -2.113  11.879  17.921  0.00  0.00    +0.000 NA
ATOM     30  C   UNL     1      -2.970  12.123  18.935  0.00  0.00    +0.000 A 
ENDBRANCH  20  21
ENDBRANCH   3  20
TORSDOF 5
ENDMDL
MODEL 7
REMARK VINA RESULT:      -8.2      7.355      9.621
REMARK  Name = 
REMARK  7 active torsions:
REMARK  status: ('A' for Active; 'I' for Inactive)
REMARK    1  A    between atoms: C_1  and  O_2
REMARK    2  A    between atoms: O_2  and  C_3
REMARK    3  A    between atoms: C_5  and  C_6
REMARK    4  A    between atoms: N_8  and  C_9
REMARK    5  A    between atoms: C_9  and  C_10
REMARK    6  A    between atoms: C_24  and  N_25
REMARK    7  A    between atoms: C_28  and  C_29
REMARK                            x       y       z     vdW  Elec       q    Type
REMARK                         _______ _______ _______ _____ _____    ______ ____
ROOT
ATOM      1  C   UNL     1       0.867   9.146  20.421  0.00  0.00    +0.000 A 
ATOM      2  C   UNL     1       1.256   9.218  19.103  0.00  0.00    +0.000 A 
ATOM      3  N   UNL     1       2.060   8.130  18.937  0.00  0.00    +0.000 N 
ATOM      4  N   UNL     1       2.170   7.425  20.081  0.00  0.00    +0.000 NA
ATOM      5  N   UNL     1       1.436   8.039  20.999  0.00  0.00    +0.000 NA
ENDROOT
BRANCH   1   8
ATOM      6  C   UNL     1      -1.450  12.044  21.068  0.00  0.00    +0.000 A 
ATOM      7  C   UNL     1      -0.568  11.159  20.433  0.00  0.00    +0.000 A 
ATOM      8  C   UNL     1       0.012  10.083  21.116  0.00  0.00    +0.000 A 
ATOM      9  C   UNL     1      -0.257   9.919  22.472  0.00  0.00    +0.000 A 
ATOM     10  C   UNL     1      -1.079  10.829  23.140  0.00  0.00    +0.000 A 
ATOM     11  C   UNL     1      -1.686  11.895  22.447  0.00  0.00    +0.000 A 
BRANCH  11  12
ATOM     12  N   UNL     1      -2.522  12.780  23.184  0.00  0.00    +0.000 N 
ATOM     13  C   UNL     1      -3.860  12.652  23.483  0.00  0.00    +0.000 A 
ATOM     14  N   UNL     1      -4.323  13.665  24.185  0.00  0.00    +0.000 NA
ATOM     15  C   UNL     1      -3.254  14.502  24.358  0.00  0.00    +0.000 A 
ATOM     16  C   UNL     1      -3.392  15.795  25.063  0.00  0.00    +0.000 C 
ATOM     17  C   UNL     1      -2.129  13.963  23.777  0.00  0.00    +0.000 A 
ENDBRANCH  11  12
BRANCH   6  19
ATOM     18  C   UNL     1      -1.133  14.193  20.114  0.00  0.00    +0.000 C 
ATOM     19  O   UNL     1      -2.008  13.099  20.394  0.00  0.00    +0.000 OA
ENDBRANCH   6  19
ENDBRANCH   1   8
BRANCH   3  20
ATOM     20  C   UNL     1       2.929   7.851  17.816  0.00  0.00    +0.000 C 
BRANCH  20  21
ATOM     21  C   UNL     1       3.355   6.407  17.730  0.00  0.00    +0.000 A 
ATOM     22  C   UNL     1       2.384   5.395  17.847  0.00  0.00    +0.000 A 
ATOM     23  C   UNL     1       2.766   4.062  17.932  0.00  0.00    +0.000 A 
ATOM     24  C   UNL     1       4.118   3.734  17.930  0.00  0.00    +0.000 A 
ATOM     25  C   UNL     1       5.092   4.737  17.784  0.00  0.00    +0.000 A 
ATOM     26  C   UNL     1       6.458   4.430  17.823  0.00  0.00    +0.000 A 
ATOM     27  C   UNL     1       7.401   5.433  17.648  0.00  0.00    +0.000 A 
ATOM     28  C   UNL     1       6.942   6.714  17.419  0.00  0.00    +0.000 A 
ATOM     29  N   UNL     1       5.634   7.057  17.422  0.00  0.00    +0.000 NA
ATOM     30  C   UNL     1       4.714   6.089  17.626  0.00  0.00    +0.000 A 
ENDBRANCH  20  21
ENDBRANCH   3  20
TORSDOF 5
ENDMDL
MODEL 8
REMARK VINA RESULT:      -8.2      7.614     11.565
REMARK  Name = 
REMARK  7 active torsions:
REMARK  status: ('A' for Active; 'I' for Inactive)
REMARK    1  A    between atoms: C_1  and  O_2
REMARK    2  A    between atoms: O_2  and  C_3
REMARK    3  A    between atoms: C_5  and  C_6
REMARK    4  A    between atoms: N_8  and  C_9
REMARK    5  A    between atoms: C_9  and  C_10
REMARK    6  A    between atoms: C_24  and  N_25
REMARK    7  A    between atoms: C_28  and  C_29
REMARK                            x       y       z     vdW  Elec       q    Type
REMARK                         _______ _______ _______ _____ _____    ______ ____
ROOT
ATOM      1  C   UNL     1       0.683   9.597  20.608  0.00  0.00    +0.000 A 
ATOM      2  C   UNL     1       0.460  10.907  20.252  0.00  0.00    +0.000 A 
ATOM      3  N   UNL     1      -0.332  11.390  21.250  0.00  0.00    +0.000 N 
ATOM      4  N   UNL     1      -0.592  10.439  22.171  0.00  0.00    +0.000 NA
ATOM      5  N   UNL     1       0.031   9.334  21.787  0.00  0.00    +0.000 NA
ENDROOT
BRANCH   1   8
ATOM      6  C   UNL     1       2.528   6.430  19.744  0.00  0.00    +0.000 A 
ATOM      7  C   UNL     1       1.831   7.413  20.459  0.00  0.00    +0.000 A 
ATOM      8  C   UNL     1       1.458   8.627  19.868  0.00  0.00    +0.000 A 
ATOM      9  C   UNL     1       1.832   8.879  18.551  0.00  0.00    +0.000 A 
ATOM     10  C   UNL     1       2.584   7.941  17.842  0.00  0.00    +0.000 A 
ATOM     11  C   UNL     1       2.936   6.709  18.426  0.00  0.00    +0.000 A 
BRANCH  11  12
ATOM     12  N   UNL     1       3.694   5.792  17.646  0.00  0.00    +0.000 N 
ATOM     13  C   UNL     1       3.397   4.487  17.321  0.00  0.00    +0.000 A 
ATOM     14  N   UNL     1       4.328   3.923  16.579  0.00  0.00    +0.000 NA
ATOM     15  C   UNL     1       5.284   4.887  16.407  0.00  0.00    +0.000 A 
ATOM     16  C   UNL     1       6.532   4.613  15.664  0.00  0.00    +0.000 C 
ATOM     17  C   UNL     1       4.901   6.054  17.029  0.00  0.00    +0.000 A 
ENDBRANCH  11  12
BRANCH   6  19
ATOM     18  C   UNL     1       1.825   4.423  20.795  0.00  0.00    +0.000 C 
ATOM     19  O   UNL     1       2.895   5.248  20.332  0.00  0.00    +0.000 OA
ENDBRANCH   6  19
ENDBRANCH   1   8
BRANCH   3  20
ATOM     20  C   UNL     1      -1.060  12.640  21.260  0.00  0.00    +0.000 C 
BRANCH  20  21
ATOM     21  C   UNL     1      -2.531  12.481  20.970  0.00  0.00    +0.000 A 
ATOM     22  C   UNL     1      -2.954  12.291  19.641  0.00  0.00    +0.000 A 
ATOM     23  C   UNL     1      -4.307  12.301  19.326  0.00  0.00    +0.000 A 
ATOM     24  C   UNL     1      -5.243  12.531  20.329  0.00  0.00    +0.000 A 
ATOM     25  C   UNL     1      -4.829  12.693  21.663  0.00  0.00    +0.000 A 
ATOM     26  C   UNL     1      -5.754  12.968  22.678  0.00  0.00    +0.000 A 
ATOM     27  C   UNL     1      -5.325  13.096  23.993  0.00  0.00    +0.000 A 
ATOM     28  C   UNL     1      -3.981  12.924  24.249  0.00  0.00    +0.000 A 
ATOM     29  N   UNL     1      -3.053  12.705  23.291  0.00  0.00    +0.000 NA
ATOM     30  C   UNL     1      -3.461  12.614  22.007  0.00  0.00    +0.000 A 
ENDBRANCH  20  21
ENDBRANCH   3  20
TORSDOF 5
ENDMDL
MODEL 9
REMARK VINA RESULT:      -8.2      6.371     10.167
REMARK  Name = 
REMARK  7 active torsions:
REMARK  status: ('A' for Active; 'I' for Inactive)
REMARK    1  A    between atoms: C_1  and  O_2
REMARK    2  A    between atoms: O_2  and  C_3
REMARK    3  A    between atoms: C_5  and  C_6
REMARK    4  A    between atoms: N_8  and  C_9
REMARK    5  A    between atoms: C_9  and  C_10
REMARK    6  A    between atoms: C_24  and  N_25
REMARK    7  A    between atoms: C_28  and  C_29
REMARK                            x       y       z     vdW  Elec       q    Type
REMARK                         _______ _______ _______ _____ _____    ______ ____
ROOT
ATOM      1  C   UNL     1       1.941   7.614  19.851  0.00  0.00    +0.000 A 
ATOM      2  C   UNL     1       1.527   8.926  19.876  0.00  0.00    +0.000 A 
ATOM      3  N   UNL     1       0.686   8.985  20.947  0.00  0.00    +0.000 N 
ATOM      4  N   UNL     1       0.578   7.784  21.551  0.00  0.00    +0.000 NA
ATOM      5  N   UNL     1       1.350   6.935  20.887  0.00  0.00    +0.000 NA
ENDROOT
BRANCH   1   8
ATOM      6  C   UNL     1       3.993   5.042  18.019  0.00  0.00    +0.000 A 
ATOM      7  C   UNL     1       3.176   5.660  18.974  0.00  0.00    +0.000 A 
ATOM      8  C   UNL     1       2.839   7.017  18.888  0.00  0.00    +0.000 A 
ATOM      9  C   UNL     1       3.371   7.779  17.851  0.00  0.00    +0.000 A 
ATOM     10  C   UNL     1       4.241   7.199  16.927  0.00  0.00    +0.000 A 
ATOM     11  C   UNL     1       4.557   5.828  16.997  0.00  0.00    +0.000 A 
BRANCH  11  12
ATOM     12  N   UNL     1       5.442   5.296  16.017  0.00  0.00    +0.000 N 
ATOM     13  C   UNL     1       6.819   5.323  15.995  0.00  0.00    +0.000 A 
ATOM     14  N   UNL     1       7.322   4.735  14.930  0.00  0.00    +0.000 NA
ATOM     15  C   UNL     1       6.239   4.303  14.212  0.00  0.00    +0.000 A 
ATOM     16  C   UNL     1       6.398   3.632  12.904  0.00  0.00    +0.000 C 
ATOM     17  C   UNL     1       5.074   4.610  14.878  0.00  0.00    +0.000 A 
ENDBRANCH  11  12
BRANCH   6  19
ATOM     18  C   UNL     1       4.558   3.226  19.436  0.00  0.00    +0.000 C 
ATOM     19  O   UNL     1       4.323   3.715  18.115  0.00  0.00    +0.000 OA
ENDBRANCH   6  19
ENDBRANCH   1   8
BRANCH   3  20
ATOM     20  C   UNL     1      -0.215  10.063  21.290  0.00  0.00    +0.000 C 
BRANCH  20  21
ATOM     21  C   UNL     1      -0.422  11.054  20.172  0.00  0.00    +0.000 A 
ATOM     22  C   UNL     1      -1.417  10.805  19.208  0.00  0.00    +0.000 A 
ATOM     23  C   UNL     1      -1.523  11.614  18.083  0.00  0.00    +0.000 A 
ATOM     24  C   UNL     1      -0.619  12.654  17.900  0.00  0.00    +0.000 A 
ATOM     25  C   UNL     1       0.359  12.927  18.873  0.00  0.00    +0.000 A 
ATOM     26  C   UNL     1       1.303  13.944  18.684  0.00  0.00    +0.000 A 
ATOM     27  C   UNL     1       2.241  14.213  19.672  0.00  0.00    +0.000 A 
ATOM     28  C   UNL     1       2.189  13.463  20.829  0.00  0.00    +0.000 A 
ATOM     29  N   UNL     1       1.324  12.443  21.027  0.00  0.00    +0.000 NA
ATOM     30  C   UNL     1       0.432  12.156  20.054  0.00  0.00    +0.000 A 
ENDBRANCH  20  21
ENDBRANCH   3  20
TORSDOF 5
ENDMDL
