MODEL 1
REMARK VINA RESULT:      -8.5      0.000      0.000
REMARK  Name = 
REMARK  6 active torsions:
REMARK  status: ('A' for Active; 'I' for Inactive)
REMARK    1  A    between atoms: C_2  and  C_4
REMARK    2  A    between atoms: C_8  and  O_9
REMARK    3  A    between atoms: O_9  and  C_10
REMARK    4  A    between atoms: C_10  and  C_11
REMARK    5  A    between atoms: N_13  and  C_14
REMARK    6  A    between atoms: C_17  and  C_18
REMARK                            x       y       z     vdW  Elec       q    Type
REMARK                         _______ _______ _______ _____ _____    ______ ____
ROOT
ATOM      1  C   UNL     1       0.476   9.122  21.069  0.00  0.00    +0.000 C 
ATOM      2  O   UNL     1      -0.004   9.462  19.991  0.00  0.00    +0.000 OA
ATOM      3  N   UNL     1       1.318   8.042  21.286  0.00  0.00    +0.000 N 
ATOM      4  H   UNL     1       1.508   7.806  22.255  0.00  0.00    +0.000 HD
ENDROOT
BRANCH   3   5
ATOM      5  C   UNL     1       1.892   7.207  20.308  0.00  0.00    +0.000 A 
ATOM      6  C   UNL     1       2.377   7.670  19.082  0.00  0.00    +0.000 A 
ATOM      7  C   UNL     1       2.943   6.782  18.159  0.00  0.00    +0.000 A 
ATOM      8  C   UNL     1       3.054   5.421  18.456  0.00  0.00    +0.000 A 
ATOM      9  C   UNL     1       2.634   4.972  19.711  0.00  0.00    +0.000 A 
ATOM     10  C   UNL     1       2.021   5.849  20.613  0.00  0.00    +0.000 A 
BRANCH   8  11
ATOM     11  C   UNL     1       3.737   4.541  17.468  0.00  0.00    +0.000 C 
ATOM     12  O   UNL     1       3.036   3.713  16.882  0.00  0.00    +0.000 OA
ATOM     13  N   UNL     1       5.096   4.666  17.204  0.00  0.00    +0.000 N 
ATOM     14  C   UNL     1       6.111   5.429  17.939  0.00  0.00    +0.000 C 
ATOM     15  C   UNL     1       6.821   6.387  16.971  0.00  0.00    +0.000 C 
ATOM     16  O   UNL     1       7.403   5.665  15.873  0.00  0.00    +0.000 OA
ATOM     17  C   UNL     1       6.403   4.922  15.150  0.00  0.00    +0.000 C 
ATOM     18  C   UNL     1       5.665   3.940  16.067  0.00  0.00    +0.000 C 
ENDBRANCH   8  11
ENDBRANCH   3   5
BRANCH   1  19
ATOM     19  C   UNL     1       0.180   9.908  22.337  0.00  0.00    +0.000 C 
BRANCH  19  20
ATOM     20  O   UNL     1       0.080  11.282  21.986  0.00  0.00    +0.000 OA
BRANCH  20  25
ATOM     21  C   UNL     1      -3.193  12.556  23.176  0.00  0.00    +0.000 A 
ATOM     22  C   UNL     1      -3.747  12.923  21.946  0.00  0.00    +0.000 A 
ATOM     23  C   UNL     1      -3.005  12.757  20.778  0.00  0.00    +0.000 A 
ATOM     24  C   UNL     1      -1.723  12.211  20.842  0.00  0.00    +0.000 A 
ATOM     25  C   UNL     1      -1.165  11.839  22.069  0.00  0.00    +0.000 A 
ATOM     26  C   UNL     1      -1.896  12.031  23.240  0.00  0.00    +0.000 A 
BRANCH  21  28
ATOM     27  N   UNL     1      -4.807  11.756  24.769  0.00  0.00    +0.000 NA
ATOM     28  C   UNL     1      -3.979  12.691  24.433  0.00  0.00    +0.000 C 
ATOM     29  N   UNL     1      -3.853  13.811  25.203  0.00  0.00    +0.000 N 
ATOM     30  H   UNL     1      -5.235  11.981  25.669  0.00  0.00    +0.000 HD
ATOM     31  H   UNL     1      -4.634  14.006  25.816  0.00  0.00    +0.000 HD
ATOM     32  H   UNL     1      -3.555  14.646  24.707  0.00  0.00    +0.000 HD
ENDBRANCH  21  28
ENDBRANCH  20  25
ENDBRANCH  19  20
ENDBRANCH   1  19
TORSDOF 6
ENDMDL
MODEL 2
REMARK VINA RESULT:      -8.5      3.761      9.546
REMARK  Name = 
REMARK  6 active torsions:
REMARK  status: ('A' for Active; 'I' for Inactive)
REMARK    1  A    between atoms: C_2  and  C_4
REMARK    2  A    between atoms: C_8  and  O_9
REMARK    3  A    between atoms: O_9  and  C_10
REMARK    4  A    between atoms: C_10  and  C_11
REMARK    5  A    between atoms: N_13  and  C_14
REMARK    6  A    between atoms: C_17  and  C_18
REMARK                            x       y       z     vdW  Elec       q    Type
REMARK                         _______ _______ _______ _____ _____    ______ ____
ROOT
ATOM      1  C   UNL     1       1.997   4.988  20.268  0.00  0.00    +0.000 C 
ATOM      2  O   UNL     1       0.821   4.744  20.011  0.00  0.00    +0.000 OA
ATOM      3  N   UNL     1       2.634   6.209  20.107  0.00  0.00    +0.000 N 
ATOM      4  H   UNL     1       3.642   6.211  20.224  0.00  0.00    +0.000 HD
ENDROOT
BRANCH   3   5
ATOM      5  C   UNL     1       2.038   7.433  19.745  0.00  0.00    +0.000 A 
ATOM      6  C   UNL     1       2.050   7.945  18.445  0.00  0.00    +0.000 A 
ATOM      7  C   UNL     1       1.428   9.166  18.155  0.00  0.00    +0.000 A 
ATOM      8  C   UNL     1       0.767   9.884  19.156  0.00  0.00    +0.000 A 
ATOM      9  C   UNL     1       0.695   9.335  20.439  0.00  0.00    +0.000 A 
ATOM     10  C   UNL     1       1.359   8.141  20.741  0.00  0.00    +0.000 A 
BRANCH   8  11
ATOM     11  C   UNL     1       0.058  11.135  18.769  0.00  0.00    +0.000 C 
ATOM     12  O   UNL     1      -1.146  11.038  18.518  0.00  0.00    +0.000 OA
ATOM     13  N   UNL     1       0.718  12.357  18.720  0.00  0.00    +0.000 N 
ATOM     14  C   UNL     1       2.159  12.628  18.777  0.00  0.00    +0.000 C 
ATOM     15  C   UNL     1       2.442  13.619  19.915  0.00  0.00    +0.000 C 
ATOM     16  O   UNL     1       1.688  14.830  19.739  0.00  0.00    +0.000 OA
ATOM     17  C   UNL     1       0.274  14.561  19.690  0.00  0.00    +0.000 C 
ATOM     18  C   UNL     1      -0.070  13.581  18.562  0.00  0.00    +0.000 C 
ENDBRANCH   8  11
ENDBRANCH   3   5
BRANCH   1  19
ATOM     19  C   UNL     1       2.912   3.912  20.832  0.00  0.00    +0.000 C 
BRANCH  19  20
ATOM     20  O   UNL     1       3.392   3.133  19.744  0.00  0.00    +0.000 OA
BRANCH  20  25
ATOM     21  C   UNL     1       6.369   4.992  18.549  0.00  0.00    +0.000 A 
ATOM     22  C   UNL     1       6.177   4.854  17.171  0.00  0.00    +0.000 A 
ATOM     23  C   UNL     1       5.085   4.130  16.696  0.00  0.00    +0.000 A 
ATOM     24  C   UNL     1       4.182   3.564  17.597  0.00  0.00    +0.000 A 
ATOM     25  C   UNL     1       4.368   3.702  18.976  0.00  0.00    +0.000 A 
ATOM     26  C   UNL     1       5.475   4.402  19.451  0.00  0.00    +0.000 A 
BRANCH  21  28
ATOM     27  N   UNL     1       8.036   5.468  20.215  0.00  0.00    +0.000 NA
ATOM     28  C   UNL     1       7.509   5.790  19.079  0.00  0.00    +0.000 C 
ATOM     29  N   UNL     1       7.966   6.873  18.388  0.00  0.00    +0.000 N 
ATOM     30  H   UNL     1       8.825   6.085  20.417  0.00  0.00    +0.000 HD
ATOM     31  H   UNL     1       8.470   7.558  18.938  0.00  0.00    +0.000 HD
ATOM     32  H   UNL     1       7.286   7.318  17.778  0.00  0.00    +0.000 HD
ENDBRANCH  21  28
ENDBRANCH  20  25
ENDBRANCH  19  20
ENDBRANCH   1  19
TORSDOF 6
ENDMDL
MODEL 3
REMARK VINA RESULT:      -8.4      2.079      3.100
REMARK  Name = 
REMARK  6 active torsions:
REMARK  status: ('A' for Active; 'I' for Inactive)
REMARK    1  A    between atoms: C_2  and  C_4
REMARK    2  A    between atoms: C_8  and  O_9
REMARK    3  A    between atoms: O_9  and  C_10
REMARK    4  A    between atoms: C_10  and  C_11
REMARK    5  A    between atoms: N_13  and  C_14
REMARK    6  A    between atoms: C_17  and  C_18
REMARK                            x       y       z     vdW  Elec       q    Type
REMARK                         _______ _______ _______ _____ _____    ______ ____
ROOT
ATOM      1  C   UNL     1      -0.766  10.886  19.205  0.00  0.00    +0.000 C 
ATOM      2  O   UNL     1      -1.502  10.224  18.478  0.00  0.00    +0.000 OA
ATOM      3  N   UNL     1       0.494  10.516  19.650  0.00  0.00    +0.000 N 
ATOM      4  H   UNL     1       0.912  11.105  20.363  0.00  0.00    +0.000 HD
ENDROOT
BRANCH   3   5
ATOM      5  C   UNL     1       1.230   9.380  19.257  0.00  0.00    +0.000 A 
ATOM      6  C   UNL     1       1.819   9.237  17.998  0.00  0.00    +0.000 A 
ATOM      7  C   UNL     1       2.544   8.082  17.679  0.00  0.00    +0.000 A 
ATOM      8  C   UNL     1       2.711   7.063  18.621  0.00  0.00    +0.000 A 
ATOM      9  C   UNL     1       2.182   7.241  19.902  0.00  0.00    +0.000 A 
ATOM     10  C   UNL     1       1.414   8.370  20.205  0.00  0.00    +0.000 A 
BRANCH   8  11
ATOM     11  C   UNL     1       3.559   5.896  18.249  0.00  0.00    +0.000 C 
ATOM     12  O   UNL     1       4.778   6.083  18.216  0.00  0.00    +0.000 OA
ATOM     13  N   UNL     1       3.002   4.653  17.977  0.00  0.00    +0.000 N 
ATOM     14  C   UNL     1       1.594   4.300  17.763  0.00  0.00    +0.000 C 
ATOM     15  C   UNL     1       1.197   3.186  18.742  0.00  0.00    +0.000 C 
ATOM     16  O   UNL     1       2.052   2.041  18.588  0.00  0.00    +0.000 OA
ATOM     17  C   UNL     1       3.433   2.389  18.805  0.00  0.00    +0.000 C 
ATOM     18  C   UNL     1       3.889   3.495  17.845  0.00  0.00    +0.000 C 
ENDBRANCH   8  11
ENDBRANCH   3   5
BRANCH   1  19
ATOM     19  C   UNL     1      -1.191  12.258  19.704  0.00  0.00    +0.000 C 
BRANCH  19  20
ATOM     20  O   UNL     1      -1.588  12.126  21.062  0.00  0.00    +0.000 OA
BRANCH  20  25
ATOM     21  C   UNL     1      -4.787  12.866  22.785  0.00  0.00    +0.000 A 
ATOM     22  C   UNL     1      -5.574  13.170  21.669  0.00  0.00    +0.000 A 
ATOM     23  C   UNL     1      -5.006  13.142  20.397  0.00  0.00    +0.000 A 
ATOM     24  C   UNL     1      -3.663  12.794  20.243  0.00  0.00    +0.000 A 
ATOM     25  C   UNL     1      -2.873  12.487  21.355  0.00  0.00    +0.000 A 
ATOM     26  C   UNL     1      -3.434  12.542  22.630  0.00  0.00    +0.000 A 
BRANCH  21  28
ATOM     27  N   UNL     1      -4.903  12.052  25.045  0.00  0.00    +0.000 NA
ATOM     28  C   UNL     1      -5.381  12.856  24.150  0.00  0.00    +0.000 C 
ATOM     29  N   UNL     1      -6.442  13.661  24.442  0.00  0.00    +0.000 N 
ATOM     30  H   UNL     1      -5.391  12.194  25.931  0.00  0.00    +0.000 HD
ATOM     31  H   UNL     1      -7.008  13.367  25.228  0.00  0.00    +0.000 HD
ATOM     32  H   UNL     1      -7.020  13.922  23.648  0.00  0.00    +0.000 HD
ENDBRANCH  21  28
ENDBRANCH  20  25
ENDBRANCH  19  20
ENDBRANCH   1  19
TORSDOF 6
ENDMDL
MODEL 4
REMARK VINA RESULT:      -8.4      3.723      9.850
REMARK  Name = 
REMARK  6 active torsions:
REMARK  status: ('A' for Active; 'I' for Inactive)
REMARK    1  A    between atoms: C_2  and  C_4
REMARK    2  A    between atoms: C_8  and  O_9
REMARK    3  A    between atoms: O_9  and  C_10
REMARK    4  A    between atoms: C_10  and  C_11
REMARK    5  A    between atoms: N_13  and  C_14
REMARK    6  A    between atoms: C_17  and  C_18
REMARK                            x       y       z     vdW  Elec       q    Type
REMARK                         _______ _______ _______ _____ _____    ______ ____
ROOT
ATOM      1  C   UNL     1       2.312   5.545  19.154  0.00  0.00    +0.000 C 
ATOM      2  O   UNL     1       1.781   5.454  18.050  0.00  0.00    +0.000 OA
ATOM      3  N   UNL     1       2.418   6.696  19.920  0.00  0.00    +0.000 N 
ATOM      4  H   UNL     1       3.014   6.638  20.740  0.00  0.00    +0.000 HD
ENDROOT
BRANCH   3   5
ATOM      5  C   UNL     1       1.831   7.948  19.650  0.00  0.00    +0.000 A 
ATOM      6  C   UNL     1       1.092   8.674  20.587  0.00  0.00    +0.000 A 
ATOM      7  C   UNL     1       0.544   9.918  20.252  0.00  0.00    +0.000 A 
ATOM      8  C   UNL     1       0.745  10.466  18.982  0.00  0.00    +0.000 A 
ATOM      9  C   UNL     1       1.545   9.771  18.071  0.00  0.00    +0.000 A 
ATOM     10  C   UNL     1       2.050   8.505  18.387  0.00  0.00    +0.000 A 
BRANCH   8  11
ATOM     11  C   UNL     1       0.205  11.827  18.712  0.00  0.00    +0.000 C 
ATOM     12  O   UNL     1      -0.961  11.895  18.316  0.00  0.00    +0.000 OA
ATOM     13  N   UNL     1       0.973  12.966  18.920  0.00  0.00    +0.000 N 
ATOM     14  C   UNL     1       2.415  13.072  19.176  0.00  0.00    +0.000 C 
ATOM     15  C   UNL     1       2.641  13.859  20.474  0.00  0.00    +0.000 C 
ATOM     16  O   UNL     1       2.027  15.157  20.399  0.00  0.00    +0.000 OA
ATOM     17  C   UNL     1       0.611  15.049  20.154  0.00  0.00    +0.000 C 
ATOM     18  C   UNL     1       0.324  14.278  18.861  0.00  0.00    +0.000 C 
ENDBRANCH   8  11
ENDBRANCH   3   5
BRANCH   1  19
ATOM     19  C   UNL     1       2.927   4.327  19.826  0.00  0.00    +0.000 C 
BRANCH  19  20
ATOM     20  O   UNL     1       3.565   3.549  18.821  0.00  0.00    +0.000 OA
BRANCH  20  25
ATOM     21  C   UNL     1       6.887   5.162  18.485  0.00  0.00    +0.000 A 
ATOM     22  C   UNL     1       7.072   5.001  17.108  0.00  0.00    +0.000 A 
ATOM     23  C   UNL     1       6.101   4.344  16.354  0.00  0.00    +0.000 A 
ATOM     24  C   UNL     1       4.946   3.866  16.973  0.00  0.00    +0.000 A 
ATOM     25  C   UNL     1       4.755   4.027  18.349  0.00  0.00    +0.000 A 
ATOM     26  C   UNL     1       5.738   4.660  19.108  0.00  0.00    +0.000 A 
BRANCH  21  28
ATOM     27  N   UNL     1       8.273   5.393  20.436  0.00  0.00    +0.000 NA
ATOM     28  C   UNL     1       7.893   5.891  19.305  0.00  0.00    +0.000 C 
ATOM     29  N   UNL     1       8.381   7.092  18.881  0.00  0.00    +0.000 N 
ATOM     30  H   UNL     1       8.989   5.990  20.853  0.00  0.00    +0.000 HD
ATOM     31  H   UNL     1       8.762   7.686  19.606  0.00  0.00    +0.000 HD
ATOM     32  H   UNL     1       7.769   7.614  18.260  0.00  0.00    +0.000 HD
ENDBRANCH  21  28
ENDBRANCH  20  25
ENDBRANCH  19  20
ENDBRANCH   1  19
TORSDOF 6
ENDMDL
MODEL 5
REMARK VINA RESULT:      -8.4      2.472     10.564
REMARK  Name = 
REMARK  6 active torsions:
REMARK  status: ('A' for Active; 'I' for Inactive)
REMARK    1  A    between atoms: C_2  and  C_4
REMARK    2  A    between atoms: C_8  and  O_9
REMARK    3  A    between atoms: O_9  and  C_10
REMARK    4  A    between atoms: C_10  and  C_11
REMARK    5  A    between atoms: N_13  and  C_14
REMARK    6  A    between atoms: C_17  and  C_18
REMARK                            x       y       z     vdW  Elec       q    Type
REMARK                         _______ _______ _______ _____ _____    ______ ____
ROOT
ATOM      1  C   UNL     1       2.549   5.074  19.310  0.00  0.00    +0.000 C 
ATOM      2  O   UNL     1       1.535   4.780  18.682  0.00  0.00    +0.000 OA
ATOM      3  N   UNL     1       2.922   6.347  19.713  0.00  0.00    +0.000 N 
ATOM      4  H   UNL     1       3.859   6.443  20.093  0.00  0.00    +0.000 HD
ENDROOT
BRANCH   3   5
ATOM      5  C   UNL     1       2.161   7.527  19.602  0.00  0.00    +0.000 A 
ATOM      6  C   UNL     1       2.064   8.277  18.427  0.00  0.00    +0.000 A 
ATOM      7  C   UNL     1       1.280   9.437  18.386  0.00  0.00    +0.000 A 
ATOM      8  C   UNL     1       0.564   9.853  19.512  0.00  0.00    +0.000 A 
ATOM      9  C   UNL     1       0.606   9.062  20.663  0.00  0.00    +0.000 A 
ATOM     10  C   UNL     1       1.429   7.932  20.721  0.00  0.00    +0.000 A 
BRANCH   8  11
ATOM     11  C   UNL     1      -0.313  11.050  19.383  0.00  0.00    +0.000 C 
ATOM     12  O   UNL     1      -0.749  11.301  18.256  0.00  0.00    +0.000 OA
ATOM     13  N   UNL     1      -0.643  11.829  20.484  0.00  0.00    +0.000 N 
ATOM     14  C   UNL     1      -0.062  11.813  21.832  0.00  0.00    +0.000 C 
ATOM     15  C   UNL     1      -1.182  11.603  22.862  0.00  0.00    +0.000 C 
ATOM     16  O   UNL     1      -2.188  12.623  22.738  0.00  0.00    +0.000 OA
ATOM     17  C   UNL     1      -2.760  12.633  21.416  0.00  0.00    +0.000 C 
ATOM     18  C   UNL     1      -1.685  12.848  20.343  0.00  0.00    +0.000 C 
ENDBRANCH   8  11
ENDBRANCH   3   5
BRANCH   1  19
ATOM     19  C   UNL     1       3.540   4.002  19.737  0.00  0.00    +0.000 C 
BRANCH  19  20
ATOM     20  O   UNL     1       4.052   3.387  18.563  0.00  0.00    +0.000 OA
BRANCH  20  25
ATOM     21  C   UNL     1       6.532   4.652  16.113  0.00  0.00    +0.000 A 
ATOM     22  C   UNL     1       7.397   5.310  16.994  0.00  0.00    +0.000 A 
ATOM     23  C   UNL     1       7.109   5.329  18.357  0.00  0.00    +0.000 A 
ATOM     24  C   UNL     1       5.971   4.677  18.836  0.00  0.00    +0.000 A 
ATOM     25  C   UNL     1       5.106   4.015  17.960  0.00  0.00    +0.000 A 
ATOM     26  C   UNL     1       5.378   4.021  16.593  0.00  0.00    +0.000 A 
BRANCH  21  28
ATOM     27  N   UNL     1       6.307   3.655  13.937  0.00  0.00    +0.000 NA
ATOM     28  C   UNL     1       6.837   4.589  14.657  0.00  0.00    +0.000 C 
ATOM     29  N   UNL     1       7.698   5.488  14.098  0.00  0.00    +0.000 N 
ATOM     30  H   UNL     1       6.584   3.773  12.961  0.00  0.00    +0.000 HD
ATOM     31  H   UNL     1       8.131   5.193  13.232  0.00  0.00    +0.000 HD
ATOM     32  H   UNL     1       8.381   5.888  14.735  0.00  0.00    +0.000 HD
ENDBRANCH  21  28
ENDBRANCH  20  25
ENDBRANCH  19  20
ENDBRANCH   1  19
TORSDOF 6
ENDMDL
MODEL 6
REMARK VINA RESULT:      -8.4      1.962      3.032
REMARK  Name = 
REMARK  6 active torsions:
REMARK  status: ('A' for Active; 'I' for Inactive)
REMARK    1  A    between atoms: C_2  and  C_4
REMARK    2  A    between atoms: C_8  and  O_9
REMARK    3  A    between atoms: O_9  and  C_10
REMARK    4  A    between atoms: C_10  and  C_11
REMARK    5  A    between atoms: N_13  and  C_14
REMARK    6  A    between atoms: C_17  and  C_18
REMARK                            x       y       z     vdW  Elec       q    Type
REMARK                         _______ _______ _______ _____ _____    ______ ____
ROOT
ATOM      1  C   UNL     1      -0.793  10.802  19.661  0.00  0.00    +0.000 C 
ATOM      2  O   UNL     1      -1.539  10.232  18.869  0.00  0.00    +0.000 OA
ATOM      3  N   UNL     1       0.475  10.386  20.037  0.00  0.00    +0.000 N 
ATOM      4  H   UNL     1       0.903  10.885  20.811  0.00  0.00    +0.000 HD
ENDROOT
BRANCH   3   5
ATOM      5  C   UNL     1       1.208   9.311  19.495  0.00  0.00    +0.000 A 
ATOM      6  C   UNL     1       1.737   9.308  18.202  0.00  0.00    +0.000 A 
ATOM      7  C   UNL     1       2.463   8.207  17.733  0.00  0.00    +0.000 A 
ATOM      8  C   UNL     1       2.689   7.100  18.556  0.00  0.00    +0.000 A 
ATOM      9  C   UNL     1       2.220   7.135  19.871  0.00  0.00    +0.000 A 
ATOM     10  C   UNL     1       1.451   8.213  20.325  0.00  0.00    +0.000 A 
BRANCH   8  11
ATOM     11  C   UNL     1       3.536   5.994  18.027  0.00  0.00    +0.000 C 
ATOM     12  O   UNL     1       4.735   6.237  17.872  0.00  0.00    +0.000 OA
ATOM     13  N   UNL     1       3.001   4.743  17.745  0.00  0.00    +0.000 N 
ATOM     14  C   UNL     1       1.592   4.340  17.664  0.00  0.00    +0.000 C 
ATOM     15  C   UNL     1       1.349   3.159  18.614  0.00  0.00    +0.000 C 
ATOM     16  O   UNL     1       2.225   2.063  18.301  0.00  0.00    +0.000 OA
ATOM     17  C   UNL     1       3.607   2.460  18.387  0.00  0.00    +0.000 C 
ATOM     18  C   UNL     1       3.911   3.635  17.450  0.00  0.00    +0.000 C 
ENDBRANCH   8  11
ENDBRANCH   3   5
BRANCH   1  19
ATOM     19  C   UNL     1      -1.214  12.101  20.332  0.00  0.00    +0.000 C 
BRANCH  19  20
ATOM     20  O   UNL     1      -0.733  12.077  21.669  0.00  0.00    +0.000 OA
BRANCH  20  25
ATOM     21  C   UNL     1      -3.422  13.285  23.920  0.00  0.00    +0.000 A 
ATOM     22  C   UNL     1      -2.792  14.426  24.425  0.00  0.00    +0.000 A 
ATOM     23  C   UNL     1      -1.494  14.734  24.018  0.00  0.00    +0.000 A 
ATOM     24  C   UNL     1      -0.841  13.912  23.099  0.00  0.00    +0.000 A 
ATOM     25  C   UNL     1      -1.468  12.772  22.589  0.00  0.00    +0.000 A 
ATOM     26  C   UNL     1      -2.755  12.448  23.016  0.00  0.00    +0.000 A 
BRANCH  21  28
ATOM     27  N   UNL     1      -5.097  11.765  24.736  0.00  0.00    +0.000 NA
ATOM     28  C   UNL     1      -4.820  12.955  24.312  0.00  0.00    +0.000 C 
ATOM     29  N   UNL     1      -5.805  13.891  24.188  0.00  0.00    +0.000 N 
ATOM     30  H   UNL     1      -6.083  11.713  24.998  0.00  0.00    +0.000 HD
ATOM     31  H   UNL     1      -6.746  13.524  24.124  0.00  0.00    +0.000 HD
ATOM     32  H   UNL     1      -5.638  14.605  23.486  0.00  0.00    +0.000 HD
ENDBRANCH  21  28
ENDBRANCH  20  25
ENDBRANCH  19  20
ENDBRANCH   1  19
TORSDOF 6
ENDMDL
MODEL 7
REMARK VINA RESULT:      -8.4      1.967      3.187
REMARK  Name = 
REMARK  6 active torsions:
REMARK  status: ('A' for Active; 'I' for Inactive)
REMARK    1  A    between atoms: C_2  and  C_4
REMARK    2  A    between atoms: C_8  and  O_9
REMARK    3  A    between atoms: O_9  and  C_10
REMARK    4  A    between atoms: C_10  and  C_11
REMARK    5  A    between atoms: N_13  and  C_14
REMARK    6  A    between atoms: C_17  and  C_18
REMARK                            x       y       z     vdW  Elec       q    Type
REMARK                         _______ _______ _______ _____ _____    ______ ____
ROOT
ATOM      1  C   UNL     1       0.536  10.669  21.124  0.00  0.00    +0.000 C 
ATOM      2  O   UNL     1       1.243  10.368  22.082  0.00  0.00    +0.000 OA
ATOM      3  N   UNL     1       0.596  10.114  19.855  0.00  0.00    +0.000 N 
ATOM      4  H   UNL     1       0.046  10.573  19.136  0.00  0.00    +0.000 HD
ENDROOT
BRANCH   3   5
ATOM      5  C   UNL     1       1.379   9.016  19.449  0.00  0.00    +0.000 A 
ATOM      6  C   UNL     1       1.635   7.906  20.258  0.00  0.00    +0.000 A 
ATOM      7  C   UNL     1       2.417   6.845  19.784  0.00  0.00    +0.000 A 
ATOM      8  C   UNL     1       2.938   6.868  18.487  0.00  0.00    +0.000 A 
ATOM      9  C   UNL     1       2.620   7.945  17.656  0.00  0.00    +0.000 A 
ATOM     10  C   UNL     1       1.882   9.029  18.145  0.00  0.00    +0.000 A 
BRANCH   8  11
ATOM     11  C   UNL     1       3.694   5.675  18.014  0.00  0.00    +0.000 C 
ATOM     12  O   UNL     1       4.913   5.809  17.876  0.00  0.00    +0.000 OA
ATOM     13  N   UNL     1       3.058   4.465  17.765  0.00  0.00    +0.000 N 
ATOM     14  C   UNL     1       1.621   4.182  17.670  0.00  0.00    +0.000 C 
ATOM     15  C   UNL     1       1.262   3.061  18.655  0.00  0.00    +0.000 C 
ATOM     16  O   UNL     1       2.045   1.883  18.398  0.00  0.00    +0.000 OA
ATOM     17  C   UNL     1       3.454   2.163  18.498  0.00  0.00    +0.000 C 
ATOM     18  C   UNL     1       3.875   3.273  17.527  0.00  0.00    +0.000 C 
ENDBRANCH   8  11
ENDBRANCH   3   5
BRANCH   1  19
ATOM     19  C   UNL     1      -0.543  11.734  21.255  0.00  0.00    +0.000 C 
BRANCH  19  20
ATOM     20  O   UNL     1      -0.215  12.553  22.370  0.00  0.00    +0.000 OA
BRANCH  20  25
ATOM     21  C   UNL     1      -3.546  13.205  23.865  0.00  0.00    +0.000 A 
ATOM     22  C   UNL     1      -3.284  14.444  24.456  0.00  0.00    +0.000 A 
ATOM     23  C   UNL     1      -2.010  15.000  24.356  0.00  0.00    +0.000 A 
ATOM     24  C   UNL     1      -1.010  14.325  23.654  0.00  0.00    +0.000 A 
ATOM     25  C   UNL     1      -1.268  13.087  23.058  0.00  0.00    +0.000 A 
ATOM     26  C   UNL     1      -2.534  12.518  23.182  0.00  0.00    +0.000 A 
BRANCH  21  28
ATOM     27  N   UNL     1      -5.295  12.019  25.013  0.00  0.00    +0.000 NA
ATOM     28  C   UNL     1      -4.908  12.607  23.928  0.00  0.00    +0.000 C 
ATOM     29  N   UNL     1      -5.726  12.650  22.837  0.00  0.00    +0.000 N 
ATOM     30  H   UNL     1      -6.259  11.700  24.907  0.00  0.00    +0.000 HD
ATOM     31  H   UNL     1      -6.456  11.950  22.814  0.00  0.00    +0.000 HD
ATOM     32  H   UNL     1      -5.251  12.718  21.942  0.00  0.00    +0.000 HD
ENDBRANCH  21  28
ENDBRANCH  20  25
ENDBRANCH  19  20
ENDBRANCH   1  19
TORSDOF 6
ENDMDL
MODEL 8
REMARK VINA RESULT:      -8.3      3.750      9.620
REMARK  Name = 
REMARK  6 active torsions:
REMARK  status: ('A' for Active; 'I' for Inactive)
REMARK    1  A    between atoms: C_2  and  C_4
REMARK    2  A    between atoms: C_8  and  O_9
REMARK    3  A    between atoms: O_9  and  C_10
REMARK    4  A    between atoms: C_10  and  C_11
REMARK    5  A    between atoms: N_13  and  C_14
REMARK    6  A    between atoms: C_17  and  C_18
REMARK                            x       y       z     vdW  Elec       q    Type
REMARK                         _______ _______ _______ _____ _____    ______ ____
ROOT
ATOM      1  C   UNL     1       2.062   5.135  20.410  0.00  0.00    +0.000 C 
ATOM      2  O   UNL     1       0.872   4.849  20.302  0.00  0.00    +0.000 OA
ATOM      3  N   UNL     1       2.636   6.368  20.143  0.00  0.00    +0.000 N 
ATOM      4  H   UNL     1       3.651   6.402  20.139  0.00  0.00    +0.000 HD
ENDROOT
BRANCH   3   5
ATOM      5  C   UNL     1       1.962   7.564  19.825  0.00  0.00    +0.000 A 
ATOM      6  C   UNL     1       1.266   8.333  20.762  0.00  0.00    +0.000 A 
ATOM      7  C   UNL     1       0.626   9.517  20.376  0.00  0.00    +0.000 A 
ATOM      8  C   UNL     1       0.689   9.962  19.052  0.00  0.00    +0.000 A 
ATOM      9  C   UNL     1       1.446   9.229  18.134  0.00  0.00    +0.000 A 
ATOM     10  C   UNL     1       2.043   8.019  18.507  0.00  0.00    +0.000 A 
BRANCH   8  11
ATOM     11  C   UNL     1       0.055  11.268  18.720  0.00  0.00    +0.000 C 
ATOM     12  O   UNL     1      -1.145  11.248  18.439  0.00  0.00    +0.000 OA
ATOM     13  N   UNL     1       0.780  12.453  18.752  0.00  0.00    +0.000 N 
ATOM     14  C   UNL     1       2.231  12.644  18.853  0.00  0.00    +0.000 C 
ATOM     15  C   UNL     1       2.538  13.555  20.050  0.00  0.00    +0.000 C 
ATOM     16  O   UNL     1       1.853  14.813  19.925  0.00  0.00    +0.000 OA
ATOM     17  C   UNL     1       0.428  14.622  19.832  0.00  0.00    +0.000 C 
ATOM     18  C   UNL     1       0.060  13.724  18.645  0.00  0.00    +0.000 C 
ENDBRANCH   8  11
ENDBRANCH   3   5
BRANCH   1  19
ATOM     19  C   UNL     1       3.071   4.101  20.886  0.00  0.00    +0.000 C 
BRANCH  19  20
ATOM     20  O   UNL     1       3.382   3.255  19.787  0.00  0.00    +0.000 OA
BRANCH  20  25
ATOM     21  C   UNL     1       6.241   4.964  18.157  0.00  0.00    +0.000 A 
ATOM     22  C   UNL     1       5.915   4.715  16.821  0.00  0.00    +0.000 A 
ATOM     23  C   UNL     1       4.777   3.971  16.516  0.00  0.00    +0.000 A 
ATOM     24  C   UNL     1       3.962   3.494  17.545  0.00  0.00    +0.000 A 
ATOM     25  C   UNL     1       4.283   3.744  18.882  0.00  0.00    +0.000 A 
ATOM     26  C   UNL     1       5.436   4.464  19.188  0.00  0.00    +0.000 A 
BRANCH  21  28
ATOM     27  N   UNL     1       7.846   6.691  17.679  0.00  0.00    +0.000 NA
ATOM     28  C   UNL     1       7.433   5.787  18.506  0.00  0.00    +0.000 C 
ATOM     29  N   UNL     1       8.102   5.561  19.673  0.00  0.00    +0.000 N 
ATOM     30  H   UNL     1       8.642   7.188  18.080  0.00  0.00    +0.000 HD
ATOM     31  H   UNL     1       9.063   5.879  19.690  0.00  0.00    +0.000 HD
ATOM     32  H   UNL     1       8.017   4.620  20.047  0.00  0.00    +0.000 HD
ENDBRANCH  21  28
ENDBRANCH  20  25
ENDBRANCH  19  20
ENDBRANCH   1  19
TORSDOF 6
ENDMDL
MODEL 9
REMARK VINA RESULT:      -8.3      2.489      3.262
REMARK  Name = 
REMARK  6 active torsions:
REMARK  status: ('A' for Active; 'I' for Inactive)
REMARK    1  A    between atoms: C_2  and  C_4
REMARK    2  A    between atoms: C_8  and  O_9
REMARK    3  A    between atoms: O_9  and  C_10
REMARK    4  A    between atoms: C_10  and  C_11
REMARK    5  A    between atoms: N_13  and  C_14
REMARK    6  A    between atoms: C_17  and  C_18
REMARK                            x       y       z     vdW  Elec       q    Type
REMARK                         _______ _______ _______ _____ _____    ______ ____
ROOT
ATOM      1  C   UNL     1       0.950   9.333  22.027  0.00  0.00    +0.000 C 
ATOM      2  O   UNL     1       2.020   9.283  22.629  0.00  0.00    +0.000 OA
ATOM      3  N   UNL     1       0.656   8.705  20.827  0.00  0.00    +0.000 N 
ATOM      4  H   UNL     1      -0.221   8.964  20.386  0.00  0.00    +0.000 HD
ENDROOT
BRANCH   3   5
ATOM      5  C   UNL     1       1.468   7.788  20.130  0.00  0.00    +0.000 A 
ATOM      6  C   UNL     1       1.701   6.479  20.559  0.00  0.00    +0.000 A 
ATOM      7  C   UNL     1       2.514   5.619  19.811  0.00  0.00    +0.000 A 
ATOM      8  C   UNL     1       3.089   6.048  18.610  0.00  0.00    +0.000 A 
ATOM      9  C   UNL     1       2.795   7.333  18.148  0.00  0.00    +0.000 A 
ATOM     10  C   UNL     1       2.025   8.210  18.920  0.00  0.00    +0.000 A 
BRANCH   8  11
ATOM     11  C   UNL     1       3.878   5.062  17.820  0.00  0.00    +0.000 C 
ATOM     12  O   UNL     1       3.255   4.119  17.326  0.00  0.00    +0.000 OA
ATOM     13  N   UNL     1       5.246   5.215  17.629  0.00  0.00    +0.000 N 
ATOM     14  C   UNL     1       6.173   6.133  18.301  0.00  0.00    +0.000 C 
ATOM     15  C   UNL     1       6.913   6.966  17.245  0.00  0.00    +0.000 C 
ATOM     16  O   UNL     1       7.602   6.115  16.314  0.00  0.00    +0.000 OA
ATOM     17  C   UNL     1       6.689   5.219  15.652  0.00  0.00    +0.000 C 
ATOM     18  C   UNL     1       5.925   4.353  16.660  0.00  0.00    +0.000 C 
ENDBRANCH   8  11
ENDBRANCH   3   5
BRANCH   1  19
ATOM     19  C   UNL     1      -0.221  10.127  22.585  0.00  0.00    +0.000 C 
BRANCH  19  20
ATOM     20  O   UNL     1       0.058  11.508  22.397  0.00  0.00    +0.000 OA
BRANCH  20  25
ATOM     21  C   UNL     1      -1.072  12.246  18.943  0.00  0.00    +0.000 A 
ATOM     22  C   UNL     1       0.030  12.986  18.503  0.00  0.00    +0.000 A 
ATOM     23  C   UNL     1       1.089  13.231  19.376  0.00  0.00    +0.000 A 
ATOM     24  C   UNL     1       1.050  12.722  20.675  0.00  0.00    +0.000 A 
ATOM     25  C   UNL     1      -0.048  11.979  21.118  0.00  0.00    +0.000 A 
ATOM     26  C   UNL     1      -1.119  11.758  20.254  0.00  0.00    +0.000 A 
BRANCH  21  28
ATOM     27  N   UNL     1      -3.412  11.971  18.463  0.00  0.00    +0.000 NA
ATOM     28  C   UNL     1      -2.198  11.941  18.018  0.00  0.00    +0.000 C 
ATOM     29  N   UNL     1      -1.946  11.598  16.722  0.00  0.00    +0.000 N 
ATOM     30  H   UNL     1      -4.064  11.779  17.700  0.00  0.00    +0.000 HD
ATOM     31  H   UNL     1      -2.680  11.075  16.261  0.00  0.00    +0.000 HD
ATOM     32  H   UNL     1      -1.034  11.184  16.552  0.00  0.00    +0.000 HD
ENDBRANCH  21  28
ENDBRANCH  20  25
ENDBRANCH  19  20
ENDBRANCH   1  19
TORSDOF 6
ENDMDL
