MODEL 1
REMARK VINA RESULT:      -6.4      0.000      0.000
REMARK  Name = 
REMARK  10 active torsions:
REMARK  status: ('A' for Active; 'I' for Inactive)
REMARK    1  A    between atoms: C_1  and  C_2
REMARK    2  A    between atoms: C_2  and  C_3
REMARK    3  A    between atoms: C_2  and  N_4
REMARK    4  A    between atoms: N_4  and  C_5
REMARK    5  A    between atoms: C_5  and  C_6
REMARK    6  A    between atoms: C_6  and  O_7
REMARK    7  A    between atoms: C_6  and  C_8
REMARK    8  A    between atoms: C_8  and  O_9
REMARK    9  A    between atoms: O_9  and  C_10
REMARK   10  A    between atoms: C_14  and  O_15
REMARK                            x       y       z     vdW  Elec       q    Type
REMARK                         _______ _______ _______ _____ _____    ______ ____
ROOT
ATOM      1  C   UNL     1       3.832   3.197  17.510  0.00  0.00    +0.000 C 
ENDROOT
BRANCH   1   2
ATOM      2  C   UNL     1       3.610   2.229  18.689  0.00  0.00    +0.000 C 
BRANCH   2   3
ATOM      3  O   UNL     1       4.140   0.923  18.416  0.00  0.00    +0.000 OA
ATOM      4  H   UNL     1       3.929   0.699  17.492  0.00  0.00    +0.000 HD
ENDBRANCH   2   3
BRANCH   2   5
ATOM      5  C   UNL     1       2.095   2.115  18.955  0.00  0.00    +0.000 C 
BRANCH   5   6
ATOM      6  N   UNL     1       1.447   3.431  18.940  0.00  0.00    +0.000 NA
ATOM      7  H   UNL     1       2.088   4.091  18.490  0.00  0.00    +0.000 HD
BRANCH   6   9
ATOM      8  C   UNL     1       1.294   2.782  21.276  0.00  0.00    +0.000 C 
ATOM      9  C   UNL     1       1.062   3.912  20.271  0.00  0.00    +0.000 C 
ATOM     10  C   UNL     1       1.876   5.138  20.693  0.00  0.00    +0.000 C 
ENDBRANCH   6   9
ENDBRANCH   5   6
ENDBRANCH   2   5
ENDBRANCH   1   2
BRANCH   1  11
ATOM     11  O   UNL     1       3.822   4.553  17.957  0.00  0.00    +0.000 OA
BRANCH  11  12
ATOM     12  C   UNL     1       5.051   5.142  18.122  0.00  0.00    +0.000 A 
ATOM     13  C   UNL     1       5.484   5.922  17.047  0.00  0.00    +0.000 A 
ATOM     14  C   UNL     1       6.731   6.553  17.083  0.00  0.00    +0.000 A 
ATOM     15  C   UNL     1       7.558   6.406  18.194  0.00  0.00    +0.000 A 
ATOM     16  C   UNL     1       7.119   5.638  19.267  0.00  0.00    +0.000 A 
ATOM     17  C   UNL     1       5.870   5.019  19.246  0.00  0.00    +0.000 A 
BRANCH  16  18
ATOM     18  O   UNL     1       7.897   5.458  20.377  0.00  0.00    +0.000 OA
ATOM     19  H   UNL     1       7.576   4.682  20.856  0.00  0.00    +0.000 HD
ENDBRANCH  16  18
ENDBRANCH  11  12
ENDBRANCH   1  11
TORSDOF 8
ENDMDL
MODEL 2
REMARK VINA RESULT:      -6.3      0.707      1.137
REMARK  Name = 
REMARK  10 active torsions:
REMARK  status: ('A' for Active; 'I' for Inactive)
REMARK    1  A    between atoms: C_1  and  C_2
REMARK    2  A    between atoms: C_2  and  C_3
REMARK    3  A    between atoms: C_2  and  N_4
REMARK    4  A    between atoms: N_4  and  C_5
REMARK    5  A    between atoms: C_5  and  C_6
REMARK    6  A    between atoms: C_6  and  O_7
REMARK    7  A    between atoms: C_6  and  C_8
REMARK    8  A    between atoms: C_8  and  O_9
REMARK    9  A    between atoms: O_9  and  C_10
REMARK   10  A    between atoms: C_14  and  O_15
REMARK                            x       y       z     vdW  Elec       q    Type
REMARK                         _______ _______ _______ _____ _____    ______ ____
ROOT
ATOM      1  C   UNL     1       4.445   3.569  17.140  0.00  0.00    +0.000 C 
ENDROOT
BRANCH   1   2
ATOM      2  C   UNL     1       3.690   2.703  18.167  0.00  0.00    +0.000 C 
BRANCH   2   3
ATOM      3  O   UNL     1       4.038   1.315  18.057  0.00  0.00    +0.000 OA
ATOM      4  H   UNL     1       5.005   1.239  18.149  0.00  0.00    +0.000 HD
ENDBRANCH   2   3
BRANCH   2   5
ATOM      5  C   UNL     1       2.174   2.866  17.931  0.00  0.00    +0.000 C 
BRANCH   5   6
ATOM      6  N   UNL     1       1.638   4.018  18.662  0.00  0.00    +0.000 NA
ATOM      7  H   UNL     1       1.958   4.868  18.188  0.00  0.00    +0.000 HD
BRANCH   6   9
ATOM      8  C   UNL     1       1.801   5.464  20.607  0.00  0.00    +0.000 C 
ATOM      9  C   UNL     1       2.017   4.044  20.079  0.00  0.00    +0.000 C 
ATOM     10  C   UNL     1       1.185   3.064  20.911  0.00  0.00    +0.000 C 
ENDBRANCH   6   9
ENDBRANCH   5   6
ENDBRANCH   2   5
ENDBRANCH   1   2
BRANCH   1  11
ATOM     11  O   UNL     1       4.389   4.950  17.500  0.00  0.00    +0.000 OA
BRANCH  11  12
ATOM     12  C   UNL     1       5.567   5.507  17.934  0.00  0.00    +0.000 A 
ATOM     13  C   UNL     1       6.105   6.485  17.096  0.00  0.00    +0.000 A 
ATOM     14  C   UNL     1       7.315   7.109  17.414  0.00  0.00    +0.000 A 
ATOM     15  C   UNL     1       7.999   6.756  18.574  0.00  0.00    +0.000 A 
ATOM     16  C   UNL     1       7.456   5.789  19.413  0.00  0.00    +0.000 A 
ATOM     17  C   UNL     1       6.241   5.174  19.111  0.00  0.00    +0.000 A 
BRANCH  16  18
ATOM     18  O   UNL     1       8.093   5.403  20.560  0.00  0.00    +0.000 OA
ATOM     19  H   UNL     1       7.479   5.499  21.300  0.00  0.00    +0.000 HD
ENDBRANCH  16  18
ENDBRANCH  11  12
ENDBRANCH   1  11
TORSDOF 8
ENDMDL
MODEL 3
REMARK VINA RESULT:      -6.2      1.243      1.697
REMARK  Name = 
REMARK  10 active torsions:
REMARK  status: ('A' for Active; 'I' for Inactive)
REMARK    1  A    between atoms: C_1  and  C_2
REMARK    2  A    between atoms: C_2  and  C_3
REMARK    3  A    between atoms: C_2  and  N_4
REMARK    4  A    between atoms: N_4  and  C_5
REMARK    5  A    between atoms: C_5  and  C_6
REMARK    6  A    between atoms: C_6  and  O_7
REMARK    7  A    between atoms: C_6  and  C_8
REMARK    8  A    between atoms: C_8  and  O_9
REMARK    9  A    between atoms: O_9  and  C_10
REMARK   10  A    between atoms: C_14  and  O_15
REMARK                            x       y       z     vdW  Elec       q    Type
REMARK                         _______ _______ _______ _____ _____    ______ ____
ROOT
ATOM      1  C   UNL     1       3.594   3.005  17.537  0.00  0.00    +0.000 C 
ENDROOT
BRANCH   1   2
ATOM      2  C   UNL     1       3.473   2.013  18.711  0.00  0.00    +0.000 C 
BRANCH   2   3
ATOM      3  O   UNL     1       3.932   0.701  18.352  0.00  0.00    +0.000 OA
ATOM      4  H   UNL     1       3.376   0.050  18.818  0.00  0.00    +0.000 HD
ENDBRANCH   2   3
BRANCH   2   5
ATOM      5  C   UNL     1       1.993   1.933  19.139  0.00  0.00    +0.000 C 
BRANCH   5   6
ATOM      6  N   UNL     1       1.348   3.249  19.088  0.00  0.00    +0.000 NA
ATOM      7  H   UNL     1       1.970   3.884  18.580  0.00  0.00    +0.000 HD
BRANCH   6   9
ATOM      8  C   UNL     1       1.357   2.737  21.463  0.00  0.00    +0.000 C 
ATOM      9  C   UNL     1       1.021   3.795  20.409  0.00  0.00    +0.000 C 
ATOM     10  C   UNL     1       1.806   5.074  20.710  0.00  0.00    +0.000 C 
ENDBRANCH   6   9
ENDBRANCH   5   6
ENDBRANCH   2   5
ENDBRANCH   1   2
BRANCH   1  11
ATOM     11  O   UNL     1       3.754   4.341  18.016  0.00  0.00    +0.000 OA
BRANCH  11  12
ATOM     12  C   UNL     1       5.026   4.853  17.957  0.00  0.00    +0.000 A 
ATOM     13  C   UNL     1       5.640   5.062  19.194  0.00  0.00    +0.000 A 
ATOM     14  C   UNL     1       6.926   5.604  19.269  0.00  0.00    +0.000 A 
ATOM     15  C   UNL     1       7.610   5.946  18.105  0.00  0.00    +0.000 A 
ATOM     16  C   UNL     1       7.001   5.726  16.874  0.00  0.00    +0.000 A 
ATOM     17  C   UNL     1       5.724   5.170  16.790  0.00  0.00    +0.000 A 
BRANCH  16  18
ATOM     18  O   UNL     1       7.628   6.051  15.703  0.00  0.00    +0.000 OA
ATOM     19  H   UNL     1       7.479   5.340  15.066  0.00  0.00    +0.000 HD
ENDBRANCH  16  18
ENDBRANCH  11  12
ENDBRANCH   1  11
TORSDOF 8
ENDMDL
MODEL 4
REMARK VINA RESULT:      -6.1      2.486      5.742
REMARK  Name = 
REMARK  10 active torsions:
REMARK  status: ('A' for Active; 'I' for Inactive)
REMARK    1  A    between atoms: C_1  and  C_2
REMARK    2  A    between atoms: C_2  and  C_3
REMARK    3  A    between atoms: C_2  and  N_4
REMARK    4  A    between atoms: N_4  and  C_5
REMARK    5  A    between atoms: C_5  and  C_6
REMARK    6  A    between atoms: C_6  and  O_7
REMARK    7  A    between atoms: C_6  and  C_8
REMARK    8  A    between atoms: C_8  and  O_9
REMARK    9  A    between atoms: O_9  and  C_10
REMARK   10  A    between atoms: C_14  and  O_15
REMARK                            x       y       z     vdW  Elec       q    Type
REMARK                         _______ _______ _______ _____ _____    ______ ____
ROOT
ATOM      1  C   UNL     1       6.108   5.253  19.199  0.00  0.00    +0.000 C 
ENDROOT
BRANCH   1   2
ATOM      2  C   UNL     1       7.504   5.466  18.581  0.00  0.00    +0.000 C 
BRANCH   2   3
ATOM      3  O   UNL     1       8.248   6.479  19.275  0.00  0.00    +0.000 OA
ATOM      4  H   UNL     1       8.949   6.038  19.789  0.00  0.00    +0.000 HD
ENDBRANCH   2   3
BRANCH   2   5
ATOM      5  C   UNL     1       7.331   5.885  17.106  0.00  0.00    +0.000 C 
BRANCH   5   6
ATOM      6  N   UNL     1       7.384   4.726  16.210  0.00  0.00    +0.000 NA
ATOM      7  H   UNL     1       8.150   4.877  15.546  0.00  0.00    +0.000 HD
BRANCH   6   9
ATOM      8  C   UNL     1       5.288   5.754  15.540  0.00  0.00    +0.000 C 
ATOM      9  C   UNL     1       6.127   4.475  15.498  0.00  0.00    +0.000 C 
ATOM     10  C   UNL     1       6.365   4.076  14.039  0.00  0.00    +0.000 C 
ENDBRANCH   6   9
ENDBRANCH   5   6
ENDBRANCH   2   5
ENDBRANCH   1   2
BRANCH   1  11
ATOM     11  O   UNL     1       5.632   3.933  18.937  0.00  0.00    +0.000 OA
BRANCH  11  12
ATOM     12  C   UNL     1       4.269   3.788  18.865  0.00  0.00    +0.000 A 
ATOM     13  C   UNL     1       3.806   3.064  17.764  0.00  0.00    +0.000 A 
ATOM     14  C   UNL     1       2.436   2.869  17.564  0.00  0.00    +0.000 A 
ATOM     15  C   UNL     1       1.515   3.401  18.463  0.00  0.00    +0.000 A 
ATOM     16  C   UNL     1       1.979   4.112  19.565  0.00  0.00    +0.000 A 
ATOM     17  C   UNL     1       3.345   4.296  19.780  0.00  0.00    +0.000 A 
BRANCH  16  18
ATOM     18  O   UNL     1       1.115   4.660  20.472  0.00  0.00    +0.000 OA
ATOM     19  H   UNL     1       0.558   5.305  20.017  0.00  0.00    +0.000 HD
ENDBRANCH  16  18
ENDBRANCH  11  12
ENDBRANCH   1  11
TORSDOF 8
ENDMDL
MODEL 5
REMARK VINA RESULT:      -6.0      1.499      1.876
REMARK  Name = 
REMARK  10 active torsions:
REMARK  status: ('A' for Active; 'I' for Inactive)
REMARK    1  A    between atoms: C_1  and  C_2
REMARK    2  A    between atoms: C_2  and  C_3
REMARK    3  A    between atoms: C_2  and  N_4
REMARK    4  A    between atoms: N_4  and  C_5
REMARK    5  A    between atoms: C_5  and  C_6
REMARK    6  A    between atoms: C_6  and  O_7
REMARK    7  A    between atoms: C_6  and  C_8
REMARK    8  A    between atoms: C_8  and  O_9
REMARK    9  A    between atoms: O_9  and  C_10
REMARK   10  A    between atoms: C_14  and  O_15
REMARK                            x       y       z     vdW  Elec       q    Type
REMARK                         _______ _______ _______ _____ _____    ______ ____
ROOT
ATOM      1  C   UNL     1       4.614   3.748  19.642  0.00  0.00    +0.000 C 
ENDROOT
BRANCH   1   2
ATOM      2  C   UNL     1       4.099   2.298  19.742  0.00  0.00    +0.000 C 
BRANCH   2   3
ATOM      3  O   UNL     1       5.175   1.355  19.850  0.00  0.00    +0.000 OA
ATOM      4  H   UNL     1       5.539   1.415  20.751  0.00  0.00    +0.000 HD
ENDBRANCH   2   3
BRANCH   2   5
ATOM      5  C   UNL     1       3.271   1.981  18.479  0.00  0.00    +0.000 C 
BRANCH   5   6
ATOM      6  N   UNL     1       1.881   1.660  18.816  0.00  0.00    +0.000 NA
ATOM      7  H   UNL     1       1.574   0.903  18.197  0.00  0.00    +0.000 HD
BRANCH   6   9
ATOM      8  C   UNL     1       0.834   3.429  20.110  0.00  0.00    +0.000 C 
ATOM      9  C   UNL     1       0.972   2.806  18.719  0.00  0.00    +0.000 C 
ATOM     10  C   UNL     1       1.490   3.865  17.741  0.00  0.00    +0.000 C 
ENDBRANCH   6   9
ENDBRANCH   5   6
ENDBRANCH   2   5
ENDBRANCH   1   2
BRANCH   1  11
ATOM     11  O   UNL     1       5.930   3.783  19.089  0.00  0.00    +0.000 OA
BRANCH  11  12
ATOM     12  C   UNL     1       6.330   4.987  18.564  0.00  0.00    +0.000 A 
ATOM     13  C   UNL     1       5.619   5.411  17.440  0.00  0.00    +0.000 A 
ATOM     14  C   UNL     1       5.948   6.609  16.798  0.00  0.00    +0.000 A 
ATOM     15  C   UNL     1       6.996   7.392  17.275  0.00  0.00    +0.000 A 
ATOM     16  C   UNL     1       7.696   6.973  18.401  0.00  0.00    +0.000 A 
ATOM     17  C   UNL     1       7.363   5.788  19.057  0.00  0.00    +0.000 A 
BRANCH  16  18
ATOM     18  O   UNL     1       8.738   7.704  18.903  0.00  0.00    +0.000 OA
ATOM     19  H   UNL     1       9.540   7.167  18.859  0.00  0.00    +0.000 HD
ENDBRANCH  16  18
ENDBRANCH  11  12
ENDBRANCH   1  11
TORSDOF 8
ENDMDL
MODEL 6
REMARK VINA RESULT:      -6.0      2.475      5.678
REMARK  Name = 
REMARK  10 active torsions:
REMARK  status: ('A' for Active; 'I' for Inactive)
REMARK    1  A    between atoms: C_1  and  C_2
REMARK    2  A    between atoms: C_2  and  C_3
REMARK    3  A    between atoms: C_2  and  N_4
REMARK    4  A    between atoms: N_4  and  C_5
REMARK    5  A    between atoms: C_5  and  C_6
REMARK    6  A    between atoms: C_6  and  O_7
REMARK    7  A    between atoms: C_6  and  C_8
REMARK    8  A    between atoms: C_8  and  O_9
REMARK    9  A    between atoms: O_9  and  C_10
REMARK   10  A    between atoms: C_14  and  O_15
REMARK                            x       y       z     vdW  Elec       q    Type
REMARK                         _______ _______ _______ _____ _____    ______ ____
ROOT
ATOM      1  C   UNL     1       5.647   5.071  19.267  0.00  0.00    +0.000 C 
ENDROOT
BRANCH   1   2
ATOM      2  C   UNL     1       7.084   5.208  18.726  0.00  0.00    +0.000 C 
BRANCH   2   3
ATOM      3  O   UNL     1       8.007   5.605  19.750  0.00  0.00    +0.000 OA
ATOM      4  H   UNL     1       7.702   6.456  20.117  0.00  0.00    +0.000 HD
ENDBRANCH   2   3
BRANCH   2   5
ATOM      5  C   UNL     1       7.090   6.263  17.601  0.00  0.00    +0.000 C 
BRANCH   5   6
ATOM      6  N   UNL     1       7.438   5.667  16.307  0.00  0.00    +0.000 NA
ATOM      7  H   UNL     1       8.144   6.264  15.866  0.00  0.00    +0.000 HD
BRANCH   6   9
ATOM      8  C   UNL     1       5.945   3.992  15.377  0.00  0.00    +0.000 C 
ATOM      9  C   UNL     1       6.288   5.483  15.416  0.00  0.00    +0.000 C 
ATOM     10  C   UNL     1       5.064   6.270  15.892  0.00  0.00    +0.000 C 
ENDBRANCH   6   9
ENDBRANCH   5   6
ENDBRANCH   2   5
ENDBRANCH   1   2
BRANCH   1  11
ATOM     11  O   UNL     1       5.016   3.902  18.745  0.00  0.00    +0.000 OA
BRANCH  11  12
ATOM     12  C   UNL     1       3.727   3.676  19.161  0.00  0.00    +0.000 A 
ATOM     13  C   UNL     1       2.738   3.993  18.228  0.00  0.00    +0.000 A 
ATOM     14  C   UNL     1       1.385   3.833  18.541  0.00  0.00    +0.000 A 
ATOM     15  C   UNL     1       1.009   3.357  19.795  0.00  0.00    +0.000 A 
ATOM     16  C   UNL     1       1.997   3.032  20.719  0.00  0.00    +0.000 A 
ATOM     17  C   UNL     1       3.349   3.173  20.407  0.00  0.00    +0.000 A 
BRANCH  16  18
ATOM     18  O   UNL     1       1.679   2.567  21.965  0.00  0.00    +0.000 OA
ATOM     19  H   UNL     1       0.948   3.095  22.313  0.00  0.00    +0.000 HD
ENDBRANCH  16  18
ENDBRANCH  11  12
ENDBRANCH   1  11
TORSDOF 8
ENDMDL
MODEL 7
REMARK VINA RESULT:      -5.9      2.451      5.856
REMARK  Name = 
REMARK  10 active torsions:
REMARK  status: ('A' for Active; 'I' for Inactive)
REMARK    1  A    between atoms: C_1  and  C_2
REMARK    2  A    between atoms: C_2  and  C_3
REMARK    3  A    between atoms: C_2  and  N_4
REMARK    4  A    between atoms: N_4  and  C_5
REMARK    5  A    between atoms: C_5  and  C_6
REMARK    6  A    between atoms: C_6  and  O_7
REMARK    7  A    between atoms: C_6  and  C_8
REMARK    8  A    between atoms: C_8  and  O_9
REMARK    9  A    between atoms: O_9  and  C_10
REMARK   10  A    between atoms: C_14  and  O_15
REMARK                            x       y       z     vdW  Elec       q    Type
REMARK                         _______ _______ _______ _____ _____    ______ ____
ROOT
ATOM      1  C   UNL     1       4.728   4.924  17.285  0.00  0.00    +0.000 C 
ENDROOT
BRANCH   1   2
ATOM      2  C   UNL     1       5.766   4.430  16.258  0.00  0.00    +0.000 C 
BRANCH   2   3
ATOM      3  O   UNL     1       5.717   3.005  16.092  0.00  0.00    +0.000 OA
ATOM      4  H   UNL     1       6.584   2.711  15.757  0.00  0.00    +0.000 HD
ENDBRANCH   2   3
BRANCH   2   5
ATOM      5  C   UNL     1       7.173   4.835  16.744  0.00  0.00    +0.000 C 
BRANCH   5   6
ATOM      6  N   UNL     1       7.409   6.271  16.565  0.00  0.00    +0.000 NA
ATOM      7  H   UNL     1       8.335   6.388  16.143  0.00  0.00    +0.000 HD
BRANCH   6   9
ATOM      8  C   UNL     1       7.896   6.204  18.944  0.00  0.00    +0.000 C 
ATOM      9  C   UNL     1       7.307   7.044  17.808  0.00  0.00    +0.000 C 
ATOM     10  C   UNL     1       8.063   8.372  17.718  0.00  0.00    +0.000 C 
ENDBRANCH   6   9
ENDBRANCH   5   6
ENDBRANCH   2   5
ENDBRANCH   1   2
BRANCH   1  11
ATOM     11  O   UNL     1       4.621   4.012  18.379  0.00  0.00    +0.000 OA
BRANCH  11  12
ATOM     12  C   UNL     1       3.356   3.809  18.871  0.00  0.00    +0.000 A 
ATOM     13  C   UNL     1       3.030   4.563  20.000  0.00  0.00    +0.000 A 
ATOM     14  C   UNL     1       1.779   4.426  20.612  0.00  0.00    +0.000 A 
ATOM     15  C   UNL     1       0.845   3.530  20.100  0.00  0.00    +0.000 A 
ATOM     16  C   UNL     1       1.168   2.788  18.969  0.00  0.00    +0.000 A 
ATOM     17  C   UNL     1       2.407   2.931  18.343  0.00  0.00    +0.000 A 
BRANCH  16  18
ATOM     18  O   UNL     1       0.287   1.890  18.432  0.00  0.00    +0.000 OA
ATOM     19  H   UNL     1      -0.225   2.335  17.743  0.00  0.00    +0.000 HD
ENDBRANCH  16  18
ENDBRANCH  11  12
ENDBRANCH   1  11
TORSDOF 8
ENDMDL
MODEL 8
REMARK VINA RESULT:      -5.9      3.782      6.479
REMARK  Name = 
REMARK  10 active torsions:
REMARK  status: ('A' for Active; 'I' for Inactive)
REMARK    1  A    between atoms: C_1  and  C_2
REMARK    2  A    between atoms: C_2  and  C_3
REMARK    3  A    between atoms: C_2  and  N_4
REMARK    4  A    between atoms: N_4  and  C_5
REMARK    5  A    between atoms: C_5  and  C_6
REMARK    6  A    between atoms: C_6  and  O_7
REMARK    7  A    between atoms: C_6  and  C_8
REMARK    8  A    between atoms: C_8  and  O_9
REMARK    9  A    between atoms: O_9  and  C_10
REMARK   10  A    between atoms: C_14  and  O_15
REMARK                            x       y       z     vdW  Elec       q    Type
REMARK                         _______ _______ _______ _____ _____    ______ ____
ROOT
ATOM      1  C   UNL     1       5.970   3.995  16.297  0.00  0.00    +0.000 C 
ENDROOT
BRANCH   1   2
ATOM      2  C   UNL     1       7.123   4.621  15.487  0.00  0.00    +0.000 C 
BRANCH   2   3
ATOM      3  O   UNL     1       7.450   5.939  15.952  0.00  0.00    +0.000 OA
ATOM      4  H   UNL     1       6.684   6.517  15.784  0.00  0.00    +0.000 HD
ENDBRANCH   2   3
BRANCH   2   5
ATOM      5  C   UNL     1       6.700   4.697  14.005  0.00  0.00    +0.000 C 
BRANCH   5   6
ATOM      6  N   UNL     1       6.208   3.403  13.521  0.00  0.00    +0.000 NA
ATOM      7  H   UNL     1       6.875   2.683  13.814  0.00  0.00    +0.000 HD
BRANCH   6   9
ATOM      8  C   UNL     1       6.737   2.131  11.520  0.00  0.00    +0.000 C 
ATOM      9  C   UNL     1       6.005   3.358  12.069  0.00  0.00    +0.000 C 
ATOM     10  C   UNL     1       4.522   3.267  11.701  0.00  0.00    +0.000 C 
ENDBRANCH   6   9
ENDBRANCH   5   6
ENDBRANCH   2   5
ENDBRANCH   1   2
BRANCH   1  11
ATOM     11  O   UNL     1       4.812   4.831  16.260  0.00  0.00    +0.000 OA
BRANCH  11  12
ATOM     12  C   UNL     1       3.778   4.462  17.085  0.00  0.00    +0.000 A 
ATOM     13  C   UNL     1       3.193   5.504  17.807  0.00  0.00    +0.000 A 
ATOM     14  C   UNL     1       2.147   5.253  18.701  0.00  0.00    +0.000 A 
ATOM     15  C   UNL     1       1.680   3.954  18.883  0.00  0.00    +0.000 A 
ATOM     16  C   UNL     1       2.257   2.919  18.154  0.00  0.00    +0.000 A 
ATOM     17  C   UNL     1       3.289   3.164  17.248  0.00  0.00    +0.000 A 
BRANCH  16  18
ATOM     18  O   UNL     1       1.838   1.626  18.303  0.00  0.00    +0.000 OA
ATOM     19  H   UNL     1       2.257   1.086  17.620  0.00  0.00    +0.000 HD
ENDBRANCH  16  18
ENDBRANCH  11  12
ENDBRANCH   1  11
TORSDOF 8
ENDMDL
MODEL 9
REMARK VINA RESULT:      -5.9      2.381      5.962
REMARK  Name = 
REMARK  10 active torsions:
REMARK  status: ('A' for Active; 'I' for Inactive)
REMARK    1  A    between atoms: C_1  and  C_2
REMARK    2  A    between atoms: C_2  and  C_3
REMARK    3  A    between atoms: C_2  and  N_4
REMARK    4  A    between atoms: N_4  and  C_5
REMARK    5  A    between atoms: C_5  and  C_6
REMARK    6  A    between atoms: C_6  and  O_7
REMARK    7  A    between atoms: C_6  and  C_8
REMARK    8  A    between atoms: C_8  and  O_9
REMARK    9  A    between atoms: O_9  and  C_10
REMARK   10  A    between atoms: C_14  and  O_15
REMARK                            x       y       z     vdW  Elec       q    Type
REMARK                         _______ _______ _______ _____ _____    ______ ____
ROOT
ATOM      1  C   UNL     1       4.206   5.254  17.316  0.00  0.00    +0.000 C 
ENDROOT
BRANCH   1   2
ATOM      2  C   UNL     1       5.076   4.666  16.188  0.00  0.00    +0.000 C 
BRANCH   2   3
ATOM      3  O   UNL     1       5.806   3.509  16.623  0.00  0.00    +0.000 OA
ATOM      4  H   UNL     1       6.748   3.752  16.684  0.00  0.00    +0.000 HD
ENDBRANCH   2   3
BRANCH   2   5
ATOM      5  C   UNL     1       6.072   5.746  15.718  0.00  0.00    +0.000 C 
BRANCH   5   6
ATOM      6  N   UNL     1       6.202   6.822  16.707  0.00  0.00    +0.000 NA
ATOM      7  H   UNL     1       5.967   7.705  16.243  0.00  0.00    +0.000 HD
BRANCH   6   9
ATOM      8  C   UNL     1       7.804   8.359  17.692  0.00  0.00    +0.000 C 
ATOM      9  C   UNL     1       7.531   6.900  17.320  0.00  0.00    +0.000 C 
ATOM     10  C   UNL     1       7.632   6.031  18.577  0.00  0.00    +0.000 C 
ENDBRANCH   6   9
ENDBRANCH   5   6
ENDBRANCH   2   5
ENDBRANCH   1   2
BRANCH   1  11
ATOM     11  O   UNL     1       4.276   4.441  18.488  0.00  0.00    +0.000 OA
BRANCH  11  12
ATOM     12  C   UNL     1       3.076   3.999  18.987  0.00  0.00    +0.000 A 
ATOM     13  C   UNL     1       2.725   4.516  20.236  0.00  0.00    +0.000 A 
ATOM     14  C   UNL     1       1.539   4.123  20.862  0.00  0.00    +0.000 A 
ATOM     15  C   UNL     1       0.693   3.205  20.245  0.00  0.00    +0.000 A 
ATOM     16  C   UNL     1       1.040   2.699  18.996  0.00  0.00    +0.000 A 
ATOM     17  C   UNL     1       2.213   3.100  18.357  0.00  0.00    +0.000 A 
BRANCH  16  18
ATOM     18  O   UNL     1       0.246   1.791  18.353  0.00  0.00    +0.000 OA
ATOM     19  H   UNL     1      -0.673   1.950  18.606  0.00  0.00    +0.000 HD
ENDBRANCH  16  18
ENDBRANCH  11  12
ENDBRANCH   1  11
TORSDOF 8
ENDMDL
