MODEL 1
REMARK VINA RESULT:      -7.9      0.000      0.000
REMARK  Name = 
REMARK  14 active torsions:
REMARK  status: ('A' for Active; 'I' for Inactive)
REMARK    1  A    between atoms: C_1  and  C_2
REMARK    2  A    between atoms: C_2  and  C_3
REMARK    3  A    between atoms: C_3  and  C_4
REMARK    4  A    between atoms: C_4  and  C_5
REMARK    5  A    between atoms: C_4  and  C_8
REMARK    6  A    between atoms: C_4  and  C_16
REMARK    7  A    between atoms: C_5  and  C_6
REMARK    8  A    between atoms: C_6  and  C_7
REMARK    9  A    between atoms: C_11  and  O_12
REMARK   10  A    between atoms: C_13  and  C_14
REMARK   11  A    between atoms: C_19  and  N_20
REMARK   12  A    between atoms: N_20  and  C_21
REMARK   13  A    between atoms: N_20  and  C_22
REMARK   14  A    between atoms: C_23  and  C_24
REMARK                            x       y       z     vdW  Elec       q    Type
REMARK                         _______ _______ _______ _____ _____    ______ ____
ROOT
ATOM      1  C   UNL     1       3.292   5.330  18.363  0.00  0.00    +0.000 C 
ENDROOT
BRANCH   1   2
ATOM      2  C   UNL     1       4.510   5.411  17.379  0.00  0.00    +0.000 A 
ATOM      3  C   UNL     1       5.650   6.173  17.703  0.00  0.00    +0.000 A 
ATOM      4  C   UNL     1       6.755   6.238  16.849  0.00  0.00    +0.000 A 
ATOM      5  C   UNL     1       6.748   5.530  15.651  0.00  0.00    +0.000 A 
ATOM      6  C   UNL     1       5.654   4.745  15.298  0.00  0.00    +0.000 A 
ATOM      7  C   UNL     1       5.610   3.951  14.020  0.00  0.00    +0.000 C 
ATOM      8  C   UNL     1       4.550   4.688  16.169  0.00  0.00    +0.000 A 
BRANCH   5   9
ATOM      9  O   UNL     1       7.828   5.596  14.816  0.00  0.00    +0.000 OA
ATOM     10  H   UNL     1       7.672   5.003  14.062  0.00  0.00    +0.000 HD
ENDBRANCH   5   9
ENDBRANCH   1   2
BRANCH   1  11
ATOM     11  C   UNL     1       2.653   6.727  18.597  0.00  0.00    +0.000 A 
ATOM     12  C   UNL     1       2.440   7.660  17.587  0.00  0.00    +0.000 A 
ATOM     13  C   UNL     1       1.790   8.879  17.842  0.00  0.00    +0.000 A 
ATOM     14  C   UNL     1       1.326   9.258  19.117  0.00  0.00    +0.000 A 
ATOM     15  C   UNL     1       1.576   8.336  20.157  0.00  0.00    +0.000 A 
ATOM     16  C   UNL     1       1.156   8.526  21.592  0.00  0.00    +0.000 C 
ATOM     17  C   UNL     1       2.251   7.115  19.888  0.00  0.00    +0.000 A 
BRANCH  14  18
ATOM     18  N   UNL     1       0.654  10.464  19.274  0.00  0.00    +0.000 N 
ATOM     19  C   UNL     1      -0.757  10.610  18.921  0.00  0.00    +0.000 C 
ATOM     20  C   UNL     1       1.355  11.711  19.550  0.00  0.00    +0.000 C 
ENDBRANCH  14  18
ENDBRANCH   1  11
BRANCH   1  21
ATOM     21  C   UNL     1       3.808   4.618  19.667  0.00  0.00    +0.000 C 
BRANCH  21  23
ATOM     22  C   UNL     1       4.229   2.267  20.467  0.00  0.00    +0.000 C 
ATOM     23  C   UNL     1       4.680   3.358  19.503  0.00  0.00    +0.000 C 
ENDBRANCH  21  23
ENDBRANCH   1  21
BRANCH   1  24
ATOM     24  C   UNL     1       2.156   4.413  17.751  0.00  0.00    +0.000 C 
BRANCH  24  25
ATOM     25  C   UNL     1       1.132   3.832  18.741  0.00  0.00    +0.000 C 
ATOM     26  C   UNL     1       1.048   2.315  18.616  0.00  0.00    +0.000 C 
ENDBRANCH  24  25
ENDBRANCH   1  24
TORSDOF 8
ENDMDL
MODEL 2
REMARK VINA RESULT:      -7.9      0.402      1.430
REMARK  Name = 
REMARK  14 active torsions:
REMARK  status: ('A' for Active; 'I' for Inactive)
REMARK    1  A    between atoms: C_1  and  C_2
REMARK    2  A    between atoms: C_2  and  C_3
REMARK    3  A    between atoms: C_3  and  C_4
REMARK    4  A    between atoms: C_4  and  C_5
REMARK    5  A    between atoms: C_4  and  C_8
REMARK    6  A    between atoms: C_4  and  C_16
REMARK    7  A    between atoms: C_5  and  C_6
REMARK    8  A    between atoms: C_6  and  C_7
REMARK    9  A    between atoms: C_11  and  O_12
REMARK   10  A    between atoms: C_13  and  C_14
REMARK   11  A    between atoms: C_19  and  N_20
REMARK   12  A    between atoms: N_20  and  C_21
REMARK   13  A    between atoms: N_20  and  C_22
REMARK   14  A    between atoms: C_23  and  C_24
REMARK                            x       y       z     vdW  Elec       q    Type
REMARK                         _______ _______ _______ _____ _____    ______ ____
ROOT
ATOM      1  C   UNL     1       3.172   5.348  18.522  0.00  0.00    +0.000 C 
ENDROOT
BRANCH   1   2
ATOM      2  C   UNL     1       4.434   5.417  17.595  0.00  0.00    +0.000 A 
ATOM      3  C   UNL     1       4.521   4.622  16.435  0.00  0.00    +0.000 A 
ATOM      4  C   UNL     1       5.627   4.687  15.583  0.00  0.00    +0.000 A 
ATOM      5  C   UNL     1       6.673   5.561  15.870  0.00  0.00    +0.000 A 
ATOM      6  C   UNL     1       6.623   6.382  16.993  0.00  0.00    +0.000 A 
ATOM      7  C   UNL     1       7.723   7.351  17.332  0.00  0.00    +0.000 C 
ATOM      8  C   UNL     1       5.501   6.307  17.838  0.00  0.00    +0.000 A 
BRANCH   5   9
ATOM      9  O   UNL     1       7.755   5.622  15.038  0.00  0.00    +0.000 OA
ATOM     10  H   UNL     1       8.436   5.013  15.370  0.00  0.00    +0.000 HD
ENDBRANCH   5   9
ENDBRANCH   1   2
BRANCH   1  11
ATOM     11  C   UNL     1       2.542   6.753  18.735  0.00  0.00    +0.000 A 
ATOM     12  C   UNL     1       2.320   7.665  17.706  0.00  0.00    +0.000 A 
ATOM     13  C   UNL     1       1.679   8.891  17.943  0.00  0.00    +0.000 A 
ATOM     14  C   UNL     1       1.232   9.300  19.216  0.00  0.00    +0.000 A 
ATOM     15  C   UNL     1       1.492   8.400  20.272  0.00  0.00    +0.000 A 
ATOM     16  C   UNL     1       1.090   8.623  21.708  0.00  0.00    +0.000 C 
ATOM     17  C   UNL     1       2.158   7.170  20.022  0.00  0.00    +0.000 A 
BRANCH  14  18
ATOM     18  N   UNL     1       0.567  10.512  19.354  0.00  0.00    +0.000 N 
ATOM     19  C   UNL     1      -0.885  10.613  19.222  0.00  0.00    +0.000 C 
ATOM     20  C   UNL     1       1.275  11.785  19.384  0.00  0.00    +0.000 C 
ENDBRANCH  14  18
ENDBRANCH   1  11
BRANCH   1  21
ATOM     21  C   UNL     1       3.619   4.623  19.845  0.00  0.00    +0.000 C 
BRANCH  21  23
ATOM     22  C   UNL     1       4.024   2.238  20.545  0.00  0.00    +0.000 C 
ATOM     23  C   UNL     1       4.553   3.405  19.719  0.00  0.00    +0.000 C 
ENDBRANCH  21  23
ENDBRANCH   1  21
BRANCH   1  24
ATOM     24  C   UNL     1       2.053   4.449  17.856  0.00  0.00    +0.000 C 
BRANCH  24  25
ATOM     25  C   UNL     1       1.031   3.802  18.807  0.00  0.00    +0.000 C 
ATOM     26  C   UNL     1       0.956   2.296  18.588  0.00  0.00    +0.000 C 
ENDBRANCH  24  25
ENDBRANCH   1  24
TORSDOF 8
ENDMDL
MODEL 3
REMARK VINA RESULT:      -7.7      1.215      1.457
REMARK  Name = 
REMARK  14 active torsions:
REMARK  status: ('A' for Active; 'I' for Inactive)
REMARK    1  A    between atoms: C_1  and  C_2
REMARK    2  A    between atoms: C_2  and  C_3
REMARK    3  A    between atoms: C_3  and  C_4
REMARK    4  A    between atoms: C_4  and  C_5
REMARK    5  A    between atoms: C_4  and  C_8
REMARK    6  A    between atoms: C_4  and  C_16
REMARK    7  A    between atoms: C_5  and  C_6
REMARK    8  A    between atoms: C_6  and  C_7
REMARK    9  A    between atoms: C_11  and  O_12
REMARK   10  A    between atoms: C_13  and  C_14
REMARK   11  A    between atoms: C_19  and  N_20
REMARK   12  A    between atoms: N_20  and  C_21
REMARK   13  A    between atoms: N_20  and  C_22
REMARK   14  A    between atoms: C_23  and  C_24
REMARK                            x       y       z     vdW  Elec       q    Type
REMARK                         _______ _______ _______ _____ _____    ______ ____
ROOT
ATOM      1  C   UNL     1       2.765   5.389  18.967  0.00  0.00    +0.000 C 
ENDROOT
BRANCH   1   2
ATOM      2  C   UNL     1       4.190   5.202  18.340  0.00  0.00    +0.000 A 
ATOM      3  C   UNL     1       5.308   4.938  19.156  0.00  0.00    +0.000 A 
ATOM      4  C   UNL     1       6.582   4.745  18.613  0.00  0.00    +0.000 A 
ATOM      5  C   UNL     1       6.764   4.801  17.234  0.00  0.00    +0.000 A 
ATOM      6  C   UNL     1       5.686   5.037  16.386  0.00  0.00    +0.000 A 
ATOM      7  C   UNL     1       5.835   5.090  14.889  0.00  0.00    +0.000 C 
ATOM      8  C   UNL     1       4.410   5.226  16.947  0.00  0.00    +0.000 A 
BRANCH   5   9
ATOM      9  O   UNL     1       8.010   4.614  16.705  0.00  0.00    +0.000 OA
ATOM     10  H   UNL     1       8.070   5.111  15.873  0.00  0.00    +0.000 HD
ENDBRANCH   5   9
ENDBRANCH   1   2
BRANCH   1  11
ATOM     11  C   UNL     1       2.320   6.878  18.941  0.00  0.00    +0.000 A 
ATOM     12  C   UNL     1       2.321   7.665  17.793  0.00  0.00    +0.000 A 
ATOM     13  C   UNL     1       1.838   8.984  17.812  0.00  0.00    +0.000 A 
ATOM     14  C   UNL     1       1.341   9.612  18.970  0.00  0.00    +0.000 A 
ATOM     15  C   UNL     1       1.376   8.834  20.149  0.00  0.00    +0.000 A 
ATOM     16  C   UNL     1       0.882   9.295  21.497  0.00  0.00    +0.000 C 
ATOM     17  C   UNL     1       1.884   7.508  20.120  0.00  0.00    +0.000 A 
BRANCH  14  18
ATOM     18  N   UNL     1       0.840  10.906  18.891  0.00  0.00    +0.000 N 
ATOM     19  C   UNL     1      -0.572  11.170  18.623  0.00  0.00    +0.000 C 
ATOM     20  C   UNL     1       1.713  12.070  18.814  0.00  0.00    +0.000 C 
ENDBRANCH  14  18
ENDBRANCH   1  11
BRANCH   1  21
ATOM     21  C   UNL     1       2.812   4.743  20.401  0.00  0.00    +0.000 C 
BRANCH  21  23
ATOM     22  C   UNL     1       1.867   2.768  21.646  0.00  0.00    +0.000 C 
ATOM     23  C   UNL     1       1.531   4.071  20.930  0.00  0.00    +0.000 C 
ENDBRANCH  21  23
ENDBRANCH   1  21
BRANCH   1  24
ATOM     24  C   UNL     1       1.690   4.583  18.129  0.00  0.00    +0.000 C 
BRANCH  24  25
ATOM     25  C   UNL     1       2.219   3.437  17.251  0.00  0.00    +0.000 C 
ATOM     26  C   UNL     1       2.202   2.114  18.008  0.00  0.00    +0.000 C 
ENDBRANCH  24  25
ENDBRANCH   1  24
TORSDOF 8
ENDMDL
MODEL 4
REMARK VINA RESULT:      -7.6      0.854      1.823
REMARK  Name = 
REMARK  14 active torsions:
REMARK  status: ('A' for Active; 'I' for Inactive)
REMARK    1  A    between atoms: C_1  and  C_2
REMARK    2  A    between atoms: C_2  and  C_3
REMARK    3  A    between atoms: C_3  and  C_4
REMARK    4  A    between atoms: C_4  and  C_5
REMARK    5  A    between atoms: C_4  and  C_8
REMARK    6  A    between atoms: C_4  and  C_16
REMARK    7  A    between atoms: C_5  and  C_6
REMARK    8  A    between atoms: C_6  and  C_7
REMARK    9  A    between atoms: C_11  and  O_12
REMARK   10  A    between atoms: C_13  and  C_14
REMARK   11  A    between atoms: C_19  and  N_20
REMARK   12  A    between atoms: N_20  and  C_21
REMARK   13  A    between atoms: N_20  and  C_22
REMARK   14  A    between atoms: C_23  and  C_24
REMARK                            x       y       z     vdW  Elec       q    Type
REMARK                         _______ _______ _______ _____ _____    ______ ____
ROOT
ATOM      1  C   UNL     1       2.982   5.393  18.573  0.00  0.00    +0.000 C 
ENDROOT
BRANCH   1   2
ATOM      2  C   UNL     1       4.283   5.408  17.698  0.00  0.00    +0.000 A 
ATOM      3  C   UNL     1       4.414   4.553  16.586  0.00  0.00    +0.000 A 
ATOM      4  C   UNL     1       5.556   4.570  15.780  0.00  0.00    +0.000 A 
ATOM      5  C   UNL     1       6.593   5.454  16.065  0.00  0.00    +0.000 A 
ATOM      6  C   UNL     1       6.500   6.333  17.140  0.00  0.00    +0.000 A 
ATOM      7  C   UNL     1       7.590   7.316  17.474  0.00  0.00    +0.000 C 
ATOM      8  C   UNL     1       5.343   6.307  17.939  0.00  0.00    +0.000 A 
BRANCH   5   9
ATOM      9  O   UNL     1       7.710   5.468  15.277  0.00  0.00    +0.000 OA
ATOM     10  H   UNL     1       7.445   5.284  14.361  0.00  0.00    +0.000 HD
ENDBRANCH   5   9
ENDBRANCH   1   2
BRANCH   1  11
ATOM     11  C   UNL     1       2.400   6.822  18.758  0.00  0.00    +0.000 A 
ATOM     12  C   UNL     1       2.194   7.715  17.711  0.00  0.00    +0.000 A 
ATOM     13  C   UNL     1       1.596   8.968  17.926  0.00  0.00    +0.000 A 
ATOM     14  C   UNL     1       1.182   9.422  19.193  0.00  0.00    +0.000 A 
ATOM     15  C   UNL     1       1.427   8.540  20.269  0.00  0.00    +0.000 A 
ATOM     16  C   UNL     1       1.054   8.812  21.704  0.00  0.00    +0.000 C 
ATOM     17  C   UNL     1       2.049   7.284  20.040  0.00  0.00    +0.000 A 
BRANCH  14  18
ATOM     18  N   UNL     1       0.558  10.659  19.311  0.00  0.00    +0.000 N 
ATOM     19  C   UNL     1       1.301  11.865  19.668  0.00  0.00    +0.000 C 
ATOM     20  C   UNL     1      -0.893  10.794  19.340  0.00  0.00    +0.000 C 
ENDBRANCH  14  18
ENDBRANCH   1  11
BRANCH   1  21
ATOM     21  C   UNL     1       3.345   4.653  19.913  0.00  0.00    +0.000 C 
BRANCH  21  23
ATOM     22  C   UNL     1       2.231   3.236  21.671  0.00  0.00    +0.000 C 
ATOM     23  C   UNL     1       2.281   4.616  21.026  0.00  0.00    +0.000 C 
ENDBRANCH  21  23
ENDBRANCH   1  21
BRANCH   1  24
ATOM     24  C   UNL     1       1.855   4.538  17.861  0.00  0.00    +0.000 C 
BRANCH  24  25
ATOM     25  C   UNL     1       1.975   3.009  17.975  0.00  0.00    +0.000 C 
ATOM     26  C   UNL     1       0.721   2.405  18.595  0.00  0.00    +0.000 C 
ENDBRANCH  24  25
ENDBRANCH   1  24
TORSDOF 8
ENDMDL
MODEL 5
REMARK VINA RESULT:      -7.5      0.795      1.158
REMARK  Name = 
REMARK  14 active torsions:
REMARK  status: ('A' for Active; 'I' for Inactive)
REMARK    1  A    between atoms: C_1  and  C_2
REMARK    2  A    between atoms: C_2  and  C_3
REMARK    3  A    between atoms: C_3  and  C_4
REMARK    4  A    between atoms: C_4  and  C_5
REMARK    5  A    between atoms: C_4  and  C_8
REMARK    6  A    between atoms: C_4  and  C_16
REMARK    7  A    between atoms: C_5  and  C_6
REMARK    8  A    between atoms: C_6  and  C_7
REMARK    9  A    between atoms: C_11  and  O_12
REMARK   10  A    between atoms: C_13  and  C_14
REMARK   11  A    between atoms: C_19  and  N_20
REMARK   12  A    between atoms: N_20  and  C_21
REMARK   13  A    between atoms: N_20  and  C_22
REMARK   14  A    between atoms: C_23  and  C_24
REMARK                            x       y       z     vdW  Elec       q    Type
REMARK                         _______ _______ _______ _____ _____    ______ ____
ROOT
ATOM      1  C   UNL     1       2.978   5.473  18.592  0.00  0.00    +0.000 C 
ENDROOT
BRANCH   1   2
ATOM      2  C   UNL     1       4.266   5.500  17.698  0.00  0.00    +0.000 A 
ATOM      3  C   UNL     1       5.446   6.123  18.152  0.00  0.00    +0.000 A 
ATOM      4  C   UNL     1       6.611   6.136  17.379  0.00  0.00    +0.000 A 
ATOM      5  C   UNL     1       6.624   5.515  16.133  0.00  0.00    +0.000 A 
ATOM      6  C   UNL     1       5.490   4.868  15.652  0.00  0.00    +0.000 A 
ATOM      7  C   UNL     1       5.464   4.171  14.318  0.00  0.00    +0.000 C 
ATOM      8  C   UNL     1       4.326   4.860  16.442  0.00  0.00    +0.000 A 
BRANCH   5   9
ATOM      9  O   UNL     1       7.763   5.531  15.378  0.00  0.00    +0.000 OA
ATOM     10  H   UNL     1       8.458   5.051  15.856  0.00  0.00    +0.000 HD
ENDBRANCH   5   9
ENDBRANCH   1   2
BRANCH   1  11
ATOM     11  C   UNL     1       2.390   6.898  18.791  0.00  0.00    +0.000 A 
ATOM     12  C   UNL     1       2.199   7.808  17.755  0.00  0.00    +0.000 A 
ATOM     13  C   UNL     1       1.595   9.055  17.980  0.00  0.00    +0.000 A 
ATOM     14  C   UNL     1       1.157   9.488  19.247  0.00  0.00    +0.000 A 
ATOM     15  C   UNL     1       1.386   8.588  20.312  0.00  0.00    +0.000 A 
ATOM     16  C   UNL     1       0.988   8.835  21.745  0.00  0.00    +0.000 C 
ATOM     17  C   UNL     1       2.015   7.337  20.073  0.00  0.00    +0.000 A 
BRANCH  14  18
ATOM     18  N   UNL     1       0.528  10.720  19.375  0.00  0.00    +0.000 N 
ATOM     19  C   UNL     1       1.257  11.917  19.791  0.00  0.00    +0.000 C 
ATOM     20  C   UNL     1      -0.922  10.855  19.354  0.00  0.00    +0.000 C 
ENDBRANCH  14  18
ENDBRANCH   1  11
BRANCH   1  21
ATOM     21  C   UNL     1       3.366   4.731  19.924  0.00  0.00    +0.000 C 
BRANCH  21  23
ATOM     22  C   UNL     1       2.320   3.253  21.673  0.00  0.00    +0.000 C 
ATOM     23  C   UNL     1       2.300   4.635  21.031  0.00  0.00    +0.000 C 
ENDBRANCH  21  23
ENDBRANCH   1  21
BRANCH   1  24
ATOM     24  C   UNL     1       1.847   4.613  17.893  0.00  0.00    +0.000 C 
BRANCH  24  25
ATOM     25  C   UNL     1       2.009   3.085  17.952  0.00  0.00    +0.000 C 
ATOM     26  C   UNL     1       0.794   2.430  18.599  0.00  0.00    +0.000 C 
ENDBRANCH  24  25
ENDBRANCH   1  24
TORSDOF 8
ENDMDL
MODEL 6
REMARK VINA RESULT:      -7.4      1.335      2.075
REMARK  Name = 
REMARK  14 active torsions:
REMARK  status: ('A' for Active; 'I' for Inactive)
REMARK    1  A    between atoms: C_1  and  C_2
REMARK    2  A    between atoms: C_2  and  C_3
REMARK    3  A    between atoms: C_3  and  C_4
REMARK    4  A    between atoms: C_4  and  C_5
REMARK    5  A    between atoms: C_4  and  C_8
REMARK    6  A    between atoms: C_4  and  C_16
REMARK    7  A    between atoms: C_5  and  C_6
REMARK    8  A    between atoms: C_6  and  C_7
REMARK    9  A    between atoms: C_11  and  O_12
REMARK   10  A    between atoms: C_13  and  C_14
REMARK   11  A    between atoms: C_19  and  N_20
REMARK   12  A    between atoms: N_20  and  C_21
REMARK   13  A    between atoms: N_20  and  C_22
REMARK   14  A    between atoms: C_23  and  C_24
REMARK                            x       y       z     vdW  Elec       q    Type
REMARK                         _______ _______ _______ _____ _____    ______ ____
ROOT
ATOM      1  C   UNL     1       2.759   5.306  18.977  0.00  0.00    +0.000 C 
ENDROOT
BRANCH   1   2
ATOM      2  C   UNL     1       4.194   5.105  18.381  0.00  0.00    +0.000 A 
ATOM      3  C   UNL     1       4.369   4.667  17.053  0.00  0.00    +0.000 A 
ATOM      4  C   UNL     1       5.641   4.505  16.497  0.00  0.00    +0.000 A 
ATOM      5  C   UNL     1       6.773   4.788  17.258  0.00  0.00    +0.000 A 
ATOM      6  C   UNL     1       6.650   5.244  18.567  0.00  0.00    +0.000 A 
ATOM      7  C   UNL     1       7.845   5.576  19.420  0.00  0.00    +0.000 C 
ATOM      8  C   UNL     1       5.363   5.405  19.112  0.00  0.00    +0.000 A 
BRANCH   5   9
ATOM      9  O   UNL     1       8.016   4.626  16.714  0.00  0.00    +0.000 OA
ATOM     10  H   UNL     1       8.641   5.187  17.200  0.00  0.00    +0.000 HD
ENDBRANCH   5   9
ENDBRANCH   1   2
BRANCH   1  11
ATOM     11  C   UNL     1       2.329   6.800  18.942  0.00  0.00    +0.000 A 
ATOM     12  C   UNL     1       2.346   7.583  17.791  0.00  0.00    +0.000 A 
ATOM     13  C   UNL     1       1.877   8.906  17.801  0.00  0.00    +0.000 A 
ATOM     14  C   UNL     1       1.379   9.544  18.955  0.00  0.00    +0.000 A 
ATOM     15  C   UNL     1       1.398   8.771  20.137  0.00  0.00    +0.000 A 
ATOM     16  C   UNL     1       0.901   9.243  21.479  0.00  0.00    +0.000 C 
ATOM     17  C   UNL     1       1.893   7.440  20.116  0.00  0.00    +0.000 A 
BRANCH  14  18
ATOM     18  N   UNL     1       0.893  10.843  18.867  0.00  0.00    +0.000 N 
ATOM     19  C   UNL     1      -0.522  11.122  18.628  0.00  0.00    +0.000 C 
ATOM     20  C   UNL     1       1.779  11.995  18.750  0.00  0.00    +0.000 C 
ENDBRANCH  14  18
ENDBRANCH   1  11
BRANCH   1  21
ATOM     21  C   UNL     1       2.767   4.660  20.412  0.00  0.00    +0.000 C 
BRANCH  21  23
ATOM     22  C   UNL     1       1.732   2.751  21.685  0.00  0.00    +0.000 C 
ATOM     23  C   UNL     1       1.454   4.047  20.934  0.00  0.00    +0.000 C 
ENDBRANCH  21  23
ENDBRANCH   1  21
BRANCH   1  24
ATOM     24  C   UNL     1       1.693   4.512  18.116  0.00  0.00    +0.000 C 
BRANCH  24  25
ATOM     25  C   UNL     1       2.211   3.294  17.333  0.00  0.00    +0.000 C 
ATOM     26  C   UNL     1       2.015   2.008  18.126  0.00  0.00    +0.000 C 
ENDBRANCH  24  25
ENDBRANCH   1  24
TORSDOF 8
ENDMDL
MODEL 7
REMARK VINA RESULT:      -7.0      1.009      2.300
REMARK  Name = 
REMARK  14 active torsions:
REMARK  status: ('A' for Active; 'I' for Inactive)
REMARK    1  A    between atoms: C_1  and  C_2
REMARK    2  A    between atoms: C_2  and  C_3
REMARK    3  A    between atoms: C_3  and  C_4
REMARK    4  A    between atoms: C_4  and  C_5
REMARK    5  A    between atoms: C_4  and  C_8
REMARK    6  A    between atoms: C_4  and  C_16
REMARK    7  A    between atoms: C_5  and  C_6
REMARK    8  A    between atoms: C_6  and  C_7
REMARK    9  A    between atoms: C_11  and  O_12
REMARK   10  A    between atoms: C_13  and  C_14
REMARK   11  A    between atoms: C_19  and  N_20
REMARK   12  A    between atoms: N_20  and  C_21
REMARK   13  A    between atoms: N_20  and  C_22
REMARK   14  A    between atoms: C_23  and  C_24
REMARK                            x       y       z     vdW  Elec       q    Type
REMARK                         _______ _______ _______ _____ _____    ______ ____
ROOT
ATOM      1  C   UNL     1       3.626   4.401  18.698  0.00  0.00    +0.000 C 
ENDROOT
BRANCH   1   2
ATOM      2  C   UNL     1       4.779   4.758  17.698  0.00  0.00    +0.000 A 
ATOM      3  C   UNL     1       4.879   4.107  16.452  0.00  0.00    +0.000 A 
ATOM      4  C   UNL     1       5.886   4.430  15.537  0.00  0.00    +0.000 A 
ATOM      5  C   UNL     1       6.812   5.422  15.845  0.00  0.00    +0.000 A 
ATOM      6  C   UNL     1       6.740   6.108  17.054  0.00  0.00    +0.000 A 
ATOM      7  C   UNL     1       7.711   7.198  17.421  0.00  0.00    +0.000 C 
ATOM      8  C   UNL     1       5.720   5.775  17.963  0.00  0.00    +0.000 A 
BRANCH   5   9
ATOM      9  O   UNL     1       7.797   5.734  14.950  0.00  0.00    +0.000 OA
ATOM     10  H   UNL     1       8.516   6.182  15.426  0.00  0.00    +0.000 HD
ENDBRANCH   5   9
ENDBRANCH   1   2
BRANCH   1  11
ATOM     11  C   UNL     1       2.841   5.668  19.142  0.00  0.00    +0.000 A 
ATOM     12  C   UNL     1       2.183   5.782  20.363  0.00  0.00    +0.000 A 
ATOM     13  C   UNL     1       1.551   6.977  20.743  0.00  0.00    +0.000 A 
ATOM     14  C   UNL     1       1.515   8.128  19.931  0.00  0.00    +0.000 A 
ATOM     15  C   UNL     1       2.143   8.007  18.672  0.00  0.00    +0.000 A 
ATOM     16  C   UNL     1       2.239   9.112  17.651  0.00  0.00    +0.000 C 
ATOM     17  C   UNL     1       2.763   6.786  18.293  0.00  0.00    +0.000 A 
BRANCH  14  18
ATOM     18  N   UNL     1       0.905   9.284  20.404  0.00  0.00    +0.000 N 
ATOM     19  C   UNL     1       1.161   9.795  21.749  0.00  0.00    +0.000 C 
ATOM     20  C   UNL     1      -0.206   9.914  19.703  0.00  0.00    +0.000 C 
ENDBRANCH  14  18
ENDBRANCH   1  11
BRANCH   1  21
ATOM     21  C   UNL     1       4.282   3.591  19.876  0.00  0.00    +0.000 C 
BRANCH  21  23
ATOM     22  C   UNL     1       2.746   2.515  21.556  0.00  0.00    +0.000 C 
ATOM     23  C   UNL     1       3.602   2.281  20.317  0.00  0.00    +0.000 C 
ENDBRANCH  21  23
ENDBRANCH   1  21
BRANCH   1  24
ATOM     24  C   UNL     1       2.576   3.442  18.003  0.00  0.00    +0.000 C 
BRANCH  24  25
ATOM     25  C   UNL     1       1.092   3.722  18.290  0.00  0.00    +0.000 C 
ATOM     26  C   UNL     1       0.390   2.473  18.811  0.00  0.00    +0.000 C 
ENDBRANCH  24  25
ENDBRANCH   1  24
TORSDOF 8
ENDMDL
MODEL 8
REMARK VINA RESULT:      -7.0      1.497      2.398
REMARK  Name = 
REMARK  14 active torsions:
REMARK  status: ('A' for Active; 'I' for Inactive)
REMARK    1  A    between atoms: C_1  and  C_2
REMARK    2  A    between atoms: C_2  and  C_3
REMARK    3  A    between atoms: C_3  and  C_4
REMARK    4  A    between atoms: C_4  and  C_5
REMARK    5  A    between atoms: C_4  and  C_8
REMARK    6  A    between atoms: C_4  and  C_16
REMARK    7  A    between atoms: C_5  and  C_6
REMARK    8  A    between atoms: C_6  and  C_7
REMARK    9  A    between atoms: C_11  and  O_12
REMARK   10  A    between atoms: C_13  and  C_14
REMARK   11  A    between atoms: C_19  and  N_20
REMARK   12  A    between atoms: N_20  and  C_21
REMARK   13  A    between atoms: N_20  and  C_22
REMARK   14  A    between atoms: C_23  and  C_24
REMARK                            x       y       z     vdW  Elec       q    Type
REMARK                         _______ _______ _______ _____ _____    ______ ____
ROOT
ATOM      1  C   UNL     1       2.831   5.607  19.186  0.00  0.00    +0.000 C 
ENDROOT
BRANCH   1   2
ATOM      2  C   UNL     1       4.187   5.840  18.435  0.00  0.00    +0.000 A 
ATOM      3  C   UNL     1       4.205   6.339  17.117  0.00  0.00    +0.000 A 
ATOM      4  C   UNL     1       5.406   6.576  16.441  0.00  0.00    +0.000 A 
ATOM      5  C   UNL     1       6.620   6.327  17.074  0.00  0.00    +0.000 A 
ATOM      6  C   UNL     1       6.653   5.854  18.383  0.00  0.00    +0.000 A 
ATOM      7  C   UNL     1       7.943   5.585  19.111  0.00  0.00    +0.000 C 
ATOM      8  C   UNL     1       5.437   5.624  19.052  0.00  0.00    +0.000 A 
BRANCH   5   9
ATOM      9  O   UNL     1       7.793   6.556  16.411  0.00  0.00    +0.000 OA
ATOM     10  H   UNL     1       8.208   5.701  16.212  0.00  0.00    +0.000 HD
ENDBRANCH   5   9
ENDBRANCH   1   2
BRANCH   1  11
ATOM     11  C   UNL     1       2.121   6.951  19.514  0.00  0.00    +0.000 A 
ATOM     12  C   UNL     1       1.508   7.224  20.734  0.00  0.00    +0.000 A 
ATOM     13  C   UNL     1       0.946   8.482  21.003  0.00  0.00    +0.000 A 
ATOM     14  C   UNL     1       0.939   9.543  20.076  0.00  0.00    +0.000 A 
ATOM     15  C   UNL     1       1.521   9.261  18.821  0.00  0.00    +0.000 A 
ATOM     16  C   UNL     1       1.638  10.248  17.688  0.00  0.00    +0.000 C 
ATOM     17  C   UNL     1       2.070   7.978  18.555  0.00  0.00    +0.000 A 
BRANCH  14  18
ATOM     18  N   UNL     1       0.401  10.772  20.441  0.00  0.00    +0.000 N 
ATOM     19  C   UNL     1      -1.002  11.101  20.193  0.00  0.00    +0.000 C 
ATOM     20  C   UNL     1       1.236  11.893  20.850  0.00  0.00    +0.000 C 
ENDBRANCH  14  18
ENDBRANCH   1  11
BRANCH   1  21
ATOM     21  C   UNL     1       3.153   4.712  20.439  0.00  0.00    +0.000 C 
BRANCH  21  23
ATOM     22  C   UNL     1       2.407   2.615  21.616  0.00  0.00    +0.000 C 
ATOM     23  C   UNL     1       1.980   3.997  21.135  0.00  0.00    +0.000 C 
ENDBRANCH  21  23
ENDBRANCH   1  21
BRANCH   1  24
ATOM     24  C   UNL     1       1.834   4.784  18.271  0.00  0.00    +0.000 C 
BRANCH  24  25
ATOM     25  C   UNL     1       2.456   3.692  17.384  0.00  0.00    +0.000 C 
ATOM     26  C   UNL     1       2.128   2.302  17.916  0.00  0.00    +0.000 C 
ENDBRANCH  24  25
ENDBRANCH   1  24
TORSDOF 8
ENDMDL
MODEL 9
REMARK VINA RESULT:      -7.0      0.851      1.657
REMARK  Name = 
REMARK  14 active torsions:
REMARK  status: ('A' for Active; 'I' for Inactive)
REMARK    1  A    between atoms: C_1  and  C_2
REMARK    2  A    between atoms: C_2  and  C_3
REMARK    3  A    between atoms: C_3  and  C_4
REMARK    4  A    between atoms: C_4  and  C_5
REMARK    5  A    between atoms: C_4  and  C_8
REMARK    6  A    between atoms: C_4  and  C_16
REMARK    7  A    between atoms: C_5  and  C_6
REMARK    8  A    between atoms: C_6  and  C_7
REMARK    9  A    between atoms: C_11  and  O_12
REMARK   10  A    between atoms: C_13  and  C_14
REMARK   11  A    between atoms: C_19  and  N_20
REMARK   12  A    between atoms: N_20  and  C_21
REMARK   13  A    between atoms: N_20  and  C_22
REMARK   14  A    between atoms: C_23  and  C_24
REMARK                            x       y       z     vdW  Elec       q    Type
REMARK                         _______ _______ _______ _____ _____    ______ ____
ROOT
ATOM      1  C   UNL     1       3.194   4.745  18.659  0.00  0.00    +0.000 C 
ENDROOT
BRANCH   1   2
ATOM      2  C   UNL     1       4.412   5.054  17.723  0.00  0.00    +0.000 A 
ATOM      3  C   UNL     1       5.496   5.830  18.181  0.00  0.00    +0.000 A 
ATOM      4  C   UNL     1       6.602   6.096  17.368  0.00  0.00    +0.000 A 
ATOM      5  C   UNL     1       6.653   5.581  16.076  0.00  0.00    +0.000 A 
ATOM      6  C   UNL     1       5.617   4.791  15.586  0.00  0.00    +0.000 A 
ATOM      7  C   UNL     1       5.638   4.201  14.202  0.00  0.00    +0.000 C 
ATOM      8  C   UNL     1       4.512   4.529  16.417  0.00  0.00    +0.000 A 
BRANCH   5   9
ATOM      9  O   UNL     1       7.733   5.844  15.281  0.00  0.00    +0.000 OA
ATOM     10  H   UNL     1       7.644   5.335  14.459  0.00  0.00    +0.000 HD
ENDBRANCH   5   9
ENDBRANCH   1   2
BRANCH   1  11
ATOM     11  C   UNL     1       2.497   6.048  19.139  0.00  0.00    +0.000 A 
ATOM     12  C   UNL     1       1.930   6.203  20.401  0.00  0.00    +0.000 A 
ATOM     13  C   UNL     1       1.378   7.428  20.809  0.00  0.00    +0.000 A 
ATOM     14  C   UNL     1       1.336   8.572  19.988  0.00  0.00    +0.000 A 
ATOM     15  C   UNL     1       1.870   8.412  18.690  0.00  0.00    +0.000 A 
ATOM     16  C   UNL     1       1.943   9.502  17.652  0.00  0.00    +0.000 C 
ATOM     17  C   UNL     1       2.409   7.161  18.284  0.00  0.00    +0.000 A 
BRANCH  14  18
ATOM     18  N   UNL     1       0.810   9.758  20.486  0.00  0.00    +0.000 N 
ATOM     19  C   UNL     1       1.108  10.223  21.839  0.00  0.00    +0.000 C 
ATOM     20  C   UNL     1      -0.258  10.478  19.806  0.00  0.00    +0.000 C 
ENDBRANCH  14  18
ENDBRANCH   1  11
BRANCH   1  21
ATOM     21  C   UNL     1       3.733   3.825  19.816  0.00  0.00    +0.000 C 
BRANCH  21  23
ATOM     22  C   UNL     1       4.753   1.686  20.667  0.00  0.00    +0.000 C 
ATOM     23  C   UNL     1       4.420   2.503  19.425  0.00  0.00    +0.000 C 
ENDBRANCH  21  23
ENDBRANCH   1  21
BRANCH   1  24
ATOM     24  C   UNL     1       2.100   3.912  17.875  0.00  0.00    +0.000 C 
BRANCH  24  25
ATOM     25  C   UNL     1       0.859   3.480  18.674  0.00  0.00    +0.000 C 
ATOM     26  C   UNL     1       0.814   1.965  18.840  0.00  0.00    +0.000 C 
ENDBRANCH  24  25
ENDBRANCH   1  24
TORSDOF 8
ENDMDL
