MODEL 1
REMARK VINA RESULT:      -7.4      0.000      0.000
REMARK  Name = 
REMARK  2 active torsions:
REMARK  status: ('A' for Active; 'I' for Inactive)
REMARK    1  A    between atoms: N_5  and  C_6
REMARK    2  A    between atoms: C_6  and  C_7
REMARK                            x       y       z     vdW  Elec       q    Type
REMARK                         _______ _______ _______ _____ _____    ______ ____
ROOT
ATOM      1 CL   UNL     1       8.071   7.853  18.261  0.00  0.00    +0.000 Cl
ATOM      2  C   UNL     1       7.344   6.491  17.518  0.00  0.00    +0.000 A 
ATOM      3  N   UNL     1       6.649   5.688  18.347  0.00  0.00    +0.000 NA
ATOM      4  C   UNL     1       6.065   4.594  17.822  0.00  0.00    +0.000 A 
ATOM      5  N   UNL     1       5.390   3.679  18.610  0.00  0.00    +0.000 N 
ATOM      6  C   UNL     1       6.215   4.400  16.452  0.00  0.00    +0.000 A 
ATOM      7  N   UNL     1       5.754   3.420  15.602  0.00  0.00    +0.000 N 
ATOM      8  C   UNL     1       6.166   3.679  14.319  0.00  0.00    +0.000 A 
ATOM      9  C   UNL     1       6.924   4.829  14.344  0.00  0.00    +0.000 A 
ATOM     10  C   UNL     1       6.948   5.291  15.681  0.00  0.00    +0.000 A 
ATOM     11  N   UNL     1       7.549   6.380  16.200  0.00  0.00    +0.000 NA
ATOM     12  H   UNL     1       4.785   3.044  18.108  0.00  0.00    +0.000 HD
ATOM     13  H   UNL     1       5.186   2.634  15.885  0.00  0.00    +0.000 HD
ENDROOT
BRANCH   5  14
ATOM     14  C   UNL     1       4.755   4.179  19.820  0.00  0.00    +0.000 C 
BRANCH  14  15
ATOM     15  C   UNL     1       3.307   3.813  19.858  0.00  0.00    +0.000 A 
ATOM     16  C   UNL     1       2.166   4.369  19.315  0.00  0.00    +0.000 A 
ATOM     17  C   UNL     1       1.082   3.584  19.776  0.00  0.00    +0.000 A 
ATOM     18  C   UNL     1       1.626   2.600  20.568  0.00  0.00    +0.000 A 
ATOM     19  O   UNL     1       2.976   2.728  20.623  0.00  0.00    +0.000 OA
ENDBRANCH  14  15
ENDBRANCH   5  14
TORSDOF 2
ENDMDL
MODEL 2
REMARK VINA RESULT:      -7.3      2.748      5.907
REMARK  Name = 
REMARK  2 active torsions:
REMARK  status: ('A' for Active; 'I' for Inactive)
REMARK    1  A    between atoms: N_5  and  C_6
REMARK    2  A    between atoms: C_6  and  C_7
REMARK                            x       y       z     vdW  Elec       q    Type
REMARK                         _______ _______ _______ _____ _____    ______ ____
ROOT
ATOM      1 CL   UNL     1       2.470   7.926  18.494  0.00  0.00    +0.000 Cl
ATOM      2  C   UNL     1       2.867   6.349  19.031  0.00  0.00    +0.000 A 
ATOM      3  N   UNL     1       3.932   5.787  18.425  0.00  0.00    +0.000 NA
ATOM      4  C   UNL     1       4.285   4.542  18.798  0.00  0.00    +0.000 A 
ATOM      5  N   UNL     1       5.320   3.863  18.181  0.00  0.00    +0.000 N 
ATOM      6  C   UNL     1       3.524   3.948  19.800  0.00  0.00    +0.000 A 
ATOM      7  N   UNL     1       3.606   2.721  20.418  0.00  0.00    +0.000 N 
ATOM      8  C   UNL     1       2.621   2.604  21.366  0.00  0.00    +0.000 A 
ATOM      9  C   UNL     1       1.875   3.763  21.342  0.00  0.00    +0.000 A 
ATOM     10  C   UNL     1       2.446   4.614  20.367  0.00  0.00    +0.000 A 
ATOM     11  N   UNL     1       2.075   5.854  19.991  0.00  0.00    +0.000 NA
ATOM     12  H   UNL     1       5.666   3.059  18.686  0.00  0.00    +0.000 HD
ATOM     13  H   UNL     1       4.301   2.018  20.210  0.00  0.00    +0.000 HD
ENDROOT
BRANCH   5  14
ATOM     14  C   UNL     1       6.408   4.660  17.633  0.00  0.00    +0.000 C 
BRANCH  14  15
ATOM     15  C   UNL     1       6.441   4.572  16.143  0.00  0.00    +0.000 A 
ATOM     16  C   UNL     1       5.737   3.833  15.213  0.00  0.00    +0.000 A 
ATOM     17  C   UNL     1       6.288   4.153  13.948  0.00  0.00    +0.000 A 
ATOM     18  C   UNL     1       7.289   5.066  14.183  0.00  0.00    +0.000 A 
ATOM     19  O   UNL     1       7.390   5.329  15.512  0.00  0.00    +0.000 OA
ENDBRANCH  14  15
ENDBRANCH   5  14
TORSDOF 2
ENDMDL
MODEL 3
REMARK VINA RESULT:      -7.1      0.825      1.033
REMARK  Name = 
REMARK  2 active torsions:
REMARK  status: ('A' for Active; 'I' for Inactive)
REMARK    1  A    between atoms: N_5  and  C_6
REMARK    2  A    between atoms: C_6  and  C_7
REMARK                            x       y       z     vdW  Elec       q    Type
REMARK                         _______ _______ _______ _____ _____    ______ ____
ROOT
ATOM      1 CL   UNL     1       8.015   8.122  18.116  0.00  0.00    +0.000 Cl
ATOM      2  C   UNL     1       7.242   6.733  17.478  0.00  0.00    +0.000 A 
ATOM      3  N   UNL     1       6.385   6.118  18.316  0.00  0.00    +0.000 NA
ATOM      4  C   UNL     1       5.756   5.012  17.874  0.00  0.00    +0.000 A 
ATOM      5  N   UNL     1       4.913   4.278  18.688  0.00  0.00    +0.000 N 
ATOM      6  C   UNL     1       6.035   4.611  16.570  0.00  0.00    +0.000 A 
ATOM      7  N   UNL     1       5.574   3.561  15.808  0.00  0.00    +0.000 N 
ATOM      8  C   UNL     1       6.146   3.598  14.562  0.00  0.00    +0.000 A 
ATOM      9  C   UNL     1       7.008   4.673  14.526  0.00  0.00    +0.000 A 
ATOM     10  C   UNL     1       6.932   5.319  15.782  0.00  0.00    +0.000 A 
ATOM     11  N   UNL     1       7.578   6.417  16.220  0.00  0.00    +0.000 NA
ATOM     12  H   UNL     1       4.306   3.630  18.205  0.00  0.00    +0.000 HD
ATOM     13  H   UNL     1       4.903   2.874  16.122  0.00  0.00    +0.000 HD
ENDROOT
BRANCH   5  14
ATOM     14  C   UNL     1       4.202   4.998  19.735  0.00  0.00    +0.000 C 
BRANCH  14  15
ATOM     15  C   UNL     1       2.989   4.246  20.175  0.00  0.00    +0.000 A 
ATOM     16  C   UNL     1       2.792   3.063  20.857  0.00  0.00    +0.000 A 
ATOM     17  C   UNL     1       1.393   2.855  20.903  0.00  0.00    +0.000 A 
ATOM     18  C   UNL     1       0.823   3.923  20.251  0.00  0.00    +0.000 A 
ATOM     19  O   UNL     1       1.782   4.774  19.805  0.00  0.00    +0.000 OA
ENDBRANCH  14  15
ENDBRANCH   5  14
TORSDOF 2
ENDMDL
MODEL 4
REMARK VINA RESULT:      -7.1      2.119      2.487
REMARK  Name = 
REMARK  2 active torsions:
REMARK  status: ('A' for Active; 'I' for Inactive)
REMARK    1  A    between atoms: N_5  and  C_6
REMARK    2  A    between atoms: C_6  and  C_7
REMARK                            x       y       z     vdW  Elec       q    Type
REMARK                         _______ _______ _______ _____ _____    ______ ____
ROOT
ATOM      1 CL   UNL     1       2.681   7.395  18.247  0.00  0.00    +0.000 Cl
ATOM      2  C   UNL     1       3.692   6.185  17.577  0.00  0.00    +0.000 A 
ATOM      3  N   UNL     1       3.344   4.918  17.873  0.00  0.00    +0.000 NA
ATOM      4  C   UNL     1       4.109   3.923  17.384  0.00  0.00    +0.000 A 
ATOM      5  N   UNL     1       3.866   2.597  17.694  0.00  0.00    +0.000 N 
ATOM      6  C   UNL     1       5.191   4.296  16.592  0.00  0.00    +0.000 A 
ATOM      7  N   UNL     1       6.152   3.561  15.935  0.00  0.00    +0.000 N 
ATOM      8  C   UNL     1       7.010   4.398  15.268  0.00  0.00    +0.000 A 
ATOM      9  C   UNL     1       6.613   5.694  15.518  0.00  0.00    +0.000 A 
ATOM     10  C   UNL     1       5.464   5.633  16.340  0.00  0.00    +0.000 A 
ATOM     11  N   UNL     1       4.713   6.636  16.837  0.00  0.00    +0.000 NA
ATOM     12  H   UNL     1       4.323   1.926  17.093  0.00  0.00    +0.000 HD
ATOM     13  H   UNL     1       6.205   2.552  15.937  0.00  0.00    +0.000 HD
ENDROOT
BRANCH   5  14
ATOM     14  C   UNL     1       2.488   2.217  17.969  0.00  0.00    +0.000 C 
BRANCH  14  15
ATOM     15  C   UNL     1       2.130   2.490  19.394  0.00  0.00    +0.000 A 
ATOM     16  C   UNL     1       0.984   2.930  20.024  0.00  0.00    +0.000 A 
ATOM     17  C   UNL     1       1.305   3.053  21.398  0.00  0.00    +0.000 A 
ATOM     18  C   UNL     1       2.623   2.680  21.521  0.00  0.00    +0.000 A 
ATOM     19  O   UNL     1       3.134   2.335  20.311  0.00  0.00    +0.000 OA
ENDBRANCH  14  15
ENDBRANCH   5  14
TORSDOF 2
ENDMDL
MODEL 5
REMARK VINA RESULT:      -7.0      1.356      1.567
REMARK  Name = 
REMARK  2 active torsions:
REMARK  status: ('A' for Active; 'I' for Inactive)
REMARK    1  A    between atoms: N_5  and  C_6
REMARK    2  A    between atoms: C_6  and  C_7
REMARK                            x       y       z     vdW  Elec       q    Type
REMARK                         _______ _______ _______ _____ _____    ______ ____
ROOT
ATOM      1 CL   UNL     1       7.743   5.723  19.668  0.00  0.00    +0.000 Cl
ATOM      2  C   UNL     1       6.853   5.288  18.270  0.00  0.00    +0.000 A 
ATOM      3  N   UNL     1       5.526   5.145  18.456  0.00  0.00    +0.000 NA
ATOM      4  C   UNL     1       4.775   4.792  17.395  0.00  0.00    +0.000 A 
ATOM      5  N   UNL     1       3.418   4.555  17.509  0.00  0.00    +0.000 N 
ATOM      6  C   UNL     1       5.441   4.626  16.184  0.00  0.00    +0.000 A 
ATOM      7  N   UNL     1       4.998   4.288  14.925  0.00  0.00    +0.000 N 
ATOM      8  C   UNL     1       6.051   4.262  14.047  0.00  0.00    +0.000 A 
ATOM      9  C   UNL     1       7.196   4.563  14.753  0.00  0.00    +0.000 A 
ATOM     10  C   UNL     1       6.814   4.803  16.094  0.00  0.00    +0.000 A 
ATOM     11  N   UNL     1       7.576   5.141  17.153  0.00  0.00    +0.000 NA
ATOM     12  H   UNL     1       2.909   4.546  16.636  0.00  0.00    +0.000 HD
ATOM     13  H   UNL     1       4.034   4.100  14.686  0.00  0.00    +0.000 HD
ENDROOT
BRANCH   5  14
ATOM     14  C   UNL     1       2.697   5.287  18.541  0.00  0.00    +0.000 C 
BRANCH  14  15
ATOM     15  C   UNL     1       2.170   4.360  19.588  0.00  0.00    +0.000 A 
ATOM     16  C   UNL     1       1.089   3.505  19.652  0.00  0.00    +0.000 A 
ATOM     17  C   UNL     1       1.093   2.951  20.955  0.00  0.00    +0.000 A 
ATOM     18  C   UNL     1       2.175   3.500  21.603  0.00  0.00    +0.000 A 
ATOM     19  O   UNL     1       2.837   4.355  20.783  0.00  0.00    +0.000 OA
ENDBRANCH  14  15
ENDBRANCH   5  14
TORSDOF 2
ENDMDL
MODEL 6
REMARK VINA RESULT:      -6.9      2.610      5.590
REMARK  Name = 
REMARK  2 active torsions:
REMARK  status: ('A' for Active; 'I' for Inactive)
REMARK    1  A    between atoms: N_5  and  C_6
REMARK    2  A    between atoms: C_6  and  C_7
REMARK                            x       y       z     vdW  Elec       q    Type
REMARK                         _______ _______ _______ _____ _____    ______ ____
ROOT
ATOM      1 CL   UNL     1       2.206   7.911  17.988  0.00  0.00    +0.000 Cl
ATOM      2  C   UNL     1       2.655   6.366  18.577  0.00  0.00    +0.000 A 
ATOM      3  N   UNL     1       3.571   5.714  17.837  0.00  0.00    +0.000 NA
ATOM      4  C   UNL     1       3.955   4.488  18.244  0.00  0.00    +0.000 A 
ATOM      5  N   UNL     1       4.838   3.719  17.509  0.00  0.00    +0.000 N 
ATOM      6  C   UNL     1       3.379   4.009  19.417  0.00  0.00    +0.000 A 
ATOM      7  N   UNL     1       3.543   2.834  20.114  0.00  0.00    +0.000 N 
ATOM      8  C   UNL     1       2.750   2.835  21.233  0.00  0.00    +0.000 A 
ATOM      9  C   UNL     1       2.044   4.018  21.247  0.00  0.00    +0.000 A 
ATOM     10  C   UNL     1       2.445   4.763  20.113  0.00  0.00    +0.000 A 
ATOM     11  N   UNL     1       2.043   5.983  19.706  0.00  0.00    +0.000 NA
ATOM     12  H   UNL     1       5.250   2.944  18.009  0.00  0.00    +0.000 HD
ATOM     13  H   UNL     1       4.168   2.087  19.842  0.00  0.00    +0.000 HD
ENDROOT
BRANCH   5  14
ATOM     14  C   UNL     1       5.825   4.422  16.703  0.00  0.00    +0.000 C 
BRANCH  14  15
ATOM     15  C   UNL     1       6.685   5.300  17.552  0.00  0.00    +0.000 A 
ATOM     16  C   UNL     1       7.158   6.590  17.421  0.00  0.00    +0.000 A 
ATOM     17  C   UNL     1       7.990   6.827  18.542  0.00  0.00    +0.000 A 
ATOM     18  C   UNL     1       7.972   5.670  19.286  0.00  0.00    +0.000 A 
ATOM     19  O   UNL     1       7.183   4.737  18.695  0.00  0.00    +0.000 OA
ENDBRANCH  14  15
ENDBRANCH   5  14
TORSDOF 2
ENDMDL
MODEL 7
REMARK VINA RESULT:      -6.8      1.431      1.551
REMARK  Name = 
REMARK  2 active torsions:
REMARK  status: ('A' for Active; 'I' for Inactive)
REMARK    1  A    between atoms: N_5  and  C_6
REMARK    2  A    between atoms: C_6  and  C_7
REMARK                            x       y       z     vdW  Elec       q    Type
REMARK                         _______ _______ _______ _____ _____    ______ ____
ROOT
ATOM      1 CL   UNL     1       8.001   5.991  19.119  0.00  0.00    +0.000 Cl
ATOM      2  C   UNL     1       7.037   5.463  17.805  0.00  0.00    +0.000 A 
ATOM      3  N   UNL     1       5.723   5.340  18.071  0.00  0.00    +0.000 NA
ATOM      4  C   UNL     1       4.916   4.916  17.079  0.00  0.00    +0.000 A 
ATOM      5  N   UNL     1       3.565   4.695  17.282  0.00  0.00    +0.000 N 
ATOM      6  C   UNL     1       5.515   4.661  15.849  0.00  0.00    +0.000 A 
ATOM      7  N   UNL     1       5.005   4.238  14.643  0.00  0.00    +0.000 N 
ATOM      8  C   UNL     1       6.010   4.144  13.713  0.00  0.00    +0.000 A 
ATOM      9  C   UNL     1       7.191   4.489  14.335  0.00  0.00    +0.000 A 
ATOM     10  C   UNL     1       6.882   4.825  15.674  0.00  0.00    +0.000 A 
ATOM     11  N   UNL     1       7.700   5.233  16.664  0.00  0.00    +0.000 NA
ATOM     12  H   UNL     1       3.011   4.627  16.440  0.00  0.00    +0.000 HD
ATOM     13  H   UNL     1       4.030   4.038  14.469  0.00  0.00    +0.000 HD
ENDROOT
BRANCH   5  14
ATOM     14  C   UNL     1       2.902   5.502  18.296  0.00  0.00    +0.000 C 
BRANCH  14  15
ATOM     15  C   UNL     1       2.150   4.642  19.259  0.00  0.00    +0.000 A 
ATOM     16  C   UNL     1       1.971   4.670  20.627  0.00  0.00    +0.000 A 
ATOM     17  C   UNL     1       1.200   3.529  20.953  0.00  0.00    +0.000 A 
ATOM     18  C   UNL     1       0.956   2.877  19.767  0.00  0.00    +0.000 A 
ATOM     19  O   UNL     1       1.527   3.544  18.732  0.00  0.00    +0.000 OA
ENDBRANCH  14  15
ENDBRANCH   5  14
TORSDOF 2
ENDMDL
MODEL 8
REMARK VINA RESULT:      -6.8      2.080      2.353
REMARK  Name = 
REMARK  2 active torsions:
REMARK  status: ('A' for Active; 'I' for Inactive)
REMARK    1  A    between atoms: N_5  and  C_6
REMARK    2  A    between atoms: C_6  and  C_7
REMARK                            x       y       z     vdW  Elec       q    Type
REMARK                         _______ _______ _______ _____ _____    ______ ____
ROOT
ATOM      1 CL   UNL     1       2.780   7.351  19.103  0.00  0.00    +0.000 Cl
ATOM      2  C   UNL     1       3.768   6.182  18.333  0.00  0.00    +0.000 A 
ATOM      3  N   UNL     1       4.035   5.084  19.065  0.00  0.00    +0.000 NA
ATOM      4  C   UNL     1       4.818   4.134  18.517  0.00  0.00    +0.000 A 
ATOM      5  N   UNL     1       5.199   3.007  19.221  0.00  0.00    +0.000 N 
ATOM      6  C   UNL     1       5.268   4.366  17.220  0.00  0.00    +0.000 A 
ATOM      7  N   UNL     1       6.055   3.624  16.369  0.00  0.00    +0.000 N 
ATOM      8  C   UNL     1       6.211   4.283  15.177  0.00  0.00    +0.000 A 
ATOM      9  C   UNL     1       5.535   5.480  15.266  0.00  0.00    +0.000 A 
ATOM     10  C   UNL     1       4.932   5.531  16.545  0.00  0.00    +0.000 A 
ATOM     11  N   UNL     1       4.163   6.493  17.091  0.00  0.00    +0.000 NA
ATOM     12  H   UNL     1       5.564   2.252  18.658  0.00  0.00    +0.000 HD
ATOM     13  H   UNL     1       6.449   2.720  16.592  0.00  0.00    +0.000 HD
ENDROOT
BRANCH   5  14
ATOM     14  C   UNL     1       4.286   2.518  20.245  0.00  0.00    +0.000 C 
BRANCH  14  15
ATOM     15  C   UNL     1       2.882   2.477  19.737  0.00  0.00    +0.000 A 
ATOM     16  C   UNL     1       2.287   1.939  18.614  0.00  0.00    +0.000 A 
ATOM     17  C   UNL     1       0.920   2.300  18.673  0.00  0.00    +0.000 A 
ATOM     18  C   UNL     1       0.764   3.033  19.827  0.00  0.00    +0.000 A 
ATOM     19  O   UNL     1       1.949   3.146  20.481  0.00  0.00    +0.000 OA
ENDBRANCH  14  15
ENDBRANCH   5  14
TORSDOF 2
ENDMDL
MODEL 9
REMARK VINA RESULT:      -6.8      2.773      5.611
REMARK  Name = 
REMARK  2 active torsions:
REMARK  status: ('A' for Active; 'I' for Inactive)
REMARK    1  A    between atoms: N_5  and  C_6
REMARK    2  A    between atoms: C_6  and  C_7
REMARK                            x       y       z     vdW  Elec       q    Type
REMARK                         _______ _______ _______ _____ _____    ______ ____
ROOT
ATOM      1 CL   UNL     1       2.403   7.942  17.785  0.00  0.00    +0.000 Cl
ATOM      2  C   UNL     1       2.861   6.385  18.334  0.00  0.00    +0.000 A 
ATOM      3  N   UNL     1       3.752   5.741  17.554  0.00  0.00    +0.000 NA
ATOM      4  C   UNL     1       4.141   4.507  17.928  0.00  0.00    +0.000 A 
ATOM      5  N   UNL     1       4.998   3.746  17.153  0.00  0.00    +0.000 N 
ATOM      6  C   UNL     1       3.598   4.010  19.110  0.00  0.00    +0.000 A 
ATOM      7  N   UNL     1       3.777   2.821  19.780  0.00  0.00    +0.000 N 
ATOM      8  C   UNL     1       3.018   2.806  20.922  0.00  0.00    +0.000 A 
ATOM      9  C   UNL     1       2.319   3.992  20.979  0.00  0.00    +0.000 A 
ATOM     10  C   UNL     1       2.689   4.756  19.847  0.00  0.00    +0.000 A 
ATOM     11  N   UNL     1       2.282   5.985  19.473  0.00  0.00    +0.000 NA
ATOM     12  H   UNL     1       5.421   2.961  17.627  0.00  0.00    +0.000 HD
ATOM     13  H   UNL     1       4.389   2.076  19.477  0.00  0.00    +0.000 HD
ENDROOT
BRANCH   5  14
ATOM     14  C   UNL     1       5.964   4.459  16.330  0.00  0.00    +0.000 C 
BRANCH  14  15
ATOM     15  C   UNL     1       6.781   5.400  17.154  0.00  0.00    +0.000 A 
ATOM     16  C   UNL     1       7.465   5.279  18.347  0.00  0.00    +0.000 A 
ATOM     17  C   UNL     1       7.988   6.562  18.640  0.00  0.00    +0.000 A 
ATOM     18  C   UNL     1       7.594   7.383  17.610  0.00  0.00    +0.000 A 
ATOM     19  O   UNL     1       6.862   6.689  16.701  0.00  0.00    +0.000 OA
ENDBRANCH  14  15
ENDBRANCH   5  14
TORSDOF 2
ENDMDL
