MODEL 1
REMARK VINA RESULT:      -7.9      0.000      0.000
REMARK  Name = 
REMARK  4 active torsions:
REMARK  status: ('A' for Active; 'I' for Inactive)
REMARK    1  A    between atoms: C_1  and  N_2
REMARK    2  A    between atoms: N_5  and  C_6
REMARK    3  A    between atoms: C_6  and  C_7
REMARK    4  A    between atoms: C_17  and  C_18
REMARK                            x       y       z     vdW  Elec       q    Type
REMARK                         _______ _______ _______ _____ _____    ______ ____
ROOT
ATOM      1  C   UNL     1       2.107   8.412  18.181  0.00  0.00    +0.000 C 
ATOM      2  O   UNL     1       2.900   8.677  17.276  0.00  0.00    +0.000 OA
ATOM      3  N   UNL     1       1.492   9.432  18.933  0.00  0.00    +0.000 N 
ATOM      4  C   UNL     1       1.693  10.793  18.400  0.00  0.00    +0.000 C 
ATOM      5  C   UNL     1       0.464  11.660  18.646  0.00  0.00    +0.000 C 
ATOM      6  N   UNL     1       0.061  11.547  20.035  0.00  0.00    +0.000 N 
ATOM      7  C   UNL     1       0.548  10.575  20.849  0.00  0.00    +0.000 A 
ATOM      8  C   UNL     1      -0.039  10.703  22.084  0.00  0.00    +0.000 A 
ATOM      9  C   UNL     1      -1.138  11.585  21.912  0.00  0.00    +0.000 A 
ATOM     10  C   UNL     1      -2.270  11.878  22.692  0.00  0.00    +0.000 A 
ATOM     11  C   UNL     1      -3.334  12.621  22.151  0.00  0.00    +0.000 A 
ATOM     12  C   UNL     1      -3.232  13.060  20.825  0.00  0.00    +0.000 A 
ATOM     13  C   UNL     1      -2.092  12.842  20.048  0.00  0.00    +0.000 A 
ATOM     14  C   UNL     1      -1.073  12.071  20.604  0.00  0.00    +0.000 A 
ATOM     15  C   UNL     1       0.210   9.653  23.104  0.00  0.00    +0.000 C 
ATOM     16  C   UNL     1      -0.147   8.333  22.414  0.00  0.00    +0.000 C 
ATOM     17  C   UNL     1       0.545   8.136  21.026  0.00  0.00    +0.000 C 
ATOM     18  C   UNL     1       1.316   9.365  20.411  0.00  0.00    +0.000 C 
ENDROOT
BRANCH  11  19
ATOM     19  C   UNL     1      -4.549  12.881  23.035  0.00  0.00    +0.000 C 
ATOM     20  C   UNL     1      -4.138  13.019  24.513  0.00  0.00    +0.000 C 
ATOM     21  C   UNL     1      -3.372  14.314  24.760  0.00  0.00    +0.000 C 
ATOM     22  C   UNL     1      -4.184  15.540  24.357  0.00  0.00    +0.000 C 
ATOM     23  C   UNL     1      -4.809  15.447  22.968  0.00  0.00    +0.000 C 
ATOM     24  C   UNL     1      -5.434  14.083  22.656  0.00  0.00    +0.000 C 
ENDBRANCH  11  19
BRANCH   1  25
ATOM     25  C   UNL     1       1.616   6.992  18.480  0.00  0.00    +0.000 C 
BRANCH  25  30
ATOM     26  C   UNL     1       1.314   2.885  21.180  0.00  0.00    +0.000 C 
ATOM     27  N   UNL     1       2.041   3.620  20.154  0.00  0.00    +0.000 NA
ATOM     28  C   UNL     1       2.549   4.906  20.654  0.00  0.00    +0.000 C 
ATOM     29  C   UNL     1       3.328   5.678  19.556  0.00  0.00    +0.000 C 
ATOM     30  N   UNL     1       2.587   5.899  18.288  0.00  0.00    +0.000 NA
ATOM     31  C   UNL     1       1.983   4.616  17.867  0.00  0.00    +0.000 C 
ATOM     32  C   UNL     1       1.211   3.846  18.961  0.00  0.00    +0.000 C 
ENDBRANCH  25  30
ENDBRANCH   1  25
TORSDOF 3
ENDMDL
MODEL 2
REMARK VINA RESULT:      -7.8      3.030      9.330
REMARK  Name = 
REMARK  4 active torsions:
REMARK  status: ('A' for Active; 'I' for Inactive)
REMARK    1  A    between atoms: C_1  and  N_2
REMARK    2  A    between atoms: N_5  and  C_6
REMARK    3  A    between atoms: C_6  and  C_7
REMARK    4  A    between atoms: C_17  and  C_18
REMARK                            x       y       z     vdW  Elec       q    Type
REMARK                         _______ _______ _______ _____ _____    ______ ____
ROOT
ATOM      1  C   UNL     1      -3.239  12.496  22.307  0.00  0.00    +0.000 C 
ATOM      2  O   UNL     1      -3.455  12.882  23.457  0.00  0.00    +0.000 OA
ATOM      3  N   UNL     1      -2.036  11.848  21.970  0.00  0.00    +0.000 N 
ATOM      4  C   UNL     1      -1.196  11.474  23.125  0.00  0.00    +0.000 C 
ATOM      5  C   UNL     1      -0.458  10.167  22.861  0.00  0.00    +0.000 C 
ATOM      6  N   UNL     1       0.190  10.230  21.565  0.00  0.00    +0.000 N 
ATOM      7  C   UNL     1      -0.107  11.194  20.656  0.00  0.00    +0.000 A 
ATOM      8  C   UNL     1       0.637  10.974  19.523  0.00  0.00    +0.000 A 
ATOM      9  C   UNL     1       1.164   9.661  19.643  0.00  0.00    +0.000 A 
ATOM     10  C   UNL     1       1.737   8.766  18.725  0.00  0.00    +0.000 A 
ATOM     11  C   UNL     1       1.947   7.421  19.079  0.00  0.00    +0.000 A 
ATOM     12  C   UNL     1       1.574   7.005  20.363  0.00  0.00    +0.000 A 
ATOM     13  C   UNL     1       1.064   7.887  21.319  0.00  0.00    +0.000 A 
ATOM     14  C   UNL     1       0.836   9.202  20.922  0.00  0.00    +0.000 A 
ATOM     15  C   UNL     1       0.368  11.804  18.321  0.00  0.00    +0.000 C 
ATOM     16  C   UNL     1      -1.138  11.673  18.074  0.00  0.00    +0.000 C 
ATOM     17  C   UNL     1      -2.015  11.967  19.336  0.00  0.00    +0.000 C 
ATOM     18  C   UNL     1      -1.277  12.128  20.718  0.00  0.00    +0.000 C 
ENDROOT
BRANCH  11  19
ATOM     19  C   UNL     1       2.544   6.488  18.030  0.00  0.00    +0.000 C 
ATOM     20  C   UNL     1       4.069   6.365  18.204  0.00  0.00    +0.000 C 
ATOM     21  C   UNL     1       4.427   5.582  19.462  0.00  0.00    +0.000 C 
ATOM     22  C   UNL     1       3.817   4.184  19.453  0.00  0.00    +0.000 C 
ATOM     23  C   UNL     1       2.332   4.153  19.105  0.00  0.00    +0.000 C 
ATOM     24  C   UNL     1       1.944   5.072  17.943  0.00  0.00    +0.000 C 
ENDBRANCH  11  19
BRANCH   1  25
ATOM     25  C   UNL     1      -4.284  12.555  21.189  0.00  0.00    +0.000 C 
BRANCH  25  30
ATOM     26  C   UNL     1      -7.917  14.176  18.285  0.00  0.00    +0.000 C 
ATOM     27  N   UNL     1      -7.553  13.536  19.542  0.00  0.00    +0.000 NA
ATOM     28  C   UNL     1      -6.708  14.404  20.377  0.00  0.00    +0.000 C 
ATOM     29  C   UNL     1      -6.332  13.716  21.716  0.00  0.00    +0.000 C 
ATOM     30  N   UNL     1      -5.695  12.381  21.588  0.00  0.00    +0.000 NA
ATOM     31  C   UNL     1      -6.495  11.566  20.648  0.00  0.00    +0.000 C 
ATOM     32  C   UNL     1      -6.873  12.251  19.317  0.00  0.00    +0.000 C 
ENDBRANCH  25  30
ENDBRANCH   1  25
TORSDOF 3
ENDMDL
MODEL 3
REMARK VINA RESULT:      -7.6      0.741      1.130
REMARK  Name = 
REMARK  4 active torsions:
REMARK  status: ('A' for Active; 'I' for Inactive)
REMARK    1  A    between atoms: C_1  and  N_2
REMARK    2  A    between atoms: N_5  and  C_6
REMARK    3  A    between atoms: C_6  and  C_7
REMARK    4  A    between atoms: C_17  and  C_18
REMARK                            x       y       z     vdW  Elec       q    Type
REMARK                         _______ _______ _______ _____ _____    ______ ____
ROOT
ATOM      1  C   UNL     1       2.097   8.449  18.425  0.00  0.00    +0.000 C 
ATOM      2  O   UNL     1       2.909   8.680  17.527  0.00  0.00    +0.000 OA
ATOM      3  N   UNL     1       1.413   9.495  19.074  0.00  0.00    +0.000 N 
ATOM      4  C   UNL     1       1.572  10.818  18.443  0.00  0.00    +0.000 C 
ATOM      5  C   UNL     1       0.298  11.644  18.581  0.00  0.00    +0.000 C 
ATOM      6  N   UNL     1      -0.147  11.620  19.961  0.00  0.00    +0.000 N 
ATOM      7  C   UNL     1       0.353  10.738  20.864  0.00  0.00    +0.000 A 
ATOM      8  C   UNL     1      -0.281  10.934  22.067  0.00  0.00    +0.000 A 
ATOM      9  C   UNL     1      -1.411  11.748  21.792  0.00  0.00    +0.000 A 
ATOM     10  C   UNL     1      -2.580  12.047  22.510  0.00  0.00    +0.000 A 
ATOM     11  C   UNL     1      -3.657  12.697  21.880  0.00  0.00    +0.000 A 
ATOM     12  C   UNL     1      -3.528  13.036  20.527  0.00  0.00    +0.000 A 
ATOM     13  C   UNL     1      -2.354  12.811  19.805  0.00  0.00    +0.000 A 
ATOM     14  C   UNL     1      -1.322  12.134  20.452  0.00  0.00    +0.000 A 
ATOM     15  C   UNL     1      -0.021   9.979  23.173  0.00  0.00    +0.000 C 
ATOM     16  C   UNL     1      -0.296   8.594  22.580  0.00  0.00    +0.000 C 
ATOM     17  C   UNL     1       0.452   8.323  21.233  0.00  0.00    +0.000 C 
ATOM     18  C   UNL     1       1.188   9.535  20.547  0.00  0.00    +0.000 C 
ENDROOT
BRANCH  11  19
ATOM     19  C   UNL     1      -4.912  12.967  22.702  0.00  0.00    +0.000 C 
ATOM     20  C   UNL     1      -4.576  13.082  24.201  0.00  0.00    +0.000 C 
ATOM     21  C   UNL     1      -3.802  14.360  24.504  0.00  0.00    +0.000 C 
ATOM     22  C   UNL     1      -4.572  15.605  24.074  0.00  0.00    +0.000 C 
ATOM     23  C   UNL     1      -5.125  15.538  22.654  0.00  0.00    +0.000 C 
ATOM     24  C   UNL     1      -5.756  14.190  22.293  0.00  0.00    +0.000 C 
ENDBRANCH  11  19
BRANCH   1  25
ATOM     25  C   UNL     1       1.658   7.036  18.820  0.00  0.00    +0.000 C 
BRANCH  25  30
ATOM     26  C   UNL     1       2.503   2.320  17.679  0.00  0.00    +0.000 C 
ATOM     27  N   UNL     1       2.794   3.429  18.578  0.00  0.00    +0.000 NA
ATOM     28  C   UNL     1       1.585   3.914  19.262  0.00  0.00    +0.000 C 
ATOM     29  C   UNL     1       1.906   5.090  20.223  0.00  0.00    +0.000 C 
ATOM     30  N   UNL     1       2.618   6.237  19.606  0.00  0.00    +0.000 NA
ATOM     31  C   UNL     1       3.760   5.717  18.823  0.00  0.00    +0.000 C 
ATOM     32  C   UNL     1       3.442   4.543  17.870  0.00  0.00    +0.000 C 
ENDBRANCH  25  30
ENDBRANCH   1  25
TORSDOF 3
ENDMDL
MODEL 4
REMARK VINA RESULT:      -7.5      2.257      3.288
REMARK  Name = 
REMARK  4 active torsions:
REMARK  status: ('A' for Active; 'I' for Inactive)
REMARK    1  A    between atoms: C_1  and  N_2
REMARK    2  A    between atoms: N_5  and  C_6
REMARK    3  A    between atoms: C_6  and  C_7
REMARK    4  A    between atoms: C_17  and  C_18
REMARK                            x       y       z     vdW  Elec       q    Type
REMARK                         _______ _______ _______ _____ _____    ______ ____
ROOT
ATOM      1  C   UNL     1       2.442   6.988  19.403  0.00  0.00    +0.000 C 
ATOM      2  O   UNL     1       3.365   6.738  18.626  0.00  0.00    +0.000 OA
ATOM      3  N   UNL     1       1.705   8.182  19.297  0.00  0.00    +0.000 N 
ATOM      4  C   UNL     1       1.971   8.962  18.073  0.00  0.00    +0.000 C 
ATOM      5  C   UNL     1       0.709   9.668  17.592  0.00  0.00    +0.000 C 
ATOM      6  N   UNL     1       0.093  10.370  18.702  0.00  0.00    +0.000 N 
ATOM      7  C   UNL     1       0.457  10.141  19.990  0.00  0.00    +0.000 A 
ATOM      8  C   UNL     1      -0.319  10.923  20.810  0.00  0.00    +0.000 A 
ATOM      9  C   UNL     1      -1.387  11.402  20.008  0.00  0.00    +0.000 A 
ATOM     10  C   UNL     1      -2.631  11.983  20.307  0.00  0.00    +0.000 A 
ATOM     11  C   UNL     1      -3.605  12.135  19.304  0.00  0.00    +0.000 A 
ATOM     12  C   UNL     1      -3.300  11.697  18.009  0.00  0.00    +0.000 A 
ATOM     13  C   UNL     1      -2.050  11.177  17.668  0.00  0.00    +0.000 A 
ATOM     14  C   UNL     1      -1.123  11.008  18.694  0.00  0.00    +0.000 A 
ATOM     15  C   UNL     1      -0.221  10.730  22.279  0.00  0.00    +0.000 C 
ATOM     16  C   UNL     1      -0.450   9.232  22.502  0.00  0.00    +0.000 C 
ATOM     17  C   UNL     1       0.455   8.315  21.616  0.00  0.00    +0.000 C 
ATOM     18  C   UNL     1       1.298   9.000  20.475  0.00  0.00    +0.000 C 
ENDROOT
BRANCH  11  19
ATOM     19  C   UNL     1      -4.947  12.744  19.695  0.00  0.00    +0.000 C 
ATOM     20  C   UNL     1      -5.744  13.171  18.448  0.00  0.00    +0.000 C 
ATOM     21  C   UNL     1      -6.241  11.963  17.661  0.00  0.00    +0.000 C 
ATOM     22  C   UNL     1      -7.113  11.049  18.515  0.00  0.00    +0.000 C 
ATOM     23  C   UNL     1      -6.511  10.699  19.872  0.00  0.00    +0.000 C 
ATOM     24  C   UNL     1      -5.860  11.885  20.591  0.00  0.00    +0.000 C 
ENDBRANCH  11  19
BRANCH   1  25
ATOM     25  C   UNL     1       1.927   5.991  20.446  0.00  0.00    +0.000 C 
BRANCH  25  30
ATOM     26  C   UNL     1       4.548   1.825  20.291  0.00  0.00    +0.000 C 
ATOM     27  N   UNL     1       3.280   2.481  19.999  0.00  0.00    +0.000 NA
ATOM     28  C   UNL     1       3.444   3.600  19.058  0.00  0.00    +0.000 C 
ATOM     29  C   UNL     1       2.087   4.286  18.747  0.00  0.00    +0.000 C 
ATOM     30  N   UNL     1       1.322   4.746  19.933  0.00  0.00    +0.000 NA
ATOM     31  C   UNL     1       1.274   3.644  20.919  0.00  0.00    +0.000 C 
ATOM     32  C   UNL     1       2.623   2.957  21.225  0.00  0.00    +0.000 C 
ENDBRANCH  25  30
ENDBRANCH   1  25
TORSDOF 3
ENDMDL
MODEL 5
REMARK VINA RESULT:      -7.3      1.997      2.778
REMARK  Name = 
REMARK  4 active torsions:
REMARK  status: ('A' for Active; 'I' for Inactive)
REMARK    1  A    between atoms: C_1  and  N_2
REMARK    2  A    between atoms: N_5  and  C_6
REMARK    3  A    between atoms: C_6  and  C_7
REMARK    4  A    between atoms: C_17  and  C_18
REMARK                            x       y       z     vdW  Elec       q    Type
REMARK                         _______ _______ _______ _____ _____    ______ ____
ROOT
ATOM      1  C   UNL     1       2.166   7.761  19.236  0.00  0.00    +0.000 C 
ATOM      2  O   UNL     1       3.006   7.632  18.343  0.00  0.00    +0.000 OA
ATOM      3  N   UNL     1       1.332   8.893  19.293  0.00  0.00    +0.000 N 
ATOM      4  C   UNL     1       1.389   9.759  18.099  0.00  0.00    +0.000 C 
ATOM      5  C   UNL     1       0.027  10.382  17.814  0.00  0.00    +0.000 C 
ATOM      6  N   UNL     1      -0.502  10.967  19.030  0.00  0.00    +0.000 N 
ATOM      7  C   UNL     1       0.030  10.699  20.250  0.00  0.00    +0.000 A 
ATOM      8  C   UNL     1      -0.700  11.367  21.203  0.00  0.00    +0.000 A 
ATOM      9  C   UNL     1      -1.890  11.799  20.562  0.00  0.00    +0.000 A 
ATOM     10  C   UNL     1      -3.130  12.256  21.039  0.00  0.00    +0.000 A 
ATOM     11  C   UNL     1      -4.226  12.381  20.167  0.00  0.00    +0.000 A 
ATOM     12  C   UNL     1      -4.047  12.041  18.821  0.00  0.00    +0.000 A 
ATOM     13  C   UNL     1      -2.810  11.647  18.304  0.00  0.00    +0.000 A 
ATOM     14  C   UNL     1      -1.756  11.501  19.203  0.00  0.00    +0.000 A 
ATOM     15  C   UNL     1      -0.411  11.102  22.636  0.00  0.00    +0.000 C 
ATOM     16  C   UNL     1      -0.496   9.581  22.787  0.00  0.00    +0.000 C 
ATOM     17  C   UNL     1       0.364   8.792  21.744  0.00  0.00    +0.000 C 
ATOM     18  C   UNL     1       1.008   9.608  20.561  0.00  0.00    +0.000 C 
ENDROOT
BRANCH  11  19
ATOM     19  C   UNL     1      -5.555  12.853  20.749  0.00  0.00    +0.000 C 
ATOM     20  C   UNL     1      -6.042  14.134  20.046  0.00  0.00    +0.000 C 
ATOM     21  C   UNL     1      -6.485  13.851  18.615  0.00  0.00    +0.000 C 
ATOM     22  C   UNL     1      -7.595  12.805  18.560  0.00  0.00    +0.000 C 
ATOM     23  C   UNL     1      -7.312  11.550  19.380  0.00  0.00    +0.000 C 
ATOM     24  C   UNL     1      -6.706  11.829  20.759  0.00  0.00    +0.000 C 
ENDBRANCH  11  19
BRANCH   1  25
ATOM     25  C   UNL     1       1.857   6.668  20.265  0.00  0.00    +0.000 C 
BRANCH  25  30
ATOM     26  C   UNL     1       0.617   2.153  18.739  0.00  0.00    +0.000 C 
ATOM     27  N   UNL     1       1.635   2.999  19.348  0.00  0.00    +0.000 NA
ATOM     28  C   UNL     1       1.166   3.610  20.601  0.00  0.00    +0.000 C 
ATOM     29  C   UNL     1       2.261   4.502  21.245  0.00  0.00    +0.000 C 
ATOM     30  N   UNL     1       2.822   5.555  20.362  0.00  0.00    +0.000 NA
ATOM     31  C   UNL     1       3.174   4.942  19.063  0.00  0.00    +0.000 C 
ATOM     32  C   UNL     1       2.087   4.050  18.424  0.00  0.00    +0.000 C 
ENDBRANCH  25  30
ENDBRANCH   1  25
TORSDOF 3
ENDMDL
MODEL 6
REMARK VINA RESULT:      -7.2      2.461      9.515
REMARK  Name = 
REMARK  4 active torsions:
REMARK  status: ('A' for Active; 'I' for Inactive)
REMARK    1  A    between atoms: C_1  and  N_2
REMARK    2  A    between atoms: N_5  and  C_6
REMARK    3  A    between atoms: C_6  and  C_7
REMARK    4  A    between atoms: C_17  and  C_18
REMARK                            x       y       z     vdW  Elec       q    Type
REMARK                         _______ _______ _______ _____ _____    ______ ____
ROOT
ATOM      1  C   UNL     1      -1.220  11.532  22.205  0.00  0.00    +0.000 C 
ATOM      2  O   UNL     1      -1.132  12.024  23.331  0.00  0.00    +0.000 OA
ATOM      3  N   UNL     1      -0.266  10.609  21.738  0.00  0.00    +0.000 N 
ATOM      4  C   UNL     1       0.674  10.123  22.766  0.00  0.00    +0.000 C 
ATOM      5  C   UNL     1       1.055   8.669  22.513  0.00  0.00    +0.000 C 
ATOM      6  N   UNL     1       1.450   8.507  21.127  0.00  0.00    +0.000 N 
ATOM      7  C   UNL     1       1.202   9.458  20.191  0.00  0.00    +0.000 A 
ATOM      8  C   UNL     1       1.659   9.008  18.976  0.00  0.00    +0.000 A 
ATOM      9  C   UNL     1       1.908   7.620  19.135  0.00  0.00    +0.000 A 
ATOM     10  C   UNL     1       2.098   6.565  18.226  0.00  0.00    +0.000 A 
ATOM     11  C   UNL     1       2.078   5.231  18.671  0.00  0.00    +0.000 A 
ATOM     12  C   UNL     1       1.869   4.987  20.034  0.00  0.00    +0.000 A 
ATOM     13  C   UNL     1       1.744   6.016  20.970  0.00  0.00    +0.000 A 
ATOM     14  C   UNL     1       1.732   7.323  20.489  0.00  0.00    +0.000 A 
ATOM     15  C   UNL     1       1.356   9.806  17.761  0.00  0.00    +0.000 C 
ATOM     16  C   UNL     1      -0.162  10.007  17.782  0.00  0.00    +0.000 C 
ATOM     17  C   UNL     1      -0.707  10.565  19.138  0.00  0.00    +0.000 C 
ATOM     18  C   UNL     1       0.291  10.636  20.355  0.00  0.00    +0.000 C 
ENDROOT
BRANCH  11  19
ATOM     19  C   UNL     1       2.258   4.127  17.634  0.00  0.00    +0.000 C 
ATOM     20  C   UNL     1       3.745   3.938  17.281  0.00  0.00    +0.000 C 
ATOM     21  C   UNL     1       4.520   3.318  18.439  0.00  0.00    +0.000 C 
ATOM     22  C   UNL     1       3.936   1.971  18.855  0.00  0.00    +0.000 C 
ATOM     23  C   UNL     1       2.424   1.981  19.056  0.00  0.00    +0.000 C 
ATOM     24  C   UNL     1       1.656   2.752  17.977  0.00  0.00    +0.000 C 
ENDBRANCH  11  19
BRANCH   1  25
ATOM     25  C   UNL     1      -2.417  11.762  21.277  0.00  0.00    +0.000 C 
BRANCH  25  30
ATOM     26  C   UNL     1      -7.267  12.614  21.247  0.00  0.00    +0.000 C 
ATOM     27  N   UNL     1      -5.928  13.183  21.174  0.00  0.00    +0.000 NA
ATOM     28  C   UNL     1      -5.170  12.658  20.027  0.00  0.00    +0.000 C 
ATOM     29  C   UNL     1      -3.748  13.276  19.954  0.00  0.00    +0.000 C 
ATOM     30  N   UNL     1      -2.933  13.142  21.187  0.00  0.00    +0.000 NA
ATOM     31  C   UNL     1      -3.756  13.559  22.343  0.00  0.00    +0.000 C 
ATOM     32  C   UNL     1      -5.173  12.949  22.414  0.00  0.00    +0.000 C 
ENDBRANCH  25  30
ENDBRANCH   1  25
TORSDOF 3
ENDMDL
MODEL 7
REMARK VINA RESULT:      -7.2      1.672      2.222
REMARK  Name = 
REMARK  4 active torsions:
REMARK  status: ('A' for Active; 'I' for Inactive)
REMARK    1  A    between atoms: C_1  and  N_2
REMARK    2  A    between atoms: N_5  and  C_6
REMARK    3  A    between atoms: C_6  and  C_7
REMARK    4  A    between atoms: C_17  and  C_18
REMARK                            x       y       z     vdW  Elec       q    Type
REMARK                         _______ _______ _______ _____ _____    ______ ____
ROOT
ATOM      1  C   UNL     1       2.116   7.865  19.199  0.00  0.00    +0.000 C 
ATOM      2  O   UNL     1       2.955   7.758  18.303  0.00  0.00    +0.000 OA
ATOM      3  N   UNL     1       1.268   8.986  19.272  0.00  0.00    +0.000 N 
ATOM      4  C   UNL     1       1.310   9.866  18.088  0.00  0.00    +0.000 C 
ATOM      5  C   UNL     1      -0.060  10.475  17.814  0.00  0.00    +0.000 C 
ATOM      6  N   UNL     1      -0.594  11.039  19.038  0.00  0.00    +0.000 N 
ATOM      7  C   UNL     1      -0.055  10.763  20.253  0.00  0.00    +0.000 A 
ATOM      8  C   UNL     1      -0.791  11.410  21.217  0.00  0.00    +0.000 A 
ATOM      9  C   UNL     1      -1.989  11.834  20.584  0.00  0.00    +0.000 A 
ATOM     10  C   UNL     1      -3.233  12.269  21.070  0.00  0.00    +0.000 A 
ATOM     11  C   UNL     1      -4.333  12.390  20.202  0.00  0.00    +0.000 A 
ATOM     12  C   UNL     1      -4.153  12.069  18.851  0.00  0.00    +0.000 A 
ATOM     13  C   UNL     1      -2.912  11.697  18.327  0.00  0.00    +0.000 A 
ATOM     14  C   UNL     1      -1.854  11.554  19.221  0.00  0.00    +0.000 A 
ATOM     15  C   UNL     1      -0.495  11.133  22.645  0.00  0.00    +0.000 C 
ATOM     16  C   UNL     1      -0.560   9.608  22.778  0.00  0.00    +0.000 C 
ATOM     17  C   UNL     1       0.307   8.844  21.724  0.00  0.00    +0.000 C 
ATOM     18  C   UNL     1       0.938   9.681  20.549  0.00  0.00    +0.000 C 
ENDROOT
BRANCH  11  19
ATOM     19  C   UNL     1      -5.666  12.838  20.793  0.00  0.00    +0.000 C 
ATOM     20  C   UNL     1      -5.475  14.033  21.745  0.00  0.00    +0.000 C 
ATOM     21  C   UNL     1      -5.104  15.301  20.983  0.00  0.00    +0.000 C 
ATOM     22  C   UNL     1      -6.156  15.664  19.940  0.00  0.00    +0.000 C 
ATOM     23  C   UNL     1      -6.575  14.503  19.044  0.00  0.00    +0.000 C 
ATOM     24  C   UNL     1      -6.785  13.182  19.791  0.00  0.00    +0.000 C 
ENDBRANCH  11  19
BRANCH   1  25
ATOM     25  C   UNL     1       1.825   6.757  20.216  0.00  0.00    +0.000 C 
BRANCH  25  30
ATOM     26  C   UNL     1       0.586   2.212  18.780  0.00  0.00    +0.000 C 
ATOM     27  N   UNL     1       1.614   3.075  19.348  0.00  0.00    +0.000 NA
ATOM     28  C   UNL     1       1.176   3.696  20.607  0.00  0.00    +0.000 C 
ATOM     29  C   UNL     1       2.280   4.606  21.208  0.00  0.00    +0.000 C 
ATOM     30  N   UNL     1       2.803   5.655  20.296  0.00  0.00    +0.000 NA
ATOM     31  C   UNL     1       3.123   5.030  18.994  0.00  0.00    +0.000 C 
ATOM     32  C   UNL     1       2.027   4.120  18.399  0.00  0.00    +0.000 C 
ENDBRANCH  25  30
ENDBRANCH   1  25
TORSDOF 3
ENDMDL
MODEL 8
REMARK VINA RESULT:      -7.1      6.610     10.503
REMARK  Name = 
REMARK  4 active torsions:
REMARK  status: ('A' for Active; 'I' for Inactive)
REMARK    1  A    between atoms: C_1  and  N_2
REMARK    2  A    between atoms: N_5  and  C_6
REMARK    3  A    between atoms: C_6  and  C_7
REMARK    4  A    between atoms: C_17  and  C_18
REMARK                            x       y       z     vdW  Elec       q    Type
REMARK                         _______ _______ _______ _____ _____    ______ ____
ROOT
ATOM      1  C   UNL     1       1.861  14.560  21.526  0.00  0.00    +0.000 C 
ATOM      2  O   UNL     1       1.132  14.889  22.463  0.00  0.00    +0.000 OA
ATOM      3  N   UNL     1       3.240  14.840  21.543  0.00  0.00    +0.000 N 
ATOM      4  C   UNL     1       3.752  15.329  22.838  0.00  0.00    +0.000 C 
ATOM      5  C   UNL     1       5.172  14.833  23.084  0.00  0.00    +0.000 C 
ATOM      6  N   UNL     1       5.985  15.093  21.913  0.00  0.00    +0.000 N 
ATOM      7  C   UNL     1       5.439  15.437  20.718  0.00  0.00    +0.000 A 
ATOM      8  C   UNL     1       6.450  15.584  19.799  0.00  0.00    +0.000 A 
ATOM      9  C   UNL     1       7.607  15.009  20.387  0.00  0.00    +0.000 A 
ATOM     10  C   UNL     1       8.844  14.590  19.868  0.00  0.00    +0.000 A 
ATOM     11  C   UNL     1       9.720  13.819  20.652  0.00  0.00    +0.000 A 
ATOM     12  C   UNL     1       9.328  13.485  21.955  0.00  0.00    +0.000 A 
ATOM     13  C   UNL     1       8.135  13.943  22.520  0.00  0.00    +0.000 A 
ATOM     14  C   UNL     1       7.277  14.674  21.703  0.00  0.00    +0.000 A 
ATOM     15  C   UNL     1       6.092  15.801  18.375  0.00  0.00    +0.000 C 
ATOM     16  C   UNL     1       5.137  14.656  18.024  0.00  0.00    +0.000 C 
ATOM     17  C   UNL     1       3.947  14.495  19.026  0.00  0.00    +0.000 C 
ATOM     18  C   UNL     1       3.989  15.340  20.355  0.00  0.00    +0.000 C 
ENDROOT
BRANCH  11  19
ATOM     19  C   UNL     1      11.034  13.367  20.025  0.00  0.00    +0.000 C 
ATOM     20  C   UNL     1      11.226  11.846  20.178  0.00  0.00    +0.000 C 
ATOM     21  C   UNL     1      10.253  11.069  19.299  0.00  0.00    +0.000 C 
ATOM     22  C   UNL     1      10.398  11.438  17.827  0.00  0.00    +0.000 C 
ATOM     23  C   UNL     1      10.412  12.939  17.557  0.00  0.00    +0.000 C 
ATOM     24  C   UNL     1      11.260  13.744  18.548  0.00  0.00    +0.000 C 
ENDBRANCH  11  19
BRANCH   1  25
ATOM     25  C   UNL     1       1.381  13.713  20.343  0.00  0.00    +0.000 C 
BRANCH  25  30
ATOM     26  C   UNL     1      -2.660  11.490  18.615  0.00  0.00    +0.000 C 
ATOM     27  N   UNL     1      -1.435  11.362  19.393  0.00  0.00    +0.000 NA
ATOM     28  C   UNL     1      -1.418  12.274  20.547  0.00  0.00    +0.000 C 
ATOM     29  C   UNL     1      -0.113  12.124  21.373  0.00  0.00    +0.000 C 
ATOM     30  N   UNL     1       1.147  12.280  20.604  0.00  0.00    +0.000 NA
ATOM     31  C   UNL     1       1.059  11.447  19.384  0.00  0.00    +0.000 C 
ATOM     32  C   UNL     1      -0.242  11.592  18.564  0.00  0.00    +0.000 C 
ENDBRANCH  25  30
ENDBRANCH   1  25
TORSDOF 3
ENDMDL
MODEL 9
REMARK VINA RESULT:      -7.1      6.680     10.432
REMARK  Name = 
REMARK  4 active torsions:
REMARK  status: ('A' for Active; 'I' for Inactive)
REMARK    1  A    between atoms: C_1  and  N_2
REMARK    2  A    between atoms: N_5  and  C_6
REMARK    3  A    between atoms: C_6  and  C_7
REMARK    4  A    between atoms: C_17  and  C_18
REMARK                            x       y       z     vdW  Elec       q    Type
REMARK                         _______ _______ _______ _____ _____    ______ ____
ROOT
ATOM      1  C   UNL     1       1.977  14.441  21.442  0.00  0.00    +0.000 C 
ATOM      2  O   UNL     1       1.229  14.707  22.385  0.00  0.00    +0.000 OA
ATOM      3  N   UNL     1       3.354  14.729  21.502  0.00  0.00    +0.000 N 
ATOM      4  C   UNL     1       3.839  15.140  22.833  0.00  0.00    +0.000 C 
ATOM      5  C   UNL     1       5.258  14.639  23.074  0.00  0.00    +0.000 C 
ATOM      6  N   UNL     1       6.090  14.976  21.935  0.00  0.00    +0.000 N 
ATOM      7  C   UNL     1       5.562  15.390  20.754  0.00  0.00    +0.000 A 
ATOM      8  C   UNL     1       6.588  15.600  19.864  0.00  0.00    +0.000 A 
ATOM      9  C   UNL     1       7.739  14.997  20.436  0.00  0.00    +0.000 A 
ATOM     10  C   UNL     1       8.988  14.620  19.915  0.00  0.00    +0.000 A 
ATOM     11  C   UNL     1       9.856  13.807  20.665  0.00  0.00    +0.000 A 
ATOM     12  C   UNL     1       9.444  13.391  21.938  0.00  0.00    +0.000 A 
ATOM     13  C   UNL     1       8.238  13.805  22.509  0.00  0.00    +0.000 A 
ATOM     14  C   UNL     1       7.388  14.580  21.723  0.00  0.00    +0.000 A 
ATOM     15  C   UNL     1       6.253  15.902  18.450  0.00  0.00    +0.000 C 
ATOM     16  C   UNL     1       5.313  14.775  18.012  0.00  0.00    +0.000 C 
ATOM     17  C   UNL     1       4.107  14.544  18.981  0.00  0.00    +0.000 C 
ATOM     18  C   UNL     1       4.119  15.306  20.360  0.00  0.00    +0.000 C 
ENDROOT
BRANCH  11  19
ATOM     19  C   UNL     1      11.184  13.403  20.035  0.00  0.00    +0.000 C 
ATOM     20  C   UNL     1      11.402  11.881  20.130  0.00  0.00    +0.000 C 
ATOM     21  C   UNL     1      10.451  11.122  19.211  0.00  0.00    +0.000 C 
ATOM     22  C   UNL     1      10.605  11.552  17.756  0.00  0.00    +0.000 C 
ATOM     23  C   UNL     1      10.594  13.063  17.546  0.00  0.00    +0.000 C 
ATOM     24  C   UNL     1      11.418  13.842  18.577  0.00  0.00    +0.000 C 
ENDBRANCH  11  19
BRANCH   1  25
ATOM     25  C   UNL     1       1.524  13.666  20.201  0.00  0.00    +0.000 C 
BRANCH  25  30
ATOM     26  C   UNL     1       1.310   8.768  19.734  0.00  0.00    +0.000 C 
ATOM     27  N   UNL     1       0.571  10.009  19.924  0.00  0.00    +0.000 NA
ATOM     28  C   UNL     1       0.765  10.942  18.804  0.00  0.00    +0.000 C 
ATOM     29  C   UNL     1      -0.032  12.257  19.013  0.00  0.00    +0.000 C 
ATOM     30  N   UNL     1       0.230  12.962  20.293  0.00  0.00    +0.000 NA
ATOM     31  C   UNL     1       0.150  11.980  21.396  0.00  0.00    +0.000 C 
ATOM     32  C   UNL     1       0.939  10.669  21.186  0.00  0.00    +0.000 C 
ENDBRANCH  25  30
ENDBRANCH   1  25
TORSDOF 3
ENDMDL
