MODEL 1
REMARK VINA RESULT:      -8.4      0.000      0.000
REMARK  Name = 
REMARK  5 active torsions:
REMARK  status: ('A' for Active; 'I' for Inactive)
REMARK    1  A    between atoms: C_4  and  C_5
REMARK    2  A    between atoms: C_5  and  C_6
REMARK    3  A    between atoms: C_6  and  N_7
REMARK    4  A    between atoms: C_11  and  C_12
REMARK    5  A    between atoms: C_16  and  N_17
REMARK                            x       y       z     vdW  Elec       q    Type
REMARK                         _______ _______ _______ _____ _____    ______ ____
ROOT
ATOM      1  N   UNL     1       2.143   4.353  19.094  0.00  0.00    +0.000 NA
ATOM      2  C   UNL     1       1.398   3.249  18.463  0.00  0.00    +0.000 C 
ATOM      3  C   UNL     1       1.693   2.041  19.326  0.00  0.00    +0.000 C 
ATOM      4  C   UNL     1       3.158   2.226  19.677  0.00  0.00    +0.000 C 
ATOM      5  C   UNL     1       3.417   3.737  19.579  0.00  0.00    +0.000 C 
ENDROOT
BRANCH   5   6
ATOM      6  C   UNL     1       4.624   4.052  18.704  0.00  0.00    +0.000 A 
ATOM      7  C   UNL     1       5.836   4.475  19.250  0.00  0.00    +0.000 A 
ATOM      8  N   UNL     1       6.924   4.754  18.508  0.00  0.00    +0.000 NA
ATOM      9  C   UNL     1       6.754   4.593  17.175  0.00  0.00    +0.000 A 
ATOM     10  C   UNL     1       5.559   4.170  16.585  0.00  0.00    +0.000 A 
ATOM     11  N   UNL     1       4.485   3.871  17.355  0.00  0.00    +0.000 NA
BRANCH  10  12
ATOM     12  N   UNL     1       5.429   3.986  15.202  0.00  0.00    +0.000 N 
ATOM     13  C   UNL     1       6.332   4.461  14.313  0.00  0.00    +0.000 A 
ATOM     14  N   UNL     1       7.216   5.413  14.537  0.00  0.00    +0.000 NA
ATOM     15  N   UNL     1       8.062   5.634  13.477  0.00  0.00    +0.000 NA
ATOM     16  C   UNL     1       7.796   4.832  12.476  0.00  0.00    +0.000 A 
ATOM     17  S   UNL     1       6.452   3.799  12.722  0.00  0.00    +0.000 S 
ATOM     18  H   UNL     1       4.453   3.958  14.938  0.00  0.00    +0.000 HD
ENDBRANCH  10  12
ENDBRANCH   5   6
BRANCH   1  19
ATOM     19  C   UNL     1       1.364   4.975  20.185  0.00  0.00    +0.000 C 
BRANCH  19  20
ATOM     20  C   UNL     1       2.046   6.223  20.778  0.00  0.00    +0.000 C 
BRANCH  20  24
ATOM     21  C   UNL     1       1.731   9.613  18.126  0.00  0.00    +0.000 A 
ATOM     22  C   UNL     1       2.439   8.479  17.729  0.00  0.00    +0.000 A 
ATOM     23  C   UNL     1       2.547   7.387  18.591  0.00  0.00    +0.000 A 
ATOM     24  C   UNL     1       1.944   7.417  19.857  0.00  0.00    +0.000 A 
ATOM     25  C   UNL     1       1.246   8.564  20.251  0.00  0.00    +0.000 A 
ATOM     26  C   UNL     1       1.138   9.656  19.387  0.00  0.00    +0.000 A 
ENDBRANCH  20  24
ENDBRANCH  19  20
ENDBRANCH   1  19
TORSDOF 5
ENDMDL
MODEL 2
REMARK VINA RESULT:      -8.3      3.212      7.659
REMARK  Name = 
REMARK  5 active torsions:
REMARK  status: ('A' for Active; 'I' for Inactive)
REMARK    1  A    between atoms: C_4  and  C_5
REMARK    2  A    between atoms: C_5  and  C_6
REMARK    3  A    between atoms: C_6  and  N_7
REMARK    4  A    between atoms: C_11  and  C_12
REMARK    5  A    between atoms: C_16  and  N_17
REMARK                            x       y       z     vdW  Elec       q    Type
REMARK                         _______ _______ _______ _____ _____    ______ ____
ROOT
ATOM      1  N   UNL     1       5.718   4.909  16.278  0.00  0.00    +0.000 NA
ATOM      2  C   UNL     1       6.267   6.274  16.374  0.00  0.00    +0.000 C 
ATOM      3  C   UNL     1       7.265   6.208  17.510  0.00  0.00    +0.000 C 
ATOM      4  C   UNL     1       6.577   5.302  18.515  0.00  0.00    +0.000 C 
ATOM      5  C   UNL     1       5.621   4.426  17.690  0.00  0.00    +0.000 C 
ENDROOT
BRANCH   5   6
ATOM      6  C   UNL     1       4.204   4.448  18.250  0.00  0.00    +0.000 A 
ATOM      7  C   UNL     1       3.251   3.502  17.871  0.00  0.00    +0.000 A 
ATOM      8  N   UNL     1       1.993   3.486  18.351  0.00  0.00    +0.000 NA
ATOM      9  C   UNL     1       1.716   4.470  19.239  0.00  0.00    +0.000 A 
ATOM     10  C   UNL     1       2.640   5.436  19.648  0.00  0.00    +0.000 A 
ATOM     11  N   UNL     1       3.908   5.416  19.169  0.00  0.00    +0.000 NA
BRANCH  10  12
ATOM     12  N   UNL     1       2.326   6.422  20.593  0.00  0.00    +0.000 N 
ATOM     13  C   UNL     1       1.851   7.642  20.247  0.00  0.00    +0.000 A 
ATOM     14  N   UNL     1       1.942   8.201  19.057  0.00  0.00    +0.000 NA
ATOM     15  N   UNL     1       1.297   9.412  18.971  0.00  0.00    +0.000 NA
ATOM     16  C   UNL     1       0.726   9.732  20.106  0.00  0.00    +0.000 A 
ATOM     17  S   UNL     1       0.991   8.620  21.381  0.00  0.00    +0.000 S 
ATOM     18  H   UNL     1       2.929   6.345  21.401  0.00  0.00    +0.000 HD
ENDBRANCH  10  12
ENDBRANCH   5   6
BRANCH   1  19
ATOM     19  C   UNL     1       6.574   4.042  15.441  0.00  0.00    +0.000 C 
BRANCH  19  20
ATOM     20  C   UNL     1       6.811   4.611  14.029  0.00  0.00    +0.000 C 
BRANCH  20  24
ATOM     21  C   UNL     1       4.964   2.219  10.949  0.00  0.00    +0.000 A 
ATOM     22  C   UNL     1       4.226   3.203  11.606  0.00  0.00    +0.000 A 
ATOM     23  C   UNL     1       4.822   3.970  12.607  0.00  0.00    +0.000 A 
ATOM     24  C   UNL     1       6.165   3.763  12.959  0.00  0.00    +0.000 A 
ATOM     25  C   UNL     1       6.893   2.765  12.302  0.00  0.00    +0.000 A 
ATOM     26  C   UNL     1       6.295   1.998  11.300  0.00  0.00    +0.000 A 
ENDBRANCH  20  24
ENDBRANCH  19  20
ENDBRANCH   1  19
TORSDOF 5
ENDMDL
MODEL 3
REMARK VINA RESULT:      -8.2      3.813      7.311
REMARK  Name = 
REMARK  5 active torsions:
REMARK  status: ('A' for Active; 'I' for Inactive)
REMARK    1  A    between atoms: C_4  and  C_5
REMARK    2  A    between atoms: C_5  and  C_6
REMARK    3  A    between atoms: C_6  and  N_7
REMARK    4  A    between atoms: C_11  and  C_12
REMARK    5  A    between atoms: C_16  and  N_17
REMARK                            x       y       z     vdW  Elec       q    Type
REMARK                         _______ _______ _______ _____ _____    ______ ____
ROOT
ATOM      1  N   UNL     1       4.200   4.784  16.953  0.00  0.00    +0.000 NA
ATOM      2  C   UNL     1       5.199   5.231  15.965  0.00  0.00    +0.000 C 
ATOM      3  C   UNL     1       6.453   5.486  16.773  0.00  0.00    +0.000 C 
ATOM      4  C   UNL     1       5.914   6.111  18.047  0.00  0.00    +0.000 C 
ATOM      5  C   UNL     1       4.472   5.597  18.179  0.00  0.00    +0.000 C 
ENDROOT
BRANCH   5   6
ATOM      6  C   UNL     1       3.481   6.734  18.394  0.00  0.00    +0.000 A 
ATOM      7  C   UNL     1       3.229   7.684  17.404  0.00  0.00    +0.000 A 
ATOM      8  N   UNL     1       2.354   8.697  17.556  0.00  0.00    +0.000 NA
ATOM      9  C   UNL     1       1.731   8.728  18.758  0.00  0.00    +0.000 A 
ATOM     10  C   UNL     1       1.952   7.798  19.777  0.00  0.00    +0.000 A 
ATOM     11  N   UNL     1       2.818   6.772  19.590  0.00  0.00    +0.000 NA
BRANCH  10  12
ATOM     12  N   UNL     1       1.266   7.844  20.997  0.00  0.00    +0.000 N 
ATOM     13  C   UNL     1       0.801   8.997  21.532  0.00  0.00    +0.000 A 
ATOM     14  N   UNL     1       1.199  10.215  21.216  0.00  0.00    +0.000 NA
ATOM     15  N   UNL     1       0.494  11.204  21.860  0.00  0.00    +0.000 NA
ATOM     16  C   UNL     1      -0.428  10.703  22.644  0.00  0.00    +0.000 A 
ATOM     17  S   UNL     1      -0.459   8.992  22.712  0.00  0.00    +0.000 S 
ATOM     18  H   UNL     1       1.595   7.117  21.619  0.00  0.00    +0.000 HD
ENDBRANCH  10  12
ENDBRANCH   5   6
BRANCH   1  19
ATOM     19  C   UNL     1       4.303   3.331  17.204  0.00  0.00    +0.000 C 
BRANCH  19  20
ATOM     20  C   UNL     1       2.938   2.667  17.468  0.00  0.00    +0.000 C 
BRANCH  20  24
ATOM     21  C   UNL     1       1.620   3.306  21.527  0.00  0.00    +0.000 A 
ATOM     22  C   UNL     1       2.846   2.690  21.280  0.00  0.00    +0.000 A 
ATOM     23  C   UNL     1       3.267   2.476  19.967  0.00  0.00    +0.000 A 
ATOM     24  C   UNL     1       2.467   2.881  18.888  0.00  0.00    +0.000 A 
ATOM     25  C   UNL     1       1.233   3.487  19.146  0.00  0.00    +0.000 A 
ATOM     26  C   UNL     1       0.813   3.702  20.461  0.00  0.00    +0.000 A 
ENDBRANCH  20  24
ENDBRANCH  19  20
ENDBRANCH   1  19
TORSDOF 5
ENDMDL
MODEL 4
REMARK VINA RESULT:      -8.2      1.355      2.162
REMARK  Name = 
REMARK  5 active torsions:
REMARK  status: ('A' for Active; 'I' for Inactive)
REMARK    1  A    between atoms: C_4  and  C_5
REMARK    2  A    between atoms: C_5  and  C_6
REMARK    3  A    between atoms: C_6  and  N_7
REMARK    4  A    between atoms: C_11  and  C_12
REMARK    5  A    between atoms: C_16  and  N_17
REMARK                            x       y       z     vdW  Elec       q    Type
REMARK                         _______ _______ _______ _____ _____    ______ ____
ROOT
ATOM      1  N   UNL     1       2.858   6.360  18.492  0.00  0.00    +0.000 NA
ATOM      2  C   UNL     1       1.798   5.339  18.406  0.00  0.00    +0.000 C 
ATOM      3  C   UNL     1       1.807   4.659  19.758  0.00  0.00    +0.000 C 
ATOM      4  C   UNL     1       3.286   4.582  20.088  0.00  0.00    +0.000 C 
ATOM      5  C   UNL     1       3.943   5.729  19.305  0.00  0.00    +0.000 C 
ENDROOT
BRANCH   5   6
ATOM      6  C   UNL     1       5.129   5.248  18.478  0.00  0.00    +0.000 A 
ATOM      7  C   UNL     1       6.418   5.193  19.008  0.00  0.00    +0.000 A 
ATOM      8  N   UNL     1       7.487   4.765  18.310  0.00  0.00    +0.000 NA
ATOM      9  C   UNL     1       7.216   4.390  17.038  0.00  0.00    +0.000 A 
ATOM     10  C   UNL     1       5.941   4.428  16.467  0.00  0.00    +0.000 A 
ATOM     11  N   UNL     1       4.876   4.838  17.198  0.00  0.00    +0.000 NA
BRANCH  10  12
ATOM     12  N   UNL     1       5.694   4.003  15.155  0.00  0.00    +0.000 N 
ATOM     13  C   UNL     1       6.429   4.423  14.098  0.00  0.00    +0.000 A 
ATOM     14  N   UNL     1       7.198   5.493  14.065  0.00  0.00    +0.000 NA
ATOM     15  N   UNL     1       7.893   5.630  12.887  0.00  0.00    +0.000 NA
ATOM     16  C   UNL     1       7.633   4.648  12.060  0.00  0.00    +0.000 A 
ATOM     17  S   UNL     1       6.470   3.524  12.625  0.00  0.00    +0.000 S 
ATOM     18  H   UNL     1       4.708   3.820  15.020  0.00  0.00    +0.000 HD
ENDBRANCH  10  12
ENDBRANCH   5   6
BRANCH   1  19
ATOM     19  C   UNL     1       2.353   7.611  19.095  0.00  0.00    +0.000 C 
BRANCH  19  20
ATOM     20  C   UNL     1       1.816   8.611  18.053  0.00  0.00    +0.000 C 
BRANCH  20  24
ATOM     21  C   UNL     1      -1.211  11.201  19.711  0.00  0.00    +0.000 A 
ATOM     22  C   UNL     1      -1.285  10.805  18.376  0.00  0.00    +0.000 A 
ATOM     23  C   UNL     1      -0.302   9.974  17.839  0.00  0.00    +0.000 A 
ATOM     24  C   UNL     1       0.765   9.527  18.634  0.00  0.00    +0.000 A 
ATOM     25  C   UNL     1       0.837   9.940  19.969  0.00  0.00    +0.000 A 
ATOM     26  C   UNL     1      -0.149  10.770  20.505  0.00  0.00    +0.000 A 
ENDBRANCH  20  24
ENDBRANCH  19  20
ENDBRANCH   1  19
TORSDOF 5
ENDMDL
MODEL 5
REMARK VINA RESULT:      -8.2      3.267      7.638
REMARK  Name = 
REMARK  5 active torsions:
REMARK  status: ('A' for Active; 'I' for Inactive)
REMARK    1  A    between atoms: C_4  and  C_5
REMARK    2  A    between atoms: C_5  and  C_6
REMARK    3  A    between atoms: C_6  and  N_7
REMARK    4  A    between atoms: C_11  and  C_12
REMARK    5  A    between atoms: C_16  and  N_17
REMARK                            x       y       z     vdW  Elec       q    Type
REMARK                         _______ _______ _______ _____ _____    ______ ____
ROOT
ATOM      1  N   UNL     1       5.290   4.742  16.220  0.00  0.00    +0.000 NA
ATOM      2  C   UNL     1       5.666   6.156  16.041  0.00  0.00    +0.000 C 
ATOM      3  C   UNL     1       6.742   6.402  17.076  0.00  0.00    +0.000 C 
ATOM      4  C   UNL     1       6.247   5.613  18.274  0.00  0.00    +0.000 C 
ATOM      5  C   UNL     1       5.354   4.504  17.695  0.00  0.00    +0.000 C 
ENDROOT
BRANCH   5   6
ATOM      6  C   UNL     1       3.989   4.462  18.371  0.00  0.00    +0.000 A 
ATOM      7  C   UNL     1       3.075   3.440  18.113  0.00  0.00    +0.000 A 
ATOM      8  N   UNL     1       1.864   3.367  18.698  0.00  0.00    +0.000 NA
ATOM      9  C   UNL     1       1.594   4.372  19.563  0.00  0.00    +0.000 A 
ATOM     10  C   UNL     1       2.480   5.414  19.852  0.00  0.00    +0.000 A 
ATOM     11  N   UNL     1       3.703   5.452  19.269  0.00  0.00    +0.000 NA
BRANCH  10  12
ATOM     12  N   UNL     1       2.178   6.422  20.776  0.00  0.00    +0.000 N 
ATOM     13  C   UNL     1       1.757   7.654  20.405  0.00  0.00    +0.000 A 
ATOM     14  N   UNL     1       1.900   8.195  19.211  0.00  0.00    +0.000 NA
ATOM     15  N   UNL     1       1.302   9.427  19.095  0.00  0.00    +0.000 NA
ATOM     16  C   UNL     1       0.713   9.782  20.210  0.00  0.00    +0.000 A 
ATOM     17  S   UNL     1       0.903   8.676  21.504  0.00  0.00    +0.000 S 
ATOM     18  H   UNL     1       2.756   6.333  21.601  0.00  0.00    +0.000 HD
ENDBRANCH  10  12
ENDBRANCH   5   6
BRANCH   1  19
ATOM     19  C   UNL     1       6.187   3.846  15.462  0.00  0.00    +0.000 C 
BRANCH  19  20
ATOM     20  C   UNL     1       6.602   4.421  14.094  0.00  0.00    +0.000 C 
BRANCH  20  24
ATOM     21  C   UNL     1       4.856   2.194  10.837  0.00  0.00    +0.000 A 
ATOM     22  C   UNL     1       6.154   1.911  11.259  0.00  0.00    +0.000 A 
ATOM     23  C   UNL     1       6.720   2.638  12.307  0.00  0.00    +0.000 A 
ATOM     24  C   UNL     1       5.991   3.652  12.946  0.00  0.00    +0.000 A 
ATOM     25  C   UNL     1       4.694   3.937  12.506  0.00  0.00    +0.000 A 
ATOM     26  C   UNL     1       4.128   3.208  11.458  0.00  0.00    +0.000 A 
ENDBRANCH  20  24
ENDBRANCH  19  20
ENDBRANCH   1  19
TORSDOF 5
ENDMDL
MODEL 6
REMARK VINA RESULT:      -8.1      2.960      7.192
REMARK  Name = 
REMARK  5 active torsions:
REMARK  status: ('A' for Active; 'I' for Inactive)
REMARK    1  A    between atoms: C_4  and  C_5
REMARK    2  A    between atoms: C_5  and  C_6
REMARK    3  A    between atoms: C_6  and  N_7
REMARK    4  A    between atoms: C_11  and  C_12
REMARK    5  A    between atoms: C_16  and  N_17
REMARK                            x       y       z     vdW  Elec       q    Type
REMARK                         _______ _______ _______ _____ _____    ______ ____
ROOT
ATOM      1  N   UNL     1       5.719   5.077  17.216  0.00  0.00    +0.000 NA
ATOM      2  C   UNL     1       6.383   6.382  17.380  0.00  0.00    +0.000 C 
ATOM      3  C   UNL     1       7.402   6.162  18.478  0.00  0.00    +0.000 C 
ATOM      4  C   UNL     1       6.666   5.252  19.445  0.00  0.00    +0.000 C 
ATOM      5  C   UNL     1       5.618   4.513  18.598  0.00  0.00    +0.000 C 
ENDROOT
BRANCH   5   6
ATOM      6  C   UNL     1       4.224   4.615  19.203  0.00  0.00    +0.000 A 
ATOM      7  C   UNL     1       3.429   3.487  19.409  0.00  0.00    +0.000 A 
ATOM      8  N   UNL     1       2.196   3.538  19.948  0.00  0.00    +0.000 NA
ATOM      9  C   UNL     1       1.777   4.782  20.277  0.00  0.00    +0.000 A 
ATOM     10  C   UNL     1       2.539   5.939  20.089  0.00  0.00    +0.000 A 
ATOM     11  N   UNL     1       3.788   5.858  19.568  0.00  0.00    +0.000 NA
BRANCH  10  12
ATOM     12  N   UNL     1       2.083   7.208  20.470  0.00  0.00    +0.000 N 
ATOM     13  C   UNL     1       1.819   8.189  19.576  0.00  0.00    +0.000 A 
ATOM     14  N   UNL     1       2.257   8.246  18.334  0.00  0.00    +0.000 NA
ATOM     15  N   UNL     1       1.762   9.316  17.628  0.00  0.00    +0.000 NA
ATOM     16  C   UNL     1       0.952  10.040  18.360  0.00  0.00    +0.000 A 
ATOM     17  S   UNL     1       0.788   9.514  19.981  0.00  0.00    +0.000 S 
ATOM     18  H   UNL     1       2.453   7.462  21.376  0.00  0.00    +0.000 HD
ENDBRANCH  10  12
ENDBRANCH   5   6
BRANCH   1  19
ATOM     19  C   UNL     1       6.477   4.198  16.301  0.00  0.00    +0.000 C 
BRANCH  19  20
ATOM     20  C   UNL     1       6.967   4.925  15.034  0.00  0.00    +0.000 C 
BRANCH  20  24
ATOM     21  C   UNL     1       5.554   3.012  11.434  0.00  0.00    +0.000 A 
ATOM     22  C   UNL     1       6.885   3.414  11.534  0.00  0.00    +0.000 A 
ATOM     23  C   UNL     1       7.339   4.040  12.695  0.00  0.00    +0.000 A 
ATOM     24  C   UNL     1       6.466   4.266  13.770  0.00  0.00    +0.000 A 
ATOM     25  C   UNL     1       5.129   3.870  13.655  0.00  0.00    +0.000 A 
ATOM     26  C   UNL     1       4.676   3.243  12.492  0.00  0.00    +0.000 A 
ENDBRANCH  20  24
ENDBRANCH  19  20
ENDBRANCH   1  19
TORSDOF 5
ENDMDL
MODEL 7
REMARK VINA RESULT:      -8.1      3.552      6.823
REMARK  Name = 
REMARK  5 active torsions:
REMARK  status: ('A' for Active; 'I' for Inactive)
REMARK    1  A    between atoms: C_4  and  C_5
REMARK    2  A    between atoms: C_5  and  C_6
REMARK    3  A    between atoms: C_6  and  N_7
REMARK    4  A    between atoms: C_11  and  C_12
REMARK    5  A    between atoms: C_16  and  N_17
REMARK                            x       y       z     vdW  Elec       q    Type
REMARK                         _______ _______ _______ _____ _____    ______ ____
ROOT
ATOM      1  N   UNL     1       4.142   4.266  17.589  0.00  0.00    +0.000 NA
ATOM      2  C   UNL     1       4.154   2.977  18.305  0.00  0.00    +0.000 C 
ATOM      3  C   UNL     1       2.886   2.279  17.862  0.00  0.00    +0.000 C 
ATOM      4  C   UNL     1       1.879   3.413  17.800  0.00  0.00    +0.000 C 
ATOM      5  C   UNL     1       2.707   4.686  17.563  0.00  0.00    +0.000 C 
ENDROOT
BRANCH   5   6
ATOM      6  C   UNL     1       2.368   5.779  18.569  0.00  0.00    +0.000 A 
ATOM      7  C   UNL     1       2.045   5.483  19.893  0.00  0.00    +0.000 A 
ATOM      8  N   UNL     1       1.749   6.423  20.810  0.00  0.00    +0.000 NA
ATOM      9  C   UNL     1       1.785   7.694  20.346  0.00  0.00    +0.000 A 
ATOM     10  C   UNL     1       2.104   8.037  19.029  0.00  0.00    +0.000 A 
ATOM     11  N   UNL     1       2.424   7.074  18.131  0.00  0.00    +0.000 NA
BRANCH  10  12
ATOM     12  N   UNL     1       2.161   9.367  18.592  0.00  0.00    +0.000 N 
ATOM     13  C   UNL     1       1.127  10.229  18.737  0.00  0.00    +0.000 A 
ATOM     14  N   UNL     1      -0.131   9.903  18.956  0.00  0.00    +0.000 NA
ATOM     15  N   UNL     1      -0.953  10.988  19.144  0.00  0.00    +0.000 NA
ATOM     16  C   UNL     1      -0.286  12.113  19.069  0.00  0.00    +0.000 A 
ATOM     17  S   UNL     1       1.376  11.937  18.693  0.00  0.00    +0.000 S 
ATOM     18  H   UNL     1       2.752   9.448  17.776  0.00  0.00    +0.000 HD
ENDBRANCH  10  12
ENDBRANCH   5   6
BRANCH   1  19
ATOM     19  C   UNL     1       4.718   4.135  16.234  0.00  0.00    +0.000 C 
BRANCH  19  20
ATOM     20  C   UNL     1       6.254   4.015  16.240  0.00  0.00    +0.000 C 
BRANCH  20  24
ATOM     21  C   UNL     1       8.080   7.105  18.635  0.00  0.00    +0.000 A 
ATOM     22  C   UNL     1       7.469   7.429  17.424  0.00  0.00    +0.000 A 
ATOM     23  C   UNL     1       6.886   6.428  16.647  0.00  0.00    +0.000 A 
ATOM     24  C   UNL     1       6.905   5.092  17.075  0.00  0.00    +0.000 A 
ATOM     25  C   UNL     1       7.531   4.776  18.286  0.00  0.00    +0.000 A 
ATOM     26  C   UNL     1       8.113   5.779  19.063  0.00  0.00    +0.000 A 
ENDBRANCH  20  24
ENDBRANCH  19  20
ENDBRANCH   1  19
TORSDOF 5
ENDMDL
MODEL 8
REMARK VINA RESULT:      -8.0      4.523      7.128
REMARK  Name = 
REMARK  5 active torsions:
REMARK  status: ('A' for Active; 'I' for Inactive)
REMARK    1  A    between atoms: C_4  and  C_5
REMARK    2  A    between atoms: C_5  and  C_6
REMARK    3  A    between atoms: C_6  and  N_7
REMARK    4  A    between atoms: C_11  and  C_12
REMARK    5  A    between atoms: C_16  and  N_17
REMARK                            x       y       z     vdW  Elec       q    Type
REMARK                         _______ _______ _______ _____ _____    ______ ____
ROOT
ATOM      1  N   UNL     1       6.909   5.817  18.051  0.00  0.00    +0.000 NA
ATOM      2  C   UNL     1       7.471   4.621  17.398  0.00  0.00    +0.000 C 
ATOM      3  C   UNL     1       7.304   4.878  15.916  0.00  0.00    +0.000 C 
ATOM      4  C   UNL     1       5.946   5.550  15.839  0.00  0.00    +0.000 C 
ATOM      5  C   UNL     1       5.733   6.205  17.214  0.00  0.00    +0.000 C 
ENDROOT
BRANCH   5   6
ATOM      6  C   UNL     1       4.390   5.820  17.824  0.00  0.00    +0.000 A 
ATOM      7  C   UNL     1       3.668   4.717  17.370  0.00  0.00    +0.000 A 
ATOM      8  N   UNL     1       2.484   4.343  17.891  0.00  0.00    +0.000 NA
ATOM      9  C   UNL     1       2.038   5.129  18.898  0.00  0.00    +0.000 A 
ATOM     10  C   UNL     1       2.728   6.243  19.385  0.00  0.00    +0.000 A 
ATOM     11  N   UNL     1       3.931   6.584  18.861  0.00  0.00    +0.000 NA
BRANCH  10  12
ATOM     12  N   UNL     1       2.250   7.016  20.450  0.00  0.00    +0.000 N 
ATOM     13  C   UNL     1       1.562   8.168  20.267  0.00  0.00    +0.000 A 
ATOM     14  N   UNL     1       1.544   8.895  19.167  0.00  0.00    +0.000 NA
ATOM     15  N   UNL     1       0.692   9.971  19.237  0.00  0.00    +0.000 NA
ATOM     16  C   UNL     1       0.080  10.024  20.394  0.00  0.00    +0.000 A 
ATOM     17  S   UNL     1       0.548   8.810  21.509  0.00  0.00    +0.000 S 
ATOM     18  H   UNL     1       2.862   6.937  21.251  0.00  0.00    +0.000 HD
ENDBRANCH  10  12
ENDBRANCH   5   6
BRANCH   1  19
ATOM     19  C   UNL     1       7.912   6.898  18.152  0.00  0.00    +0.000 C 
BRANCH  19  20
ATOM     20  C   UNL     1       7.435   8.224  17.531  0.00  0.00    +0.000 C 
BRANCH  20  24
ATOM     21  C   UNL     1       9.593  11.629  19.071  0.00  0.00    +0.000 A 
ATOM     22  C   UNL     1       8.809  11.759  17.926  0.00  0.00    +0.000 A 
ATOM     23  C   UNL     1       8.118  10.656  17.424  0.00  0.00    +0.000 A 
ATOM     24  C   UNL     1       8.202   9.411  18.066  0.00  0.00    +0.000 A 
ATOM     25  C   UNL     1       9.001   9.288  19.208  0.00  0.00    +0.000 A 
ATOM     26  C   UNL     1       9.691  10.393  19.710  0.00  0.00    +0.000 A 
ENDBRANCH  20  24
ENDBRANCH  19  20
ENDBRANCH   1  19
TORSDOF 5
ENDMDL
MODEL 9
REMARK VINA RESULT:      -8.0      0.862      1.372
REMARK  Name = 
REMARK  5 active torsions:
REMARK  status: ('A' for Active; 'I' for Inactive)
REMARK    1  A    between atoms: C_4  and  C_5
REMARK    2  A    between atoms: C_5  and  C_6
REMARK    3  A    between atoms: C_6  and  N_7
REMARK    4  A    between atoms: C_11  and  C_12
REMARK    5  A    between atoms: C_16  and  N_17
REMARK                            x       y       z     vdW  Elec       q    Type
REMARK                         _______ _______ _______ _____ _____    ______ ____
ROOT
ATOM      1  N   UNL     1       2.473   4.865  18.947  0.00  0.00    +0.000 NA
ATOM      2  C   UNL     1       1.723   3.621  18.700  0.00  0.00    +0.000 C 
ATOM      3  C   UNL     1       1.997   2.759  19.914  0.00  0.00    +0.000 C 
ATOM      4  C   UNL     1       3.459   3.039  20.206  0.00  0.00    +0.000 C 
ATOM      5  C   UNL     1       3.735   4.435  19.624  0.00  0.00    +0.000 C 
ENDROOT
BRANCH   5   6
ATOM      6  C   UNL     1       4.954   4.439  18.710  0.00  0.00    +0.000 A 
ATOM      7  C   UNL     1       6.243   4.633  19.208  0.00  0.00    +0.000 A 
ATOM      8  N   UNL     1       7.343   4.635  18.431  0.00  0.00    +0.000 NA
ATOM      9  C   UNL     1       7.104   4.434  17.114  0.00  0.00    +0.000 A 
ATOM     10  C   UNL     1       5.831   4.234  16.573  0.00  0.00    +0.000 A 
ATOM     11  N   UNL     1       4.741   4.211  17.378  0.00  0.00    +0.000 NA
BRANCH  10  12
ATOM     12  N   UNL     1       5.625   3.999  15.207  0.00  0.00    +0.000 N 
ATOM     13  C   UNL     1       6.451   4.480  14.249  0.00  0.00    +0.000 A 
ATOM     14  N   UNL     1       7.307   5.473  14.389  0.00  0.00    +0.000 NA
ATOM     15  N   UNL     1       8.077   5.693  13.272  0.00  0.00    +0.000 NA
ATOM     16  C   UNL     1       7.785   4.848  12.315  0.00  0.00    +0.000 A 
ATOM     17  S   UNL     1       6.503   3.771  12.675  0.00  0.00    +0.000 S 
ATOM     18  H   UNL     1       4.637   3.923  15.004  0.00  0.00    +0.000 HD
ENDBRANCH  10  12
ENDBRANCH   5   6
BRANCH   1  19
ATOM     19  C   UNL     1       1.688   5.814  19.765  0.00  0.00    +0.000 C 
BRANCH  19  20
ATOM     20  C   UNL     1       2.392   7.172  19.956  0.00  0.00    +0.000 C 
BRANCH  20  24
ATOM     21  C   UNL     1      -0.431  10.332  20.768  0.00  0.00    +0.000 A 
ATOM     22  C   UNL     1       0.253  10.302  19.554  0.00  0.00    +0.000 A 
ATOM     23  C   UNL     1       1.171   9.284  19.296  0.00  0.00    +0.000 A 
ATOM     24  C   UNL     1       1.412   8.283  20.249  0.00  0.00    +0.000 A 
ATOM     25  C   UNL     1       0.729   8.329  21.470  0.00  0.00    +0.000 A 
ATOM     26  C   UNL     1      -0.191   9.348  21.726  0.00  0.00    +0.000 A 
ENDBRANCH  20  24
ENDBRANCH  19  20
ENDBRANCH   1  19
TORSDOF 5
ENDMDL
