MODEL 1
REMARK VINA RESULT:      -8.6      0.000      0.000
REMARK  Name = 
REMARK  5 active torsions:
REMARK  status: ('A' for Active; 'I' for Inactive)
REMARK    1  A    between atoms: C_1  and  C_2
REMARK    2  A    between atoms: C_2  and  C_3
REMARK    3  A    between atoms: C_8  and  C_10
REMARK    4  A    between atoms: C_10  and  N_11
REMARK    5  A    between atoms: N_16  and  C_17
REMARK                            x       y       z     vdW  Elec       q    Type
REMARK                         _______ _______ _______ _____ _____    ______ ____
ROOT
ATOM      1  N   UNL     1       6.585   5.553  17.809  0.00  0.00    +0.000 N 
ATOM      2  C   UNL     1       6.402   5.145  16.513  0.00  0.00    +0.000 A 
ATOM      3  C   UNL     1       5.323   4.478  16.152  0.00  0.00    +0.000 A 
ATOM      4  C   UNL     1       4.201   4.302  17.061  0.00  0.00    +0.000 A 
ATOM      5  O   UNL     1       3.169   3.846  16.588  0.00  0.00    +0.000 OA
ATOM      6  N   UNL     1       4.431   4.690  18.378  0.00  0.00    +0.000 N 
ATOM      7  C   UNL     1       5.707   5.114  18.800  0.00  0.00    +0.000 A 
ATOM      8  O   UNL     1       6.116   5.109  19.967  0.00  0.00    +0.000 OA
ATOM      9  C   UNL     1       5.352   4.004  14.743  0.00  0.00    +0.000 C 
ATOM     10  C   UNL     1       6.849   4.148  14.450  0.00  0.00    +0.000 C 
ATOM     11  C   UNL     1       7.354   5.259  15.385  0.00  0.00    +0.000 C 
ENDROOT
BRANCH   6  12
ATOM     12  C   UNL     1       3.258   4.970  19.254  0.00  0.00    +0.000 C 
ATOM     13  C   UNL     1       1.841   4.966  18.644  0.00  0.00    +0.000 C 
ATOM     14  C   UNL     1       1.293   3.580  18.313  0.00  0.00    +0.000 C 
ATOM     15  C   UNL     1       1.552   2.524  19.388  0.00  0.00    +0.000 C 
ATOM     16  C   UNL     1       2.840   2.667  20.198  0.00  0.00    +0.000 C 
ATOM     17  C   UNL     1       3.188   4.114  20.527  0.00  0.00    +0.000 C 
ENDBRANCH   6  12
BRANCH   1  18
ATOM     18  C   UNL     1       7.794   6.240  18.260  0.00  0.00    +0.000 C 
BRANCH  18  24
ATOM     19  C   UNL     1       9.456  12.103  18.114  0.00  0.00    +0.000 A 
ATOM     20  N   UNL     1       8.241  11.950  17.624  0.00  0.00    +0.000 NA
ATOM     21  N   UNL     1       7.797  10.650  17.747  0.00  0.00    +0.000 NA
ATOM     22  C   UNL     1       8.670   9.883  18.342  0.00  0.00    +0.000 A 
ATOM     23  N   UNL     1       8.633   8.532  18.571  0.00  0.00    +0.000 N 
ATOM     24  C   UNL     1       7.766   7.724  17.855  0.00  0.00    +0.000 C 
ATOM     25  O   UNL     1       7.015   8.100  16.966  0.00  0.00    +0.000 OA
ATOM     26  S   UNL     1      10.087  10.683  18.864  0.00  0.00    +0.000 S 
ATOM     27  H   UNL     1       9.276   8.138  19.244  0.00  0.00    +0.000 HD
BRANCH  19  29
ATOM     28  C   UNL     1      11.278  13.311  16.915  0.00  0.00    +0.000 C 
ATOM     29  C   UNL     1      10.242  13.370  18.030  0.00  0.00    +0.000 C 
ENDBRANCH  19  29
ENDBRANCH  18  24
ENDBRANCH   1  18
TORSDOF 4
ENDMDL
MODEL 2
REMARK VINA RESULT:      -8.4      4.579      5.884
REMARK  Name = 
REMARK  5 active torsions:
REMARK  status: ('A' for Active; 'I' for Inactive)
REMARK    1  A    between atoms: C_1  and  C_2
REMARK    2  A    between atoms: C_2  and  C_3
REMARK    3  A    between atoms: C_8  and  C_10
REMARK    4  A    between atoms: C_10  and  N_11
REMARK    5  A    between atoms: N_16  and  C_17
REMARK                            x       y       z     vdW  Elec       q    Type
REMARK                         _______ _______ _______ _____ _____    ______ ____
ROOT
ATOM      1  N   UNL     1       3.029   6.513  18.097  0.00  0.00    +0.000 N 
ATOM      2  C   UNL     1       4.285   6.367  17.568  0.00  0.00    +0.000 A 
ATOM      3  C   UNL     1       5.195   5.620  18.163  0.00  0.00    +0.000 A 
ATOM      4  C   UNL     1       4.859   4.779  19.301  0.00  0.00    +0.000 A 
ATOM      5  O   UNL     1       5.706   3.977  19.668  0.00  0.00    +0.000 OA
ATOM      6  N   UNL     1       3.591   4.979  19.839  0.00  0.00    +0.000 N 
ATOM      7  C   UNL     1       2.754   6.009  19.369  0.00  0.00    +0.000 A 
ATOM      8  O   UNL     1       1.815   6.515  19.995  0.00  0.00    +0.000 OA
ATOM      9  C   UNL     1       6.535   5.680  17.521  0.00  0.00    +0.000 C 
ATOM     10  C   UNL     1       6.362   6.945  16.673  0.00  0.00    +0.000 C 
ATOM     11  C   UNL     1       4.856   7.055  16.388  0.00  0.00    +0.000 C 
ENDROOT
BRANCH   6  12
ATOM     12  C   UNL     1       2.996   3.901  20.681  0.00  0.00    +0.000 C 
ATOM     13  C   UNL     1       1.466   3.850  20.872  0.00  0.00    +0.000 C 
ATOM     14  C   UNL     1       0.687   3.361  19.654  0.00  0.00    +0.000 C 
ATOM     15  C   UNL     1       1.307   2.151  18.951  0.00  0.00    +0.000 C 
ATOM     16  C   UNL     1       2.831   2.041  18.983  0.00  0.00    +0.000 C 
ATOM     17  C   UNL     1       3.439   2.479  20.311  0.00  0.00    +0.000 C 
ENDBRANCH   6  12
BRANCH   1  18
ATOM     18  C   UNL     1       2.014   7.380  17.500  0.00  0.00    +0.000 C 
BRANCH  18  24
ATOM     19  C   UNL     1       0.237  12.102  20.923  0.00  0.00    +0.000 A 
ATOM     20  N   UNL     1       1.127  12.483  20.028  0.00  0.00    +0.000 NA
ATOM     21  N   UNL     1       1.464  11.457  19.168  0.00  0.00    +0.000 NA
ATOM     22  C   UNL     1       0.805  10.361  19.424  0.00  0.00    +0.000 A 
ATOM     23  N   UNL     1       0.919   9.119  18.854  0.00  0.00    +0.000 N 
ATOM     24  C   UNL     1       2.051   8.784  18.130  0.00  0.00    +0.000 C 
ATOM     25  O   UNL     1       3.028   9.500  17.966  0.00  0.00    +0.000 OA
ATOM     26  S   UNL     1      -0.332  10.488  20.694  0.00  0.00    +0.000 S 
ATOM     27  H   UNL     1       0.180   8.447  19.006  0.00  0.00    +0.000 HD
BRANCH  19  29
ATOM     28  C   UNL     1      -1.273  12.230  22.902  0.00  0.00    +0.000 C 
ATOM     29  C   UNL     1      -0.243  12.958  22.049  0.00  0.00    +0.000 C 
ENDBRANCH  19  29
ENDBRANCH  18  24
ENDBRANCH   1  18
TORSDOF 4
ENDMDL
MODEL 3
REMARK VINA RESULT:      -8.0      4.649      6.093
REMARK  Name = 
REMARK  5 active torsions:
REMARK  status: ('A' for Active; 'I' for Inactive)
REMARK    1  A    between atoms: C_1  and  C_2
REMARK    2  A    between atoms: C_2  and  C_3
REMARK    3  A    between atoms: C_8  and  C_10
REMARK    4  A    between atoms: C_10  and  N_11
REMARK    5  A    between atoms: N_16  and  C_17
REMARK                            x       y       z     vdW  Elec       q    Type
REMARK                         _______ _______ _______ _____ _____    ______ ____
ROOT
ATOM      1  N   UNL     1       3.521   6.808  17.793  0.00  0.00    +0.000 N 
ATOM      2  C   UNL     1       4.252   6.115  16.862  0.00  0.00    +0.000 A 
ATOM      3  C   UNL     1       4.222   4.797  16.812  0.00  0.00    +0.000 A 
ATOM      4  C   UNL     1       3.283   4.029  17.615  0.00  0.00    +0.000 A 
ATOM      5  O   UNL     1       3.187   2.836  17.367  0.00  0.00    +0.000 OA
ATOM      6  N   UNL     1       2.585   4.755  18.577  0.00  0.00    +0.000 N 
ATOM      7  C   UNL     1       2.870   6.114  18.813  0.00  0.00    +0.000 A 
ATOM      8  O   UNL     1       2.611   6.733  19.852  0.00  0.00    +0.000 OA
ATOM      9  C   UNL     1       5.171   4.211  15.830  0.00  0.00    +0.000 C 
ATOM     10  C   UNL     1       6.087   5.418  15.599  0.00  0.00    +0.000 C 
ATOM     11  C   UNL     1       5.227   6.658  15.890  0.00  0.00    +0.000 C 
ENDROOT
BRANCH   6  12
ATOM     12  C   UNL     1       1.321   4.183  19.123  0.00  0.00    +0.000 C 
ATOM     13  C   UNL     1       1.052   2.671  18.981  0.00  0.00    +0.000 C 
ATOM     14  C   UNL     1       1.880   1.786  19.908  0.00  0.00    +0.000 C 
ATOM     15  C   UNL     1       1.993   2.305  21.343  0.00  0.00    +0.000 C 
ATOM     16  C   UNL     1       1.990   3.822  21.529  0.00  0.00    +0.000 C 
ATOM     17  C   UNL     1       1.033   4.543  20.587  0.00  0.00    +0.000 C 
ENDBRANCH   6  12
BRANCH   1  18
ATOM     18  C   UNL     1       3.575   8.263  17.919  0.00  0.00    +0.000 C 
BRANCH  18  24
ATOM     19  C   UNL     1      -1.053  11.771  19.772  0.00  0.00    +0.000 A 
ATOM     20  N   UNL     1      -1.489  10.789  19.008  0.00  0.00    +0.000 NA
ATOM     21  N   UNL     1      -0.477   9.916  18.666  0.00  0.00    +0.000 NA
ATOM     22  C   UNL     1       0.666  10.251  19.198  0.00  0.00    +0.000 A 
ATOM     23  N   UNL     1       1.906   9.690  19.029  0.00  0.00    +0.000 N 
ATOM     24  C   UNL     1       2.159   8.865  17.946  0.00  0.00    +0.000 C 
ATOM     25  O   UNL     1       1.365   8.596  17.056  0.00  0.00    +0.000 OA
ATOM     26  S   UNL     1       0.608  11.623  20.215  0.00  0.00    +0.000 S 
ATOM     27  H   UNL     1       2.636   9.923  19.688  0.00  0.00    +0.000 HD
BRANCH  19  29
ATOM     28  C   UNL     1      -3.376  12.605  20.122  0.00  0.00    +0.000 C 
ATOM     29  C   UNL     1      -1.891  12.926  20.216  0.00  0.00    +0.000 C 
ENDBRANCH  19  29
ENDBRANCH  18  24
ENDBRANCH   1  18
TORSDOF 4
ENDMDL
MODEL 4
REMARK VINA RESULT:      -7.9      3.456     10.423
REMARK  Name = 
REMARK  5 active torsions:
REMARK  status: ('A' for Active; 'I' for Inactive)
REMARK    1  A    between atoms: C_1  and  C_2
REMARK    2  A    between atoms: C_2  and  C_3
REMARK    3  A    between atoms: C_8  and  C_10
REMARK    4  A    between atoms: C_10  and  N_11
REMARK    5  A    between atoms: N_16  and  C_17
REMARK                            x       y       z     vdW  Elec       q    Type
REMARK                         _______ _______ _______ _____ _____    ______ ____
ROOT
ATOM      1  N   UNL     1       9.690  12.069  19.911  0.00  0.00    +0.000 N 
ATOM      2  C   UNL     1       8.974  12.550  20.977  0.00  0.00    +0.000 A 
ATOM      3  C   UNL     1       8.733  13.839  21.112  0.00  0.00    +0.000 A 
ATOM      4  C   UNL     1       9.055  14.786  20.056  0.00  0.00    +0.000 A 
ATOM      5  O   UNL     1       8.624  15.924  20.180  0.00  0.00    +0.000 OA
ATOM      6  N   UNL     1       9.815  14.277  19.008  0.00  0.00    +0.000 N 
ATOM      7  C   UNL     1      10.322  12.963  19.046  0.00  0.00    +0.000 A 
ATOM      8  O   UNL     1      11.288  12.545  18.396  0.00  0.00    +0.000 OA
ATOM      9  C   UNL     1       8.058  14.193  22.389  0.00  0.00    +0.000 C 
ATOM     10  C   UNL     1       8.322  12.913  23.188  0.00  0.00    +0.000 C 
ATOM     11  C   UNL     1       8.476  11.793  22.147  0.00  0.00    +0.000 C 
ENDROOT
BRANCH   6  12
ATOM     12  C   UNL     1       9.815  15.006  17.707  0.00  0.00    +0.000 C 
ATOM     13  C   UNL     1       9.479  16.511  17.685  0.00  0.00    +0.000 C 
ATOM     14  C   UNL     1      10.583  17.419  18.221  0.00  0.00    +0.000 C 
ATOM     15  C   UNL     1      11.991  17.049  17.749  0.00  0.00    +0.000 C 
ATOM     16  C   UNL     1      12.268  15.567  17.503  0.00  0.00    +0.000 C 
ATOM     17  C   UNL     1      11.092  14.830  16.872  0.00  0.00    +0.000 C 
ENDBRANCH   6  12
BRANCH   1  18
ATOM     18  C   UNL     1      10.030  10.655  19.758  0.00  0.00    +0.000 C 
BRANCH  18  24
ATOM     19  C   UNL     1       6.653   6.103  17.513  0.00  0.00    +0.000 A 
ATOM     20  N   UNL     1       6.712   7.105  16.659  0.00  0.00    +0.000 NA
ATOM     21  N   UNL     1       7.560   8.103  17.094  0.00  0.00    +0.000 NA
ATOM     22  C   UNL     1       8.125   7.810  18.233  0.00  0.00    +0.000 A 
ATOM     23  N   UNL     1       8.952   8.570  19.018  0.00  0.00    +0.000 N 
ATOM     24  C   UNL     1       9.016   9.942  18.846  0.00  0.00    +0.000 C 
ATOM     25  O   UNL     1       8.350  10.590  18.050  0.00  0.00    +0.000 OA
ATOM     26  S   UNL     1       7.727   6.268  18.854  0.00  0.00    +0.000 S 
ATOM     27  H   UNL     1       9.483   8.112  19.746  0.00  0.00    +0.000 HD
BRANCH  19  29
ATOM     28  C   UNL     1       5.184   4.826  15.956  0.00  0.00    +0.000 C 
ATOM     29  C   UNL     1       5.743   4.927  17.368  0.00  0.00    +0.000 C 
ENDBRANCH  19  29
ENDBRANCH  18  24
ENDBRANCH   1  18
TORSDOF 4
ENDMDL
MODEL 5
REMARK VINA RESULT:      -7.8      4.319      7.032
REMARK  Name = 
REMARK  5 active torsions:
REMARK  status: ('A' for Active; 'I' for Inactive)
REMARK    1  A    between atoms: C_1  and  C_2
REMARK    2  A    between atoms: C_2  and  C_3
REMARK    3  A    between atoms: C_8  and  C_10
REMARK    4  A    between atoms: C_10  and  N_11
REMARK    5  A    between atoms: N_16  and  C_17
REMARK                            x       y       z     vdW  Elec       q    Type
REMARK                         _______ _______ _______ _____ _____    ______ ____
ROOT
ATOM      1  N   UNL     1       2.906   5.693  19.433  0.00  0.00    +0.000 N 
ATOM      2  C   UNL     1       2.249   4.500  19.599  0.00  0.00    +0.000 A 
ATOM      3  C   UNL     1       2.181   3.616  18.623  0.00  0.00    +0.000 A 
ATOM      4  C   UNL     1       2.944   3.781  17.395  0.00  0.00    +0.000 A 
ATOM      5  O   UNL     1       2.977   2.828  16.630  0.00  0.00    +0.000 OA
ATOM      6  N   UNL     1       3.566   5.016  17.240  0.00  0.00    +0.000 N 
ATOM      7  C   UNL     1       3.362   6.057  18.166  0.00  0.00    +0.000 A 
ATOM      8  O   UNL     1       3.533   7.262  17.944  0.00  0.00    +0.000 OA
ATOM      9  C   UNL     1       1.324   2.442  18.934  0.00  0.00    +0.000 C 
ATOM     10  C   UNL     1       0.544   2.998  20.131  0.00  0.00    +0.000 C 
ATOM     11  C   UNL     1       1.455   4.059  20.768  0.00  0.00    +0.000 C 
ENDROOT
BRANCH   6  12
ATOM     12  C   UNL     1       4.700   5.127  16.277  0.00  0.00    +0.000 C 
ATOM     13  C   UNL     1       5.350   6.504  16.031  0.00  0.00    +0.000 C 
ATOM     14  C   UNL     1       6.236   7.005  17.169  0.00  0.00    +0.000 C 
ATOM     15  C   UNL     1       7.154   5.939  17.770  0.00  0.00    +0.000 C 
ATOM     16  C   UNL     1       6.630   4.503  17.779  0.00  0.00    +0.000 C 
ATOM     17  C   UNL     1       5.849   4.139  16.522  0.00  0.00    +0.000 C 
ENDBRANCH   6  12
BRANCH   1  18
ATOM     18  C   UNL     1       2.951   6.723  20.470  0.00  0.00    +0.000 C 
BRANCH  18  24
ATOM     19  C   UNL     1      -0.927  11.053  18.634  0.00  0.00    +0.000 A 
ATOM     20  N   UNL     1      -1.240  10.629  19.842  0.00  0.00    +0.000 NA
ATOM     21  N   UNL     1      -0.314   9.728  20.326  0.00  0.00    +0.000 NA
ATOM     22  C   UNL     1       0.667   9.528  19.489  0.00  0.00    +0.000 A 
ATOM     23  N   UNL     1       1.720   8.654  19.570  0.00  0.00    +0.000 N 
ATOM     24  C   UNL     1       1.675   7.583  20.446  0.00  0.00    +0.000 C 
ATOM     25  O   UNL     1       0.731   7.294  21.167  0.00  0.00    +0.000 OA
ATOM     26  S   UNL     1       0.589  10.461  18.059  0.00  0.00    +0.000 S 
ATOM     27  H   UNL     1       2.509   8.789  18.952  0.00  0.00    +0.000 HD
BRANCH  19  29
ATOM     28  C   UNL     1      -2.657  11.157  16.841  0.00  0.00    +0.000 C 
ATOM     29  C   UNL     1      -1.790  11.951  17.809  0.00  0.00    +0.000 C 
ENDBRANCH  19  29
ENDBRANCH  18  24
ENDBRANCH   1  18
TORSDOF 4
ENDMDL
MODEL 6
REMARK VINA RESULT:      -7.5      4.992      7.506
REMARK  Name = 
REMARK  5 active torsions:
REMARK  status: ('A' for Active; 'I' for Inactive)
REMARK    1  A    between atoms: C_1  and  C_2
REMARK    2  A    between atoms: C_2  and  C_3
REMARK    3  A    between atoms: C_8  and  C_10
REMARK    4  A    between atoms: C_10  and  N_11
REMARK    5  A    between atoms: N_16  and  C_17
REMARK                            x       y       z     vdW  Elec       q    Type
REMARK                         _______ _______ _______ _____ _____    ______ ____
ROOT
ATOM      1  N   UNL     1       2.584   6.552  18.832  0.00  0.00    +0.000 N 
ATOM      2  C   UNL     1       2.341   5.468  19.636  0.00  0.00    +0.000 A 
ATOM      3  C   UNL     1       3.257   4.539  19.826  0.00  0.00    +0.000 A 
ATOM      4  C   UNL     1       4.620   4.707  19.344  0.00  0.00    +0.000 A 
ATOM      5  O   UNL     1       5.449   3.896  19.729  0.00  0.00    +0.000 OA
ATOM      6  N   UNL     1       4.825   5.795  18.500  0.00  0.00    +0.000 N 
ATOM      7  C   UNL     1       3.749   6.594  18.067  0.00  0.00    +0.000 A 
ATOM      8  O   UNL     1       3.746   7.310  17.058  0.00  0.00    +0.000 OA
ATOM      9  C   UNL     1       2.778   3.376  20.618  0.00  0.00    +0.000 C 
ATOM     10  C   UNL     1       1.265   3.588  20.506  0.00  0.00    +0.000 C 
ATOM     11  C   UNL     1       1.069   5.098  20.296  0.00  0.00    +0.000 C 
ENDROOT
BRANCH   6  12
ATOM     12  C   UNL     1       6.214   6.307  18.322  0.00  0.00    +0.000 C 
ATOM     13  C   UNL     1       7.406   5.364  18.585  0.00  0.00    +0.000 C 
ATOM     14  C   UNL     1       7.633   4.307  17.507  0.00  0.00    +0.000 C 
ATOM     15  C   UNL     1       7.505   4.828  16.074  0.00  0.00    +0.000 C 
ATOM     16  C   UNL     1       6.509   5.962  15.840  0.00  0.00    +0.000 C 
ATOM     17  C   UNL     1       6.481   6.984  16.970  0.00  0.00    +0.000 C 
ENDBRANCH   6  12
BRANCH   1  18
ATOM     18  C   UNL     1       1.574   7.570  18.548  0.00  0.00    +0.000 C 
BRANCH  18  24
ATOM     19  C   UNL     1      -0.867  12.018  21.928  0.00  0.00    +0.000 A 
ATOM     20  N   UNL     1       0.266  11.600  22.455  0.00  0.00    +0.000 NA
ATOM     21  N   UNL     1       0.896  10.671  21.653  0.00  0.00    +0.000 NA
ATOM     22  C   UNL     1       0.237  10.444  20.549  0.00  0.00    +0.000 A 
ATOM     23  N   UNL     1       0.491   9.539  19.551  0.00  0.00    +0.000 N 
ATOM     24  C   UNL     1       1.338   8.467  19.776  0.00  0.00    +0.000 C 
ATOM     25  O   UNL     1       1.885   8.205  20.838  0.00  0.00    +0.000 OA
ATOM     26  S   UNL     1      -1.178  11.383  20.354  0.00  0.00    +0.000 S 
ATOM     27  H   UNL     1       0.019   9.652  18.664  0.00  0.00    +0.000 HD
BRANCH  19  29
ATOM     28  C   UNL     1      -2.973  12.182  23.252  0.00  0.00    +0.000 C 
ATOM     29  C   UNL     1      -1.821  12.943  22.610  0.00  0.00    +0.000 C 
ENDBRANCH  19  29
ENDBRANCH  18  24
ENDBRANCH   1  18
TORSDOF 4
ENDMDL
MODEL 7
REMARK VINA RESULT:      -7.5      4.351      6.554
REMARK  Name = 
REMARK  5 active torsions:
REMARK  status: ('A' for Active; 'I' for Inactive)
REMARK    1  A    between atoms: C_1  and  C_2
REMARK    2  A    between atoms: C_2  and  C_3
REMARK    3  A    between atoms: C_8  and  C_10
REMARK    4  A    between atoms: C_10  and  N_11
REMARK    5  A    between atoms: N_16  and  C_17
REMARK                            x       y       z     vdW  Elec       q    Type
REMARK                         _______ _______ _______ _____ _____    ______ ____
ROOT
ATOM      1  N   UNL     1       3.606   5.880  18.617  0.00  0.00    +0.000 N 
ATOM      2  C   UNL     1       2.959   4.677  18.497  0.00  0.00    +0.000 A 
ATOM      3  C   UNL     1       3.336   3.783  17.604  0.00  0.00    +0.000 A 
ATOM      4  C   UNL     1       4.557   3.952  16.831  0.00  0.00    +0.000 A 
ATOM      5  O   UNL     1       4.934   2.994  16.173  0.00  0.00    +0.000 OA
ATOM      6  N   UNL     1       5.169   5.198  16.944  0.00  0.00    +0.000 N 
ATOM      7  C   UNL     1       4.566   6.242  17.672  0.00  0.00    +0.000 A 
ATOM      8  O   UNL     1       4.801   7.448  17.527  0.00  0.00    +0.000 OA
ATOM      9  C   UNL     1       2.444   2.597  17.527  0.00  0.00    +0.000 C 
ATOM     10  C   UNL     1       1.212   3.148  18.253  0.00  0.00    +0.000 C 
ATOM     11  C   UNL     1       1.738   4.232  19.207  0.00  0.00    +0.000 C 
ENDROOT
BRANCH   6  12
ATOM     12  C   UNL     1       6.608   5.321  16.574  0.00  0.00    +0.000 C 
ATOM     13  C   UNL     1       7.218   6.723  16.370  0.00  0.00    +0.000 C 
ATOM     14  C   UNL     1       7.458   7.508  17.657  0.00  0.00    +0.000 C 
ATOM     15  C   UNL     1       8.061   6.684  18.796  0.00  0.00    +0.000 C 
ATOM     16  C   UNL     1       7.675   5.206  18.858  0.00  0.00    +0.000 C 
ATOM     17  C   UNL     1       7.574   4.552  17.485  0.00  0.00    +0.000 C 
ENDBRANCH   6  12
BRANCH   1  18
ATOM     18  C   UNL     1       3.180   6.920  19.552  0.00  0.00    +0.000 C 
BRANCH  18  24
ATOM     19  C   UNL     1      -0.571  11.691  18.976  0.00  0.00    +0.000 A 
ATOM     20  N   UNL     1      -0.856  10.763  18.084  0.00  0.00    +0.000 NA
ATOM     21  N   UNL     1      -0.096   9.626  18.263  0.00  0.00    +0.000 NA
ATOM     22  C   UNL     1       0.707   9.724  19.288  0.00  0.00    +0.000 A 
ATOM     23  N   UNL     1       1.666   8.851  19.733  0.00  0.00    +0.000 N 
ATOM     24  C   UNL     1       2.151   7.859  18.898  0.00  0.00    +0.000 C 
ATOM     25  O   UNL     1       1.827   7.691  17.731  0.00  0.00    +0.000 OA
ATOM     26  S   UNL     1       0.570  11.183  20.167  0.00  0.00    +0.000 S 
ATOM     27  H   UNL     1       2.034   8.973  20.666  0.00  0.00    +0.000 HD
BRANCH  19  29
ATOM     28  C   UNL     1      -0.094  14.120  18.685  0.00  0.00    +0.000 C 
ATOM     29  C   UNL     1      -1.154  13.066  18.975  0.00  0.00    +0.000 C 
ENDBRANCH  19  29
ENDBRANCH  18  24
ENDBRANCH   1  18
TORSDOF 4
ENDMDL
MODEL 8
REMARK VINA RESULT:      -7.4      4.034      6.324
REMARK  Name = 
REMARK  5 active torsions:
REMARK  status: ('A' for Active; 'I' for Inactive)
REMARK    1  A    between atoms: C_1  and  C_2
REMARK    2  A    between atoms: C_2  and  C_3
REMARK    3  A    between atoms: C_8  and  C_10
REMARK    4  A    between atoms: C_10  and  N_11
REMARK    5  A    between atoms: N_16  and  C_17
REMARK                            x       y       z     vdW  Elec       q    Type
REMARK                         _______ _______ _______ _____ _____    ______ ____
ROOT
ATOM      1  N   UNL     1       2.689   4.905  18.303  0.00  0.00    +0.000 N 
ATOM      2  C   UNL     1       2.425   4.343  19.526  0.00  0.00    +0.000 A 
ATOM      3  C   UNL     1       3.251   3.473  20.071  0.00  0.00    +0.000 A 
ATOM      4  C   UNL     1       4.559   3.203  19.493  0.00  0.00    +0.000 A 
ATOM      5  O   UNL     1       5.335   2.536  20.162  0.00  0.00    +0.000 OA
ATOM      6  N   UNL     1       4.782   3.755  18.235  0.00  0.00    +0.000 N 
ATOM      7  C   UNL     1       3.756   4.427  17.542  0.00  0.00    +0.000 A 
ATOM      8  O   UNL     1       3.714   4.608  16.319  0.00  0.00    +0.000 OA
ATOM      9  C   UNL     1       2.744   2.871  21.332  0.00  0.00    +0.000 C 
ATOM     10  C   UNL     1       1.260   3.234  21.217  0.00  0.00    +0.000 C 
ATOM     11  C   UNL     1       1.205   4.502  20.349  0.00  0.00    +0.000 C 
ENDROOT
BRANCH   6  12
ATOM     12  C   UNL     1       6.188   3.920  17.768  0.00  0.00    +0.000 C 
ATOM     13  C   UNL     1       6.455   4.376  16.319  0.00  0.00    +0.000 C 
ATOM     14  C   UNL     1       6.168   5.851  16.051  0.00  0.00    +0.000 C 
ATOM     15  C   UNL     1       6.663   6.800  17.144  0.00  0.00    +0.000 C 
ATOM     16  C   UNL     1       6.661   6.264  18.575  0.00  0.00    +0.000 C 
ATOM     17  C   UNL     1       7.066   4.798  18.671  0.00  0.00    +0.000 C 
ENDBRANCH   6  12
BRANCH   1  18
ATOM     18  C   UNL     1       1.769   5.827  17.639  0.00  0.00    +0.000 C 
BRANCH  18  24
ATOM     19  C   UNL     1       1.294  11.812  18.695  0.00  0.00    +0.000 A 
ATOM     20  N   UNL     1       2.457  11.526  18.145  0.00  0.00    +0.000 NA
ATOM     21  N   UNL     1       2.548  10.195  17.794  0.00  0.00    +0.000 NA
ATOM     22  C   UNL     1       1.453   9.538  18.063  0.00  0.00    +0.000 A 
ATOM     23  N   UNL     1       1.186   8.198  17.940  0.00  0.00    +0.000 N 
ATOM     24  C   UNL     1       2.221   7.286  17.828  0.00  0.00    +0.000 C 
ATOM     25  O   UNL     1       3.413   7.555  17.866  0.00  0.00    +0.000 OA
ATOM     26  S   UNL     1       0.188  10.487  18.710  0.00  0.00    +0.000 S 
ATOM     27  H   UNL     1       0.223   7.892  17.971  0.00  0.00    +0.000 HD
BRANCH  19  29
ATOM     28  C   UNL     1      -0.268  13.751  18.570  0.00  0.00    +0.000 C 
ATOM     29  C   UNL     1       0.940  13.144  19.271  0.00  0.00    +0.000 C 
ENDBRANCH  19  29
ENDBRANCH  18  24
ENDBRANCH   1  18
TORSDOF 4
ENDMDL
MODEL 9
REMARK VINA RESULT:      -7.3      6.957      9.892
REMARK  Name = 
REMARK  5 active torsions:
REMARK  status: ('A' for Active; 'I' for Inactive)
REMARK    1  A    between atoms: C_1  and  C_2
REMARK    2  A    between atoms: C_2  and  C_3
REMARK    3  A    between atoms: C_8  and  C_10
REMARK    4  A    between atoms: C_10  and  N_11
REMARK    5  A    between atoms: N_16  and  C_17
REMARK                            x       y       z     vdW  Elec       q    Type
REMARK                         _______ _______ _______ _____ _____    ______ ____
ROOT
ATOM      1  N   UNL     1       0.268  10.624  19.491  0.00  0.00    +0.000 N 
ATOM      2  C   UNL     1      -0.056  11.672  20.313  0.00  0.00    +0.000 A 
ATOM      3  C   UNL     1      -1.213  12.295  20.202  0.00  0.00    +0.000 A 
ATOM      4  C   UNL     1      -2.266  11.791  19.333  0.00  0.00    +0.000 A 
ATOM      5  O   UNL     1      -3.368  12.311  19.436  0.00  0.00    +0.000 OA
ATOM      6  N   UNL     1      -1.894  10.752  18.484  0.00  0.00    +0.000 N 
ATOM      7  C   UNL     1      -0.557  10.316  18.409  0.00  0.00    +0.000 A 
ATOM      8  O   UNL     1      -0.053   9.703  17.460  0.00  0.00    +0.000 OA
ATOM      9  C   UNL     1      -1.342  13.485  21.083  0.00  0.00    +0.000 C 
ATOM     10  C   UNL     1       0.132  13.709  21.437  0.00  0.00    +0.000 C 
ATOM     11  C   UNL     1       0.805  12.332  21.321  0.00  0.00    +0.000 C 
ENDROOT
BRANCH   6  12
ATOM     12  C   UNL     1      -2.962   9.890  17.903  0.00  0.00    +0.000 C 
ATOM     13  C   UNL     1      -4.410  10.420  17.839  0.00  0.00    +0.000 C 
ATOM     14  C   UNL     1      -4.654  11.482  16.771  0.00  0.00    +0.000 C 
ATOM     15  C   UNL     1      -3.999  11.183  15.421  0.00  0.00    +0.000 C 
ATOM     16  C   UNL     1      -2.680  10.412  15.450  0.00  0.00    +0.000 C 
ATOM     17  C   UNL     1      -2.643   9.321  16.513  0.00  0.00    +0.000 C 
ENDBRANCH   6  12
BRANCH   1  18
ATOM     18  C   UNL     1       1.564   9.948  19.542  0.00  0.00    +0.000 C 
BRANCH  18  24
ATOM     19  C   UNL     1       2.674   4.018  20.418  0.00  0.00    +0.000 A 
ATOM     20  N   UNL     1       1.519   4.361  20.953  0.00  0.00    +0.000 NA
ATOM     21  N   UNL     1       1.191   5.671  20.674  0.00  0.00    +0.000 NA
ATOM     22  C   UNL     1       2.085   6.256  19.925  0.00  0.00    +0.000 A 
ATOM     23  N   UNL     1       2.159   7.561  19.509  0.00  0.00    +0.000 N 
ATOM     24  C   UNL     1       1.427   8.543  20.155  0.00  0.00    +0.000 C 
ATOM     25  O   UNL     1       0.712   8.371  21.131  0.00  0.00    +0.000 OA
ATOM     26  S   UNL     1       3.379   5.251  19.438  0.00  0.00    +0.000 S 
ATOM     27  H   UNL     1       2.784   7.792  18.750  0.00  0.00    +0.000 HD
BRANCH  19  29
ATOM     28  C   UNL     1       4.407   2.436  19.576  0.00  0.00    +0.000 C 
ATOM     29  C   UNL     1       3.342   2.700  20.633  0.00  0.00    +0.000 C 
ENDBRANCH  19  29
ENDBRANCH  18  24
ENDBRANCH   1  18
TORSDOF 4
ENDMDL
