MODEL 1
REMARK VINA RESULT:      -6.5      0.000      0.000
REMARK  Name = 
REMARK  11 active torsions:
REMARK  status: ('A' for Active; 'I' for Inactive)
REMARK    1  A    between atoms: C_1  and  C_2
REMARK    2  A    between atoms: C_2  and  C_3
REMARK    3  A    between atoms: C_3  and  O_4
REMARK    4  A    between atoms: O_4  and  C_5
REMARK    5  A    between atoms: C_6  and  C_7
REMARK    6  A    between atoms: C_7  and  C_8
REMARK    7  A    between atoms: C_18  and  C_19
REMARK    8  A    between atoms: C_27  and  O_28
REMARK    9  A    between atoms: O_28  and  C_29
REMARK   10  A    between atoms: C_29  and  C_30
REMARK   11  A    between atoms: C_30  and  C_31
REMARK                            x       y       z     vdW  Elec       q    Type
REMARK                         _______ _______ _______ _____ _____    ______ ____
ROOT
ATOM      1  C   UNL     1      -2.240  13.010  21.467  0.00  0.00    +0.000 C 
ATOM      2  C   UNL     1      -2.678  12.275  22.776  0.00  0.00    +0.000 C 
ATOM      3  O   UNL     1      -1.567  11.584  23.367  0.00  0.00    +0.000 OA
ATOM      4  C   UNL     1      -1.071  10.573  22.511  0.00  0.00    +0.000 C 
ATOM      5  C   UNL     1       0.023   9.770  23.211  0.00  0.00    +0.000 C 
ATOM      6  O   UNL     1       0.595   8.811  22.329  0.00  0.00    +0.000 OA
ATOM      7  C   UNL     1       1.065   9.401  21.119  0.00  0.00    +0.000 C 
ATOM      8  O   UNL     1       0.024  10.114  20.454  0.00  0.00    +0.000 OA
ATOM      9  C   UNL     1      -0.446  11.189  21.274  0.00  0.00    +0.000 C 
ATOM     10  C   UNL     1      -1.441  12.067  20.505  0.00  0.00    +0.000 C 
ENDROOT
BRANCH   7  11
ATOM     11  C   UNL     1       1.516   8.277  20.219  0.00  0.00    +0.000 A 
ATOM     12  C   UNL     1       1.653   6.978  20.733  0.00  0.00    +0.000 A 
ATOM     13  C   UNL     1       2.173   5.951  19.949  0.00  0.00    +0.000 A 
ATOM     14  C   UNL     1       2.553   6.206  18.633  0.00  0.00    +0.000 A 
ATOM     15  C   UNL     1       2.390   7.483  18.096  0.00  0.00    +0.000 A 
ATOM     16  C   UNL     1       1.870   8.513  18.882  0.00  0.00    +0.000 A 
ENDBRANCH   7  11
BRANCH   1  17
ATOM     17  O   UNL     1      -3.439  13.526  20.840  0.00  0.00    +0.000 OA
BRANCH  17  18
ATOM     18  C   UNL     1      -4.389  12.521  20.475  0.00  0.00    +0.000 C 
BRANCH  18  20
ATOM     19  C   UNL     1      -6.857  12.049  20.589  0.00  0.00    +0.000 C 
ATOM     20  C   UNL     1      -5.789  13.125  20.456  0.00  0.00    +0.000 C 
ENDBRANCH  18  20
ENDBRANCH  17  18
ENDBRANCH   1  17
BRANCH   2  21
ATOM     21  C   UNL     1      -3.213  13.259  23.846  0.00  0.00    +0.000 C 
BRANCH  21  22
ATOM     22  C   UNL     1      -4.717  13.497  23.936  0.00  0.00    +0.000 A 
ATOM     23  C   UNL     1      -5.666  12.497  24.191  0.00  0.00    +0.000 A 
ATOM     24  C   UNL     1      -7.035  12.796  24.217  0.00  0.00    +0.000 A 
ATOM     25  C   UNL     1      -7.480  14.098  23.996  0.00  0.00    +0.000 A 
ATOM     26  C   UNL     1      -6.552  15.109  23.769  0.00  0.00    +0.000 A 
ATOM     27  C   UNL     1      -5.186  14.810  23.743  0.00  0.00    +0.000 A 
ENDBRANCH  21  22
ENDBRANCH   2  21
BRANCH  10  28
ATOM     28  O   UNL     1      -0.701  12.896  19.560  0.00  0.00    +0.000 OA
BRANCH  28  29
ATOM     29  C   UNL     1      -0.951  12.592  18.187  0.00  0.00    +0.000 C 
BRANCH  29  30
ATOM     30  C   UNL     1      -2.066  11.558  18.056  0.00  0.00    +0.000 C 
ATOM     31  C   UNL     1      -1.577  10.273  17.401  0.00  0.00    +0.000 C 
ENDBRANCH  29  30
ENDBRANCH  28  29
ENDBRANCH  10  28
TORSDOF 9
ENDMDL
MODEL 2
REMARK VINA RESULT:      -6.4      2.854      8.564
REMARK  Name = 
REMARK  11 active torsions:
REMARK  status: ('A' for Active; 'I' for Inactive)
REMARK    1  A    between atoms: C_1  and  C_2
REMARK    2  A    between atoms: C_2  and  C_3
REMARK    3  A    between atoms: C_3  and  O_4
REMARK    4  A    between atoms: O_4  and  C_5
REMARK    5  A    between atoms: C_6  and  C_7
REMARK    6  A    between atoms: C_7  and  C_8
REMARK    7  A    between atoms: C_18  and  C_19
REMARK    8  A    between atoms: C_27  and  O_28
REMARK    9  A    between atoms: O_28  and  C_29
REMARK   10  A    between atoms: C_29  and  C_30
REMARK   11  A    between atoms: C_30  and  C_31
REMARK                            x       y       z     vdW  Elec       q    Type
REMARK                         _______ _______ _______ _____ _____    ______ ____
ROOT
ATOM      1  C   UNL     1       0.723  11.068  19.160  0.00  0.00    +0.000 C 
ATOM      2  C   UNL     1       0.609   9.690  18.428  0.00  0.00    +0.000 C 
ATOM      3  O   UNL     1      -0.290   9.780  17.312  0.00  0.00    +0.000 OA
ATOM      4  C   UNL     1      -1.603  10.099  17.730  0.00  0.00    +0.000 C 
ATOM      5  C   UNL     1      -2.564  10.064  16.543  0.00  0.00    +0.000 C 
ATOM      6  O   UNL     1      -3.870  10.474  16.931  0.00  0.00    +0.000 OA
ATOM      7  C   UNL     1      -3.868  11.748  17.571  0.00  0.00    +0.000 C 
ATOM      8  O   UNL     1      -2.999  11.757  18.702  0.00  0.00    +0.000 OA
ATOM      9  C   UNL     1      -1.650  11.506  18.294  0.00  0.00    +0.000 C 
ATOM     10  C   UNL     1      -0.683  11.683  19.471  0.00  0.00    +0.000 C 
ENDROOT
BRANCH   7  11
ATOM     11  C   UNL     1      -5.274  12.006  18.055  0.00  0.00    +0.000 A 
ATOM     12  C   UNL     1      -6.192  12.669  17.225  0.00  0.00    +0.000 A 
ATOM     13  C   UNL     1      -7.458  13.015  17.694  0.00  0.00    +0.000 A 
ATOM     14  C   UNL     1      -7.829  12.690  18.996  0.00  0.00    +0.000 A 
ATOM     15  C   UNL     1      -6.943  11.999  19.822  0.00  0.00    +0.000 A 
ATOM     16  C   UNL     1      -5.673  11.654  19.353  0.00  0.00    +0.000 A 
ENDBRANCH   7  11
BRANCH   1  17
ATOM     17  O   UNL     1       1.495  10.853  20.366  0.00  0.00    +0.000 OA
BRANCH  17  18
ATOM     18  C   UNL     1       0.708  10.740  21.554  0.00  0.00    +0.000 C 
BRANCH  18  20
ATOM     19  C   UNL     1      -0.394   8.490  21.780  0.00  0.00    +0.000 C 
ATOM     20  C   UNL     1       0.832   9.327  22.115  0.00  0.00    +0.000 C 
ENDBRANCH  18  20
ENDBRANCH  17  18
ENDBRANCH   1  17
BRANCH   2  21
ATOM     21  C   UNL     1       1.971   9.213  17.867  0.00  0.00    +0.000 C 
BRANCH  21  22
ATOM     22  C   UNL     1       2.523   7.868  18.328  0.00  0.00    +0.000 A 
ATOM     23  C   UNL     1       2.075   7.171  19.459  0.00  0.00    +0.000 A 
ATOM     24  C   UNL     1       2.667   5.957  19.835  0.00  0.00    +0.000 A 
ATOM     25  C   UNL     1       3.709   5.416  19.087  0.00  0.00    +0.000 A 
ATOM     26  C   UNL     1       4.150   6.079  17.946  0.00  0.00    +0.000 A 
ATOM     27  C   UNL     1       3.559   7.290  17.572  0.00  0.00    +0.000 A 
ENDBRANCH  21  22
ENDBRANCH   2  21
BRANCH  10  28
ATOM     28  O   UNL     1      -0.513  13.110  19.726  0.00  0.00    +0.000 OA
BRANCH  28  29
ATOM     29  C   UNL     1      -0.158  13.877  18.574  0.00  0.00    +0.000 C 
BRANCH  29  30
ATOM     30  C   UNL     1       0.895  14.925  18.925  0.00  0.00    +0.000 C 
ATOM     31  C   UNL     1       0.387  16.342  18.690  0.00  0.00    +0.000 C 
ENDBRANCH  29  30
ENDBRANCH  28  29
ENDBRANCH  10  28
TORSDOF 9
ENDMDL
MODEL 3
REMARK VINA RESULT:      -6.3      1.715      2.516
REMARK  Name = 
REMARK  11 active torsions:
REMARK  status: ('A' for Active; 'I' for Inactive)
REMARK    1  A    between atoms: C_1  and  C_2
REMARK    2  A    between atoms: C_2  and  C_3
REMARK    3  A    between atoms: C_3  and  O_4
REMARK    4  A    between atoms: O_4  and  C_5
REMARK    5  A    between atoms: C_6  and  C_7
REMARK    6  A    between atoms: C_7  and  C_8
REMARK    7  A    between atoms: C_18  and  C_19
REMARK    8  A    between atoms: C_27  and  O_28
REMARK    9  A    between atoms: O_28  and  C_29
REMARK   10  A    between atoms: C_29  and  C_30
REMARK   11  A    between atoms: C_30  and  C_31
REMARK                            x       y       z     vdW  Elec       q    Type
REMARK                         _______ _______ _______ _____ _____    ______ ____
ROOT
ATOM      1  C   UNL     1      -3.557  12.432  18.911  0.00  0.00    +0.000 C 
ATOM      2  C   UNL     1      -3.553  12.608  20.465  0.00  0.00    +0.000 C 
ATOM      3  O   UNL     1      -2.210  12.710  20.962  0.00  0.00    +0.000 OA
ATOM      4  C   UNL     1      -1.473  11.529  20.710  0.00  0.00    +0.000 C 
ATOM      5  C   UNL     1      -0.093  11.613  21.359  0.00  0.00    +0.000 C 
ATOM      6  O   UNL     1       0.693  10.472  21.035  0.00  0.00    +0.000 OA
ATOM      7  C   UNL     1       0.782  10.258  19.628  0.00  0.00    +0.000 C 
ATOM      8  O   UNL     1      -0.512  10.140  19.040  0.00  0.00    +0.000 OA
ATOM      9  C   UNL     1      -1.252  11.353  19.220  0.00  0.00    +0.000 C 
ATOM     10  C   UNL     1      -2.576  11.303  18.447  0.00  0.00    +0.000 C 
ENDROOT
BRANCH   7  11
ATOM     11  C   UNL     1       1.515   8.956  19.420  0.00  0.00    +0.000 A 
ATOM     12  C   UNL     1       2.093   8.666  18.174  0.00  0.00    +0.000 A 
ATOM     13  C   UNL     1       2.676   7.425  17.928  0.00  0.00    +0.000 A 
ATOM     14  C   UNL     1       2.702   6.459  18.931  0.00  0.00    +0.000 A 
ATOM     15  C   UNL     1       2.164   6.743  20.186  0.00  0.00    +0.000 A 
ATOM     16  C   UNL     1       1.578   7.986  20.432  0.00  0.00    +0.000 A 
ENDBRANCH   7  11
BRANCH   1  17
ATOM     17  O   UNL     1      -4.921  12.157  18.511  0.00  0.00    +0.000 OA
BRANCH  17  18
ATOM     18  C   UNL     1      -5.275  10.772  18.549  0.00  0.00    +0.000 C 
BRANCH  18  20
ATOM     19  C   UNL     1      -7.355  11.935  19.354  0.00  0.00    +0.000 C 
ATOM     20  C   UNL     1      -6.769  10.634  18.826  0.00  0.00    +0.000 C 
ENDBRANCH  18  20
ENDBRANCH  17  18
ENDBRANCH   1  17
BRANCH   2  21
ATOM     21  C   UNL     1      -4.294  13.893  20.908  0.00  0.00    +0.000 C 
BRANCH  21  22
ATOM     22  C   UNL     1      -5.402  13.780  21.950  0.00  0.00    +0.000 A 
ATOM     23  C   UNL     1      -6.621  14.471  21.892  0.00  0.00    +0.000 A 
ATOM     24  C   UNL     1      -7.570  14.339  22.915  0.00  0.00    +0.000 A 
ATOM     25  C   UNL     1      -7.323  13.512  24.008  0.00  0.00    +0.000 A 
ATOM     26  C   UNL     1      -6.131  12.797  24.070  0.00  0.00    +0.000 A 
ATOM     27  C   UNL     1      -5.184  12.929  23.050  0.00  0.00    +0.000 A 
ENDBRANCH  21  22
ENDBRANCH   2  21
BRANCH  10  28
ATOM     28  O   UNL     1      -2.295  11.494  17.027  0.00  0.00    +0.000 OA
BRANCH  28  29
ATOM     29  C   UNL     1      -2.467  10.322  16.229  0.00  0.00    +0.000 C 
BRANCH  29  30
ATOM     30  C   UNL     1      -3.598  10.513  15.223  0.00  0.00    +0.000 C 
ATOM     31  C   UNL     1      -3.215  10.014  13.835  0.00  0.00    +0.000 C 
ENDBRANCH  29  30
ENDBRANCH  28  29
ENDBRANCH  10  28
TORSDOF 9
ENDMDL
MODEL 4
REMARK VINA RESULT:      -6.2      4.455     11.805
REMARK  Name = 
REMARK  11 active torsions:
REMARK  status: ('A' for Active; 'I' for Inactive)
REMARK    1  A    between atoms: C_1  and  C_2
REMARK    2  A    between atoms: C_2  and  C_3
REMARK    3  A    between atoms: C_3  and  O_4
REMARK    4  A    between atoms: O_4  and  C_5
REMARK    5  A    between atoms: C_6  and  C_7
REMARK    6  A    between atoms: C_7  and  C_8
REMARK    7  A    between atoms: C_18  and  C_19
REMARK    8  A    between atoms: C_27  and  O_28
REMARK    9  A    between atoms: O_28  and  C_29
REMARK   10  A    between atoms: C_29  and  C_30
REMARK   11  A    between atoms: C_30  and  C_31
REMARK                            x       y       z     vdW  Elec       q    Type
REMARK                         _______ _______ _______ _____ _____    ______ ____
ROOT
ATOM      1  C   UNL     1       3.736   4.324  17.966  0.00  0.00    +0.000 C 
ATOM      2  C   UNL     1       4.369   4.983  16.696  0.00  0.00    +0.000 C 
ATOM      3  O   UNL     1       4.648   6.372  16.930  0.00  0.00    +0.000 OA
ATOM      4  C   UNL     1       3.464   7.102  17.188  0.00  0.00    +0.000 C 
ATOM      5  C   UNL     1       3.773   8.593  17.306  0.00  0.00    +0.000 C 
ATOM      6  O   UNL     1       2.606   9.329  17.657  0.00  0.00    +0.000 OA
ATOM      7  C   UNL     1       1.983   8.823  18.835  0.00  0.00    +0.000 C 
ATOM      8  O   UNL     1       1.663   7.440  18.698  0.00  0.00    +0.000 OA
ATOM      9  C   UNL     1       2.855   6.670  18.508  0.00  0.00    +0.000 C 
ATOM     10  C   UNL     1       2.544   5.169  18.531  0.00  0.00    +0.000 C 
ENDROOT
BRANCH   7  11
ATOM     11  C   UNL     1       0.696   9.588  19.023  0.00  0.00    +0.000 A 
ATOM     12  C   UNL     1      -0.164   9.795  17.933  0.00  0.00    +0.000 A 
ATOM     13  C   UNL     1      -1.300  10.592  18.061  0.00  0.00    +0.000 A 
ATOM     14  C   UNL     1      -1.599  11.183  19.286  0.00  0.00    +0.000 A 
ATOM     15  C   UNL     1      -0.775  10.959  20.388  0.00  0.00    +0.000 A 
ATOM     16  C   UNL     1       0.365  10.162  20.260  0.00  0.00    +0.000 A 
ENDBRANCH   7  11
BRANCH   1  17
ATOM     17  O   UNL     1       3.320   2.987  17.597  0.00  0.00    +0.000 OA
BRANCH  17  18
ATOM     18  C   UNL     1       3.611   1.990  18.579  0.00  0.00    +0.000 C 
BRANCH  18  20
ATOM     19  C   UNL     1       4.891   1.559  20.701  0.00  0.00    +0.000 C 
ATOM     20  C   UNL     1       4.679   2.512  19.534  0.00  0.00    +0.000 C 
ENDBRANCH  18  20
ENDBRANCH  17  18
ENDBRANCH   1  17
BRANCH   2  21
ATOM     21  C   UNL     1       5.710   4.317  16.302  0.00  0.00    +0.000 C 
BRANCH  21  22
ATOM     22  C   UNL     1       6.103   4.276  14.829  0.00  0.00    +0.000 A 
ATOM     23  C   UNL     1       5.434   3.527  13.849  0.00  0.00    +0.000 A 
ATOM     24  C   UNL     1       5.888   3.514  12.523  0.00  0.00    +0.000 A 
ATOM     25  C   UNL     1       7.009   4.251  12.150  0.00  0.00    +0.000 A 
ATOM     26  C   UNL     1       7.669   5.021  13.102  0.00  0.00    +0.000 A 
ATOM     27  C   UNL     1       7.217   5.034  14.425  0.00  0.00    +0.000 A 
ENDBRANCH  21  22
ENDBRANCH   2  21
BRANCH  10  28
ATOM     28  O   UNL     1       2.307   4.761  19.912  0.00  0.00    +0.000 OA
BRANCH  28  29
ATOM     29  C   UNL     1       0.959   4.380  20.192  0.00  0.00    +0.000 C 
BRANCH  29  30
ATOM     30  C   UNL     1       0.879   2.899  20.552  0.00  0.00    +0.000 C 
ATOM     31  C   UNL     1       1.637   2.585  21.836  0.00  0.00    +0.000 C 
ENDBRANCH  29  30
ENDBRANCH  28  29
ENDBRANCH  10  28
TORSDOF 9
ENDMDL
MODEL 5
REMARK VINA RESULT:      -6.2      3.966     11.231
REMARK  Name = 
REMARK  11 active torsions:
REMARK  status: ('A' for Active; 'I' for Inactive)
REMARK    1  A    between atoms: C_1  and  C_2
REMARK    2  A    between atoms: C_2  and  C_3
REMARK    3  A    between atoms: C_3  and  O_4
REMARK    4  A    between atoms: O_4  and  C_5
REMARK    5  A    between atoms: C_6  and  C_7
REMARK    6  A    between atoms: C_7  and  C_8
REMARK    7  A    between atoms: C_18  and  C_19
REMARK    8  A    between atoms: C_27  and  O_28
REMARK    9  A    between atoms: O_28  and  C_29
REMARK   10  A    between atoms: C_29  and  C_30
REMARK   11  A    between atoms: C_30  and  C_31
REMARK                            x       y       z     vdW  Elec       q    Type
REMARK                         _______ _______ _______ _____ _____    ______ ____
ROOT
ATOM      1  C   UNL     1       3.723   5.505  18.738  0.00  0.00    +0.000 C 
ATOM      2  C   UNL     1       4.293   6.058  17.390  0.00  0.00    +0.000 C 
ATOM      3  O   UNL     1       4.337   7.493  17.408  0.00  0.00    +0.000 OA
ATOM      4  C   UNL     1       3.042   8.049  17.529  0.00  0.00    +0.000 C 
ATOM      5  C   UNL     1       3.103   9.571  17.416  0.00  0.00    +0.000 C 
ATOM      6  O   UNL     1       1.820  10.149  17.631  0.00  0.00    +0.000 OA
ATOM      7  C   UNL     1       1.239   9.734  18.864  0.00  0.00    +0.000 C 
ATOM      8  O   UNL     1       1.150   8.312  18.941  0.00  0.00    +0.000 OA
ATOM      9  C   UNL     1       2.457   7.729  18.891  0.00  0.00    +0.000 C 
ATOM     10  C   UNL     1       2.389   6.218  19.145  0.00  0.00    +0.000 C 
ENDROOT
BRANCH   7  11
ATOM     11  C   UNL     1      -0.160  10.297  18.911  0.00  0.00    +0.000 A 
ATOM     12  C   UNL     1      -1.068  10.010  17.879  0.00  0.00    +0.000 A 
ATOM     13  C   UNL     1      -2.325  10.608  17.847  0.00  0.00    +0.000 A 
ATOM     14  C   UNL     1      -2.699  11.493  18.855  0.00  0.00    +0.000 A 
ATOM     15  C   UNL     1      -1.824  11.762  19.907  0.00  0.00    +0.000 A 
ATOM     16  C   UNL     1      -0.562  11.163  19.938  0.00  0.00    +0.000 A 
ENDBRANCH   7  11
BRANCH   1  17
ATOM     17  O   UNL     1       3.541   4.077  18.577  0.00  0.00    +0.000 OA
BRANCH  17  18
ATOM     18  C   UNL     1       2.498   3.718  17.668  0.00  0.00    +0.000 C 
BRANCH  18  20
ATOM     19  C   UNL     1       3.508   1.516  18.344  0.00  0.00    +0.000 C 
ATOM     20  C   UNL     1       2.563   2.221  17.383  0.00  0.00    +0.000 C 
ENDBRANCH  18  20
ENDBRANCH  17  18
ENDBRANCH   1  17
BRANCH   2  21
ATOM     21  C   UNL     1       5.738   5.569  17.125  0.00  0.00    +0.000 C 
BRANCH  21  22
ATOM     22  C   UNL     1       6.094   5.053  15.735  0.00  0.00    +0.000 A 
ATOM     23  C   UNL     1       7.280   5.362  15.053  0.00  0.00    +0.000 A 
ATOM     24  C   UNL     1       7.510   4.876  13.758  0.00  0.00    +0.000 A 
ATOM     25  C   UNL     1       6.567   4.071  13.125  0.00  0.00    +0.000 A 
ATOM     26  C   UNL     1       5.396   3.731  13.796  0.00  0.00    +0.000 A 
ATOM     27  C   UNL     1       5.167   4.216  15.088  0.00  0.00    +0.000 A 
ENDBRANCH  21  22
ENDBRANCH   2  21
BRANCH  10  28
ATOM     28  O   UNL     1       2.165   5.993  20.570  0.00  0.00    +0.000 OA
BRANCH  28  29
ATOM     29  C   UNL     1       1.361   4.850  20.867  0.00  0.00    +0.000 C 
BRANCH  29  30
ATOM     30  C   UNL     1       2.178   3.791  21.603  0.00  0.00    +0.000 C 
ATOM     31  C   UNL     1       1.487   2.434  21.596  0.00  0.00    +0.000 C 
ENDBRANCH  29  30
ENDBRANCH  28  29
ENDBRANCH  10  28
TORSDOF 9
ENDMDL
MODEL 6
REMARK VINA RESULT:      -6.2      1.180      1.742
REMARK  Name = 
REMARK  11 active torsions:
REMARK  status: ('A' for Active; 'I' for Inactive)
REMARK    1  A    between atoms: C_1  and  C_2
REMARK    2  A    between atoms: C_2  and  C_3
REMARK    3  A    between atoms: C_3  and  O_4
REMARK    4  A    between atoms: O_4  and  C_5
REMARK    5  A    between atoms: C_6  and  C_7
REMARK    6  A    between atoms: C_7  and  C_8
REMARK    7  A    between atoms: C_18  and  C_19
REMARK    8  A    between atoms: C_27  and  O_28
REMARK    9  A    between atoms: O_28  and  C_29
REMARK   10  A    between atoms: C_29  and  C_30
REMARK   11  A    between atoms: C_30  and  C_31
REMARK                            x       y       z     vdW  Elec       q    Type
REMARK                         _______ _______ _______ _____ _____    ______ ____
ROOT
ATOM      1  C   UNL     1      -1.597  12.840  21.283  0.00  0.00    +0.000 C 
ATOM      2  C   UNL     1      -2.079  12.189  22.621  0.00  0.00    +0.000 C 
ATOM      3  O   UNL     1      -1.022  11.429  23.226  0.00  0.00    +0.000 OA
ATOM      4  C   UNL     1      -0.622  10.351  22.401  0.00  0.00    +0.000 C 
ATOM      5  C   UNL     1       0.410   9.485  23.120  0.00  0.00    +0.000 C 
ATOM      6  O   UNL     1       0.891   8.451  22.267  0.00  0.00    +0.000 OA
ATOM      7  C   UNL     1       1.394   8.959  21.034  0.00  0.00    +0.000 C 
ATOM      8  O   UNL     1       0.407   9.732  20.353  0.00  0.00    +0.000 OA
ATOM      9  C   UNL     1       0.038  10.870  21.139  0.00  0.00    +0.000 C 
ATOM     10  C   UNL     1      -0.890  11.801  20.348  0.00  0.00    +0.000 C 
ENDROOT
BRANCH   7  11
ATOM     11  C   UNL     1       1.740   7.771  20.170  0.00  0.00    +0.000 A 
ATOM     12  C   UNL     1       1.647   6.471  20.693  0.00  0.00    +0.000 A 
ATOM     13  C   UNL     1       2.068   5.371  19.950  0.00  0.00    +0.000 A 
ATOM     14  C   UNL     1       2.575   5.553  18.665  0.00  0.00    +0.000 A 
ATOM     15  C   UNL     1       2.640   6.833  18.117  0.00  0.00    +0.000 A 
ATOM     16  C   UNL     1       2.221   7.937  18.863  0.00  0.00    +0.000 A 
ENDBRANCH   7  11
BRANCH   1  17
ATOM     17  O   UNL     1      -2.757  13.432  20.649  0.00  0.00    +0.000 OA
BRANCH  17  18
ATOM     18  C   UNL     1      -3.543  12.511  19.889  0.00  0.00    +0.000 C 
BRANCH  18  20
ATOM     19  C   UNL     1      -5.590  13.953  20.129  0.00  0.00    +0.000 C 
ATOM     20  C   UNL     1      -4.994  12.572  20.356  0.00  0.00    +0.000 C 
ENDBRANCH  18  20
ENDBRANCH  17  18
ENDBRANCH   1  17
BRANCH   2  21
ATOM     21  C   UNL     1      -2.518  13.250  23.660  0.00  0.00    +0.000 C 
BRANCH  21  22
ATOM     22  C   UNL     1      -3.993  13.632  23.740  0.00  0.00    +0.000 A 
ATOM     23  C   UNL     1      -4.484  14.937  23.594  0.00  0.00    +0.000 A 
ATOM     24  C   UNL     1      -5.854  15.207  23.723  0.00  0.00    +0.000 A 
ATOM     25  C   UNL     1      -6.756  14.180  23.992  0.00  0.00    +0.000 A 
ATOM     26  C   UNL     1      -6.290  12.875  24.113  0.00  0.00    +0.000 A 
ATOM     27  C   UNL     1      -4.924  12.606  23.985  0.00  0.00    +0.000 A 
ENDBRANCH  21  22
ENDBRANCH   2  21
BRANCH  10  28
ATOM     28  O   UNL     1      -0.095  12.533  19.368  0.00  0.00    +0.000 OA
BRANCH  28  29
ATOM     29  C   UNL     1       0.709  13.576  19.921  0.00  0.00    +0.000 C 
BRANCH  29  30
ATOM     30  C   UNL     1       2.188  13.332  19.631  0.00  0.00    +0.000 C 
ATOM     31  C   UNL     1       2.404  12.733  18.247  0.00  0.00    +0.000 C 
ENDBRANCH  29  30
ENDBRANCH  28  29
ENDBRANCH  10  28
TORSDOF 9
ENDMDL
MODEL 7
REMARK VINA RESULT:      -6.2      1.702      2.733
REMARK  Name = 
REMARK  11 active torsions:
REMARK  status: ('A' for Active; 'I' for Inactive)
REMARK    1  A    between atoms: C_1  and  C_2
REMARK    2  A    between atoms: C_2  and  C_3
REMARK    3  A    between atoms: C_3  and  O_4
REMARK    4  A    between atoms: O_4  and  C_5
REMARK    5  A    between atoms: C_6  and  C_7
REMARK    6  A    between atoms: C_7  and  C_8
REMARK    7  A    between atoms: C_18  and  C_19
REMARK    8  A    between atoms: C_27  and  O_28
REMARK    9  A    between atoms: O_28  and  C_29
REMARK   10  A    between atoms: C_29  and  C_30
REMARK   11  A    between atoms: C_30  and  C_31
REMARK                            x       y       z     vdW  Elec       q    Type
REMARK                         _______ _______ _______ _____ _____    ______ ____
ROOT
ATOM      1  C   UNL     1      -1.047  12.239  20.034  0.00  0.00    +0.000 C 
ATOM      2  C   UNL     1      -1.661  11.765  21.392  0.00  0.00    +0.000 C 
ATOM      3  O   UNL     1      -0.685  11.059  22.173  0.00  0.00    +0.000 OA
ATOM      4  C   UNL     1      -0.253   9.882  21.519  0.00  0.00    +0.000 C 
ATOM      5  C   UNL     1       0.686   9.084  22.422  0.00  0.00    +0.000 C 
ATOM      6  O   UNL     1       1.202   7.945  21.743  0.00  0.00    +0.000 OA
ATOM      7  C   UNL     1       1.824   8.289  20.507  0.00  0.00    +0.000 C 
ATOM      8  O   UNL     1       0.925   8.997  19.655  0.00  0.00    +0.000 OA
ATOM      9  C   UNL     1       0.529  10.230  20.267  0.00  0.00    +0.000 C 
ATOM     10  C   UNL     1      -0.298  11.080  19.294  0.00  0.00    +0.000 C 
ENDROOT
BRANCH   7  11
ATOM     11  C   UNL     1       2.202   6.998  19.823  0.00  0.00    +0.000 A 
ATOM     12  C   UNL     1       2.858   7.026  18.581  0.00  0.00    +0.000 A 
ATOM     13  C   UNL     1       3.115   5.849  17.883  0.00  0.00    +0.000 A 
ATOM     14  C   UNL     1       2.733   4.623  18.423  0.00  0.00    +0.000 A 
ATOM     15  C   UNL     1       2.114   4.574  19.672  0.00  0.00    +0.000 A 
ATOM     16  C   UNL     1       1.853   5.755  20.371  0.00  0.00    +0.000 A 
ENDBRANCH   7  11
BRANCH   1  17
ATOM     17  O   UNL     1      -2.129  12.777  19.235  0.00  0.00    +0.000 OA
BRANCH  17  18
ATOM     18  C   UNL     1      -3.209  11.866  19.021  0.00  0.00    +0.000 C 
BRANCH  18  20
ATOM     19  C   UNL     1      -3.245   9.986  17.350  0.00  0.00    +0.000 C 
ATOM     20  C   UNL     1      -3.278  11.495  17.543  0.00  0.00    +0.000 C 
ENDBRANCH  18  20
ENDBRANCH  17  18
ENDBRANCH   1  17
BRANCH   2  21
ATOM     21  C   UNL     1      -2.151  12.953  22.256  0.00  0.00    +0.000 C 
BRANCH  21  22
ATOM     22  C   UNL     1      -3.566  12.913  22.824  0.00  0.00    +0.000 A 
ATOM     23  C   UNL     1      -4.715  13.306  22.122  0.00  0.00    +0.000 A 
ATOM     24  C   UNL     1      -5.975  13.275  22.735  0.00  0.00    +0.000 A 
ATOM     25  C   UNL     1      -6.112  12.847  24.053  0.00  0.00    +0.000 A 
ATOM     26  C   UNL     1      -4.988  12.428  24.757  0.00  0.00    +0.000 A 
ATOM     27  C   UNL     1      -3.730  12.459  24.145  0.00  0.00    +0.000 A 
ENDBRANCH  21  22
ENDBRANCH   2  21
BRANCH  10  28
ATOM     28  O   UNL     1       0.601  11.670  18.307  0.00  0.00    +0.000 OA
BRANCH  28  29
ATOM     29  C   UNL     1       1.376  12.765  18.797  0.00  0.00    +0.000 C 
BRANCH  29  30
ATOM     30  C   UNL     1       2.744  12.805  18.120  0.00  0.00    +0.000 C 
ATOM     31  C   UNL     1       3.445  14.140  18.336  0.00  0.00    +0.000 C 
ENDBRANCH  29  30
ENDBRANCH  28  29
ENDBRANCH  10  28
TORSDOF 9
ENDMDL
MODEL 8
REMARK VINA RESULT:      -6.1      2.414      8.506
REMARK  Name = 
REMARK  11 active torsions:
REMARK  status: ('A' for Active; 'I' for Inactive)
REMARK    1  A    between atoms: C_1  and  C_2
REMARK    2  A    between atoms: C_2  and  C_3
REMARK    3  A    between atoms: C_3  and  O_4
REMARK    4  A    between atoms: O_4  and  C_5
REMARK    5  A    between atoms: C_6  and  C_7
REMARK    6  A    between atoms: C_7  and  C_8
REMARK    7  A    between atoms: C_18  and  C_19
REMARK    8  A    between atoms: C_27  and  O_28
REMARK    9  A    between atoms: O_28  and  C_29
REMARK   10  A    between atoms: C_29  and  C_30
REMARK   11  A    between atoms: C_30  and  C_31
REMARK                            x       y       z     vdW  Elec       q    Type
REMARK                         _______ _______ _______ _____ _____    ______ ____
ROOT
ATOM      1  C   UNL     1       0.761  11.094  19.193  0.00  0.00    +0.000 C 
ATOM      2  C   UNL     1       0.643   9.705  18.485  0.00  0.00    +0.000 C 
ATOM      3  O   UNL     1      -0.262   9.776  17.373  0.00  0.00    +0.000 OA
ATOM      4  C   UNL     1      -1.573  10.101  17.793  0.00  0.00    +0.000 C 
ATOM      5  C   UNL     1      -2.540  10.045  16.613  0.00  0.00    +0.000 C 
ATOM      6  O   UNL     1      -3.845  10.461  17.002  0.00  0.00    +0.000 OA
ATOM      7  C   UNL     1      -3.840  11.745  17.621  0.00  0.00    +0.000 C 
ATOM      8  O   UNL     1      -2.964  11.773  18.747  0.00  0.00    +0.000 OA
ATOM      9  C   UNL     1      -1.617  11.517  18.335  0.00  0.00    +0.000 C 
ATOM     10  C   UNL     1      -0.644  11.714  19.503  0.00  0.00    +0.000 C 
ENDROOT
BRANCH   7  11
ATOM     11  C   UNL     1      -5.243  12.011  18.109  0.00  0.00    +0.000 A 
ATOM     12  C   UNL     1      -6.181  12.617  17.257  0.00  0.00    +0.000 A 
ATOM     13  C   UNL     1      -7.445  12.970  17.724  0.00  0.00    +0.000 A 
ATOM     14  C   UNL     1      -7.796  12.710  19.046  0.00  0.00    +0.000 A 
ATOM     15  C   UNL     1      -6.889  12.076  19.896  0.00  0.00    +0.000 A 
ATOM     16  C   UNL     1      -5.621  11.723  19.429  0.00  0.00    +0.000 A 
ENDBRANCH   7  11
BRANCH   1  17
ATOM     17  O   UNL     1       1.541  10.900  20.398  0.00  0.00    +0.000 OA
BRANCH  17  18
ATOM     18  C   UNL     1       0.759  10.776  21.589  0.00  0.00    +0.000 C 
BRANCH  18  20
ATOM     19  C   UNL     1      -0.392   8.569  21.950  0.00  0.00    +0.000 C 
ATOM     20  C   UNL     1       0.892   9.362  22.143  0.00  0.00    +0.000 C 
ENDBRANCH  18  20
ENDBRANCH  17  18
ENDBRANCH   1  17
BRANCH   2  21
ATOM     21  C   UNL     1       2.003   9.220  17.924  0.00  0.00    +0.000 C 
BRANCH  21  22
ATOM     22  C   UNL     1       2.536   7.861  18.366  0.00  0.00    +0.000 A 
ATOM     23  C   UNL     1       3.519   7.132  17.681  0.00  0.00    +0.000 A 
ATOM     24  C   UNL     1       3.923   5.869  18.136  0.00  0.00    +0.000 A 
ATOM     25  C   UNL     1       3.359   5.314  19.282  0.00  0.00    +0.000 A 
ATOM     26  C   UNL     1       2.401   6.033  19.990  0.00  0.00    +0.000 A 
ATOM     27  C   UNL     1       1.998   7.293  19.536  0.00  0.00    +0.000 A 
ENDBRANCH  21  22
ENDBRANCH   2  21
BRANCH  10  28
ATOM     28  O   UNL     1      -0.473  13.145  19.734  0.00  0.00    +0.000 OA
BRANCH  28  29
ATOM     29  C   UNL     1      -1.073  13.624  20.938  0.00  0.00    +0.000 C 
BRANCH  29  30
ATOM     30  C   UNL     1      -2.035  14.773  20.643  0.00  0.00    +0.000 C 
ATOM     31  C   UNL     1      -3.475  14.408  20.978  0.00  0.00    +0.000 C 
ENDBRANCH  29  30
ENDBRANCH  28  29
ENDBRANCH  10  28
TORSDOF 9
ENDMDL
MODEL 9
REMARK VINA RESULT:      -6.1      1.296      1.689
REMARK  Name = 
REMARK  11 active torsions:
REMARK  status: ('A' for Active; 'I' for Inactive)
REMARK    1  A    between atoms: C_1  and  C_2
REMARK    2  A    between atoms: C_2  and  C_3
REMARK    3  A    between atoms: C_3  and  O_4
REMARK    4  A    between atoms: O_4  and  C_5
REMARK    5  A    between atoms: C_6  and  C_7
REMARK    6  A    between atoms: C_7  and  C_8
REMARK    7  A    between atoms: C_18  and  C_19
REMARK    8  A    between atoms: C_27  and  O_28
REMARK    9  A    between atoms: O_28  and  C_29
REMARK   10  A    between atoms: C_29  and  C_30
REMARK   11  A    between atoms: C_30  and  C_31
REMARK                            x       y       z     vdW  Elec       q    Type
REMARK                         _______ _______ _______ _____ _____    ______ ____
ROOT
ATOM      1  C   UNL     1      -1.524  12.883  21.135  0.00  0.00    +0.000 C 
ATOM      2  C   UNL     1      -2.040  12.256  22.472  0.00  0.00    +0.000 C 
ATOM      3  O   UNL     1      -1.006  11.487  23.105  0.00  0.00    +0.000 OA
ATOM      4  C   UNL     1      -0.608  10.394  22.301  0.00  0.00    +0.000 C 
ATOM      5  C   UNL     1       0.398   9.521  23.049  0.00  0.00    +0.000 C 
ATOM      6  O   UNL     1       0.878   8.470  22.217  0.00  0.00    +0.000 OA
ATOM      7  C   UNL     1       1.411   8.955  20.987  0.00  0.00    +0.000 C 
ATOM      8  O   UNL     1       0.450   9.735  20.279  0.00  0.00    +0.000 OA
ATOM      9  C   UNL     1       0.084  10.888  21.045  0.00  0.00    +0.000 C 
ATOM     10  C   UNL     1      -0.815  11.823  20.226  0.00  0.00    +0.000 C 
ENDROOT
BRANCH   7  11
ATOM     11  C   UNL     1       1.755   7.752  20.144  0.00  0.00    +0.000 A 
ATOM     12  C   UNL     1       1.661   6.461  20.690  0.00  0.00    +0.000 A 
ATOM     13  C   UNL     1       2.079   5.348  19.965  0.00  0.00    +0.000 A 
ATOM     14  C   UNL     1       2.586   5.507  18.677  0.00  0.00    +0.000 A 
ATOM     15  C   UNL     1       2.653   6.777  18.107  0.00  0.00    +0.000 A 
ATOM     16  C   UNL     1       2.235   7.895  18.834  0.00  0.00    +0.000 A 
ENDBRANCH   7  11
BRANCH   1  17
ATOM     17  O   UNL     1      -2.662  13.486  20.473  0.00  0.00    +0.000 OA
BRANCH  17  18
ATOM     18  C   UNL     1      -3.659  12.550  20.054  0.00  0.00    +0.000 C 
BRANCH  18  20
ATOM     19  C   UNL     1      -6.099  12.151  20.515  0.00  0.00    +0.000 C 
ATOM     20  C   UNL     1      -5.039  13.188  20.174  0.00  0.00    +0.000 C 
ENDBRANCH  18  20
ENDBRANCH  17  18
ENDBRANCH   1  17
BRANCH   2  21
ATOM     21  C   UNL     1      -2.482  13.336  23.490  0.00  0.00    +0.000 C 
BRANCH  21  22
ATOM     22  C   UNL     1      -3.972  13.611  23.667  0.00  0.00    +0.000 A 
ATOM     23  C   UNL     1      -4.916  12.649  24.056  0.00  0.00    +0.000 A 
ATOM     24  C   UNL     1      -6.275  12.978  24.156  0.00  0.00    +0.000 A 
ATOM     25  C   UNL     1      -6.714  14.269  23.877  0.00  0.00    +0.000 A 
ATOM     26  C   UNL     1      -5.789  15.244  23.516  0.00  0.00    +0.000 A 
ATOM     27  C   UNL     1      -4.433  14.916  23.416  0.00  0.00    +0.000 A 
ENDBRANCH  21  22
ENDBRANCH   2  21
BRANCH  10  28
ATOM     28  O   UNL     1       0.009  12.531  19.252  0.00  0.00    +0.000 OA
BRANCH  28  29
ATOM     29  C   UNL     1       0.898  13.494  19.821  0.00  0.00    +0.000 C 
BRANCH  29  30
ATOM     30  C   UNL     1       1.988  13.879  18.824  0.00  0.00    +0.000 C 
ATOM     31  C   UNL     1       2.533  15.276  19.090  0.00  0.00    +0.000 C 
ENDBRANCH  29  30
ENDBRANCH  28  29
ENDBRANCH  10  28
TORSDOF 9
ENDMDL
