MODEL 1
REMARK VINA RESULT:      -7.4      0.000      0.000
REMARK  Name = 
REMARK  5 active torsions:
REMARK  status: ('A' for Active; 'I' for Inactive)
REMARK    1  A    between atoms: C_1  and  C_2
REMARK    2  A    between atoms: C_8  and  C_9
REMARK    3  A    between atoms: C_8  and  C_10
REMARK    4  A    between atoms: C_11  and  C_12
REMARK    5  A    between atoms: C_13  and  C_14
REMARK                            x       y       z     vdW  Elec       q    Type
REMARK                         _______ _______ _______ _____ _____    ______ ____
ROOT
ATOM      1  C   UNL     1       2.441   4.344  20.713  0.00  0.00    +0.000 C 
ATOM      2  C   UNL     1       2.200   5.685  20.084  0.00  0.00    +0.000 A 
ATOM      3  C   UNL     1       2.724   6.066  18.835  0.00  0.00    +0.000 A 
ATOM      4  C   UNL     1       2.567   7.388  18.344  0.00  0.00    +0.000 A 
ATOM      5  C   UNL     1       1.890   8.325  19.103  0.00  0.00    +0.000 A 
ATOM      6  C   UNL     1       1.328   7.901  20.309  0.00  0.00    +0.000 A 
ATOM      7  C   UNL     1       1.477   6.620  20.815  0.00  0.00    +0.000 A 
ATOM      8  C   UNL     1       0.638   9.043  21.015  0.00  0.00    +0.000 C 
ATOM      9  C   UNL     1      -0.792   8.634  21.401  0.00  0.00    +0.000 C 
ATOM     10  C   UNL     1       1.454   9.350  22.288  0.00  0.00    +0.000 C 
ATOM     11  C   UNL     1       0.739  10.166  19.885  0.00  0.00    +0.000 C 
ATOM     12  N   UNL     1       1.336  11.385  20.377  0.00  0.00    +0.000 N 
ATOM     13  C   UNL     1       1.540  12.369  19.437  0.00  0.00    +0.000 C 
ATOM     14  O   UNL     1       1.139  13.517  19.583  0.00  0.00    +0.000 OA
ATOM     15  C   UNL     1       2.476  11.951  18.333  0.00  0.00    +0.000 C 
ATOM     16  C   UNL     1       2.172  10.537  17.828  0.00  0.00    +0.000 C 
ATOM     17  N   UNL     1       1.686   9.672  18.890  0.00  0.00    +0.000 N 
ATOM     18  H   UNL     1       2.243  11.095  20.711  0.00  0.00    +0.000 HD
ENDROOT
BRANCH  11  19
ATOM     19  C   UNL     1      -0.614  10.517  19.288  0.00  0.00    +0.000 C 
ATOM     20  C   UNL     1      -1.103  10.335  18.051  0.00  0.00    +0.000 C 
BRANCH  20  21
ATOM     21  C   UNL     1      -2.515  10.650  17.835  0.00  0.00    +0.000 A 
ATOM     22  C   UNL     1      -3.153  10.317  16.637  0.00  0.00    +0.000 A 
ATOM     23  C   UNL     1      -4.444  10.776  16.378  0.00  0.00    +0.000 A 
ATOM     24  C   UNL     1      -5.111  11.571  17.313  0.00  0.00    +0.000 A 
ATOM     25  C   UNL     1      -4.485  11.885  18.521  0.00  0.00    +0.000 A 
ATOM     26  C   UNL     1      -3.199  11.428  18.780  0.00  0.00    +0.000 A 
ENDBRANCH  20  21
ENDBRANCH  11  19
TORSDOF 2
ENDMDL
MODEL 2
REMARK VINA RESULT:      -7.1      0.749      1.238
REMARK  Name = 
REMARK  5 active torsions:
REMARK  status: ('A' for Active; 'I' for Inactive)
REMARK    1  A    between atoms: C_1  and  C_2
REMARK    2  A    between atoms: C_8  and  C_9
REMARK    3  A    between atoms: C_8  and  C_10
REMARK    4  A    between atoms: C_11  and  C_12
REMARK    5  A    between atoms: C_13  and  C_14
REMARK                            x       y       z     vdW  Elec       q    Type
REMARK                         _______ _______ _______ _____ _____    ______ ____
ROOT
ATOM      1  C   UNL     1       2.556   4.779  19.936  0.00  0.00    +0.000 C 
ATOM      2  C   UNL     1       2.254   6.193  19.535  0.00  0.00    +0.000 A 
ATOM      3  C   UNL     1       2.678   6.769  18.324  0.00  0.00    +0.000 A 
ATOM      4  C   UNL     1       2.470   8.145  18.050  0.00  0.00    +0.000 A 
ATOM      5  C   UNL     1       1.841   8.943  18.988  0.00  0.00    +0.000 A 
ATOM      6  C   UNL     1       1.376   8.331  20.154  0.00  0.00    +0.000 A 
ATOM      7  C   UNL     1       1.577   6.993  20.449  0.00  0.00    +0.000 A 
ATOM      8  C   UNL     1       0.728   9.339  21.072  0.00  0.00    +0.000 C 
ATOM      9  C   UNL     1      -0.665   8.845  21.494  0.00  0.00    +0.000 C 
ATOM     10  C   UNL     1       1.633   9.470  22.315  0.00  0.00    +0.000 C 
ATOM     11  C   UNL     1       0.731  10.620  20.120  0.00  0.00    +0.000 C 
ATOM     12  N   UNL     1       1.350  11.765  20.745  0.00  0.00    +0.000 N 
ATOM     13  C   UNL     1       1.472  12.883  19.952  0.00  0.00    +0.000 C 
ATOM     14  O   UNL     1       1.070  13.987  20.298  0.00  0.00    +0.000 OA
ATOM     15  C   UNL     1       2.327  12.655  18.733  0.00  0.00    +0.000 C 
ATOM     16  C   UNL     1       2.002  11.327  18.044  0.00  0.00    +0.000 C 
ATOM     17  N   UNL     1       1.606  10.302  18.996  0.00  0.00    +0.000 N 
ATOM     18  H   UNL     1       2.283  11.449  20.965  0.00  0.00    +0.000 HD
ENDROOT
BRANCH  11  19
ATOM     19  C   UNL     1      -0.666  11.026  19.682  0.00  0.00    +0.000 C 
ATOM     20  C   UNL     1      -1.323  10.815  18.530  0.00  0.00    +0.000 C 
BRANCH  20  21
ATOM     21  C   UNL     1      -2.730  11.208  18.478  0.00  0.00    +0.000 A 
ATOM     22  C   UNL     1      -3.262  12.107  19.406  0.00  0.00    +0.000 A 
ATOM     23  C   UNL     1      -4.637  12.339  19.453  0.00  0.00    +0.000 A 
ATOM     24  C   UNL     1      -5.494  11.673  18.573  0.00  0.00    +0.000 A 
ATOM     25  C   UNL     1      -4.963  10.790  17.630  0.00  0.00    +0.000 A 
ATOM     26  C   UNL     1      -3.593  10.561  17.582  0.00  0.00    +0.000 A 
ENDBRANCH  20  21
ENDBRANCH  11  19
TORSDOF 2
ENDMDL
MODEL 3
REMARK VINA RESULT:      -6.9      5.258      8.186
REMARK  Name = 
REMARK  5 active torsions:
REMARK  status: ('A' for Active; 'I' for Inactive)
REMARK    1  A    between atoms: C_1  and  C_2
REMARK    2  A    between atoms: C_8  and  C_9
REMARK    3  A    between atoms: C_8  and  C_10
REMARK    4  A    between atoms: C_11  and  C_12
REMARK    5  A    between atoms: C_13  and  C_14
REMARK                            x       y       z     vdW  Elec       q    Type
REMARK                         _______ _______ _______ _____ _____    ______ ____
ROOT
ATOM      1  C   UNL     1      -1.528  16.588  25.846  0.00  0.00    +0.000 C 
ATOM      2  C   UNL     1      -2.419  16.105  24.740  0.00  0.00    +0.000 A 
ATOM      3  C   UNL     1      -3.127  16.962  23.878  0.00  0.00    +0.000 A 
ATOM      4  C   UNL     1      -4.052  16.453  22.930  0.00  0.00    +0.000 A 
ATOM      5  C   UNL     1      -4.267  15.090  22.846  0.00  0.00    +0.000 A 
ATOM      6  C   UNL     1      -3.504  14.260  23.672  0.00  0.00    +0.000 A 
ATOM      7  C   UNL     1      -2.606  14.733  24.613  0.00  0.00    +0.000 A 
ATOM      8  C   UNL     1      -3.870  12.810  23.465  0.00  0.00    +0.000 C 
ATOM      9  C   UNL     1      -2.601  11.981  23.208  0.00  0.00    +0.000 C 
ATOM     10  C   UNL     1      -4.555  12.325  24.760  0.00  0.00    +0.000 C 
ATOM     11  C   UNL     1      -4.852  12.949  22.215  0.00  0.00    +0.000 C 
ATOM     12  N   UNL     1      -6.131  12.322  22.452  0.00  0.00    +0.000 N 
ATOM     13  C   UNL     1      -7.065  12.478  21.453  0.00  0.00    +0.000 C 
ATOM     14  O   UNL     1      -7.658  11.534  20.948  0.00  0.00    +0.000 OA
ATOM     15  C   UNL     1      -7.431  13.918  21.203  0.00  0.00    +0.000 C 
ATOM     16  C   UNL     1      -6.198  14.827  21.173  0.00  0.00    +0.000 C 
ATOM     17  N   UNL     1      -5.162  14.369  22.084  0.00  0.00    +0.000 N 
ATOM     18  H   UNL     1      -6.486  12.792  23.271  0.00  0.00    +0.000 HD
ENDROOT
BRANCH  11  19
ATOM     19  C   UNL     1      -4.269  12.353  20.945  0.00  0.00    +0.000 C 
ATOM     20  C   UNL     1      -3.288  12.790  20.138  0.00  0.00    +0.000 C 
BRANCH  20  21
ATOM     21  C   UNL     1      -2.854  11.897  19.065  0.00  0.00    +0.000 A 
ATOM     22  C   UNL     1      -3.749  11.461  18.084  0.00  0.00    +0.000 A 
ATOM     23  C   UNL     1      -3.368  10.478  17.171  0.00  0.00    +0.000 A 
ATOM     24  C   UNL     1      -2.089   9.919  17.229  0.00  0.00    +0.000 A 
ATOM     25  C   UNL     1      -1.185  10.370  18.194  0.00  0.00    +0.000 A 
ATOM     26  C   UNL     1      -1.564  11.350  19.102  0.00  0.00    +0.000 A 
ENDBRANCH  20  21
ENDBRANCH  11  19
TORSDOF 2
ENDMDL
MODEL 4
REMARK VINA RESULT:      -6.9      3.076      6.048
REMARK  Name = 
REMARK  5 active torsions:
REMARK  status: ('A' for Active; 'I' for Inactive)
REMARK    1  A    between atoms: C_1  and  C_2
REMARK    2  A    between atoms: C_8  and  C_9
REMARK    3  A    between atoms: C_8  and  C_10
REMARK    4  A    between atoms: C_11  and  C_12
REMARK    5  A    between atoms: C_13  and  C_14
REMARK                            x       y       z     vdW  Elec       q    Type
REMARK                         _______ _______ _______ _____ _____    ______ ____
ROOT
ATOM      1  C   UNL     1       0.080  17.636  22.883  0.00  0.00    +0.000 C 
ATOM      2  C   UNL     1      -0.243  16.180  22.720  0.00  0.00    +0.000 A 
ATOM      3  C   UNL     1      -1.066  15.459  23.604  0.00  0.00    +0.000 A 
ATOM      4  C   UNL     1      -1.238  14.057  23.472  0.00  0.00    +0.000 A 
ATOM      5  C   UNL     1      -0.586  13.378  22.459  0.00  0.00    +0.000 A 
ATOM      6  C   UNL     1       0.175  14.130  21.560  0.00  0.00    +0.000 A 
ATOM      7  C   UNL     1       0.368  15.496  21.674  0.00  0.00    +0.000 A 
ATOM      8  C   UNL     1       0.826  13.239  20.529  0.00  0.00    +0.000 C 
ATOM      9  C   UNL     1       0.530  13.770  19.117  0.00  0.00    +0.000 C 
ATOM     10  C   UNL     1       2.346  13.276  20.791  0.00  0.00    +0.000 C 
ATOM     11  C   UNL     1       0.132  11.848  20.888  0.00  0.00    +0.000 C 
ATOM     12  N   UNL     1       1.096  10.798  21.116  0.00  0.00    +0.000 N 
ATOM     13  C   UNL     1       0.576   9.590  21.520  0.00  0.00    +0.000 C 
ATOM     14  O   UNL     1       0.837   8.535  20.955  0.00  0.00    +0.000 OA
ATOM     15  C   UNL     1      -0.160   9.669  22.832  0.00  0.00    +0.000 C 
ATOM     16  C   UNL     1      -1.073  10.896  22.905  0.00  0.00    +0.000 C 
ATOM     17  N   UNL     1      -0.521  12.030  22.181  0.00  0.00    +0.000 N 
ATOM     18  H   UNL     1       1.665  11.148  21.872  0.00  0.00    +0.000 HD
ENDROOT
BRANCH  11  19
ATOM     19  C   UNL     1      -0.825  11.377  19.806  0.00  0.00    +0.000 C 
ATOM     20  C   UNL     1      -2.094  11.727  19.539  0.00  0.00    +0.000 C 
BRANCH  20  21
ATOM     21  C   UNL     1      -2.695  11.193  18.318  0.00  0.00    +0.000 A 
ATOM     22  C   UNL     1      -1.970  10.359  17.463  0.00  0.00    +0.000 A 
ATOM     23  C   UNL     1      -2.494   9.999  16.221  0.00  0.00    +0.000 A 
ATOM     24  C   UNL     1      -3.747  10.469  15.821  0.00  0.00    +0.000 A 
ATOM     25  C   UNL     1      -4.483  11.284  16.684  0.00  0.00    +0.000 A 
ATOM     26  C   UNL     1      -3.962  11.642  17.921  0.00  0.00    +0.000 A 
ENDBRANCH  20  21
ENDBRANCH  11  19
TORSDOF 2
ENDMDL
MODEL 5
REMARK VINA RESULT:      -6.8      5.610      8.599
REMARK  Name = 
REMARK  5 active torsions:
REMARK  status: ('A' for Active; 'I' for Inactive)
REMARK    1  A    between atoms: C_1  and  C_2
REMARK    2  A    between atoms: C_8  and  C_9
REMARK    3  A    between atoms: C_8  and  C_10
REMARK    4  A    between atoms: C_11  and  C_12
REMARK    5  A    between atoms: C_13  and  C_14
REMARK                            x       y       z     vdW  Elec       q    Type
REMARK                         _______ _______ _______ _____ _____    ______ ____
ROOT
ATOM      1  C   UNL     1       1.030   2.689  20.719  0.00  0.00    +0.000 C 
ATOM      2  C   UNL     1       2.344   3.127  20.142  0.00  0.00    +0.000 A 
ATOM      3  C   UNL     1       3.584   2.580  20.521  0.00  0.00    +0.000 A 
ATOM      4  C   UNL     1       4.804   3.116  20.034  0.00  0.00    +0.000 A 
ATOM      5  C   UNL     1       4.783   4.197  19.172  0.00  0.00    +0.000 A 
ATOM      6  C   UNL     1       3.536   4.679  18.766  0.00  0.00    +0.000 A 
ATOM      7  C   UNL     1       2.332   4.181  19.236  0.00  0.00    +0.000 A 
ATOM      8  C   UNL     1       3.690   5.862  17.841  0.00  0.00    +0.000 C 
ATOM      9  C   UNL     1       2.863   5.640  16.564  0.00  0.00    +0.000 C 
ATOM     10  C   UNL     1       3.162   7.100  18.595  0.00  0.00    +0.000 C 
ATOM     11  C   UNL     1       5.272   5.845  17.633  0.00  0.00    +0.000 C 
ATOM     12  N   UNL     1       5.877   7.122  17.932  0.00  0.00    +0.000 N 
ATOM     13  C   UNL     1       7.251   7.161  17.864  0.00  0.00    +0.000 C 
ATOM     14  O   UNL     1       7.857   7.993  17.201  0.00  0.00    +0.000 OA
ATOM     15  C   UNL     1       7.920   6.229  18.840  0.00  0.00    +0.000 C 
ATOM     16  C   UNL     1       7.248   4.854  18.873  0.00  0.00    +0.000 C 
ATOM     17  N   UNL     1       5.815   4.941  18.642  0.00  0.00    +0.000 N 
ATOM     18  H   UNL     1       5.618   7.297  18.892  0.00  0.00    +0.000 HD
ENDROOT
BRANCH  11  19
ATOM     19  C   UNL     1       5.672   5.459  16.220  0.00  0.00    +0.000 C 
ATOM     20  C   UNL     1       5.927   4.258  15.674  0.00  0.00    +0.000 C 
BRANCH  20  21
ATOM     21  C   UNL     1       6.141   4.210  14.229  0.00  0.00    +0.000 A 
ATOM     22  C   UNL     1       5.348   3.403  13.409  0.00  0.00    +0.000 A 
ATOM     23  C   UNL     1       5.673   3.234  12.063  0.00  0.00    +0.000 A 
ATOM     24  C   UNL     1       6.793   3.871  11.522  0.00  0.00    +0.000 A 
ATOM     25  C   UNL     1       7.573   4.697  12.334  0.00  0.00    +0.000 A 
ATOM     26  C   UNL     1       7.249   4.866  13.674  0.00  0.00    +0.000 A 
ENDBRANCH  20  21
ENDBRANCH  11  19
TORSDOF 2
ENDMDL
MODEL 6
REMARK VINA RESULT:      -6.8      0.988      1.178
REMARK  Name = 
REMARK  5 active torsions:
REMARK  status: ('A' for Active; 'I' for Inactive)
REMARK    1  A    between atoms: C_1  and  C_2
REMARK    2  A    between atoms: C_8  and  C_9
REMARK    3  A    between atoms: C_8  and  C_10
REMARK    4  A    between atoms: C_11  and  C_12
REMARK    5  A    between atoms: C_13  and  C_14
REMARK                            x       y       z     vdW  Elec       q    Type
REMARK                         _______ _______ _______ _____ _____    ______ ____
ROOT
ATOM      1  C   UNL     1       2.938   5.126  19.101  0.00  0.00    +0.000 C 
ATOM      2  C   UNL     1       2.507   6.555  18.947  0.00  0.00    +0.000 A 
ATOM      3  C   UNL     1       2.875   7.368  17.860  0.00  0.00    +0.000 A 
ATOM      4  C   UNL     1       2.543   8.747  17.826  0.00  0.00    +0.000 A 
ATOM      5  C   UNL     1       1.845   9.310  18.879  0.00  0.00    +0.000 A 
ATOM      6  C   UNL     1       1.440   8.465  19.915  0.00  0.00    +0.000 A 
ATOM      7  C   UNL     1       1.762   7.120  19.976  0.00  0.00    +0.000 A 
ATOM      8  C   UNL     1       0.705   9.237  20.984  0.00  0.00    +0.000 C 
ATOM      9  C   UNL     1      -0.637   8.553  21.294  0.00  0.00    +0.000 C 
ATOM     10  C   UNL     1       1.596   9.230  22.243  0.00  0.00    +0.000 C 
ATOM     11  C   UNL     1       0.590  10.658  20.269  0.00  0.00    +0.000 C 
ATOM     12  N   UNL     1       1.103  11.728  21.091  0.00  0.00    +0.000 N 
ATOM     13  C   UNL     1       1.122  12.973  20.506  0.00  0.00    +0.000 C 
ATOM     14  O   UNL     1       0.622  13.959  21.032  0.00  0.00    +0.000 OA
ATOM     15  C   UNL     1       1.992  13.038  19.278  0.00  0.00    +0.000 C 
ATOM     16  C   UNL     1       1.788  11.826  18.365  0.00  0.00    +0.000 C 
ATOM     17  N   UNL     1       1.489  10.620  19.119  0.00  0.00    +0.000 N 
ATOM     18  H   UNL     1       2.061  11.464  21.267  0.00  0.00    +0.000 HD
ENDROOT
BRANCH  11  19
ATOM     19  C   UNL     1      -0.839  11.007  19.888  0.00  0.00    +0.000 C 
ATOM     20  C   UNL     1      -1.449  11.035  18.691  0.00  0.00    +0.000 C 
BRANCH  20  21
ATOM     21  C   UNL     1      -2.892  11.268  18.680  0.00  0.00    +0.000 A 
ATOM     22  C   UNL     1      -3.703  10.724  17.680  0.00  0.00    +0.000 A 
ATOM     23  C   UNL     1      -5.044  11.095  17.583  0.00  0.00    +0.000 A 
ATOM     24  C   UNL     1      -5.589  12.013  18.484  0.00  0.00    +0.000 A 
ATOM     25  C   UNL     1      -4.787  12.540  19.499  0.00  0.00    +0.000 A 
ATOM     26  C   UNL     1      -3.452  12.170  19.597  0.00  0.00    +0.000 A 
ENDBRANCH  20  21
ENDBRANCH  11  19
TORSDOF 2
ENDMDL
MODEL 7
REMARK VINA RESULT:      -6.6      3.272      6.790
REMARK  Name = 
REMARK  5 active torsions:
REMARK  status: ('A' for Active; 'I' for Inactive)
REMARK    1  A    between atoms: C_1  and  C_2
REMARK    2  A    between atoms: C_8  and  C_9
REMARK    3  A    between atoms: C_8  and  C_10
REMARK    4  A    between atoms: C_11  and  C_12
REMARK    5  A    between atoms: C_13  and  C_14
REMARK                            x       y       z     vdW  Elec       q    Type
REMARK                         _______ _______ _______ _____ _____    ______ ____
ROOT
ATOM      1  C   UNL     1      -5.813  13.359  23.752  0.00  0.00    +0.000 C 
ATOM      2  C   UNL     1      -4.944  13.086  22.560  0.00  0.00    +0.000 A 
ATOM      3  C   UNL     1      -5.438  12.936  21.251  0.00  0.00    +0.000 A 
ATOM      4  C   UNL     1      -4.587  12.557  20.181  0.00  0.00    +0.000 A 
ATOM      5  C   UNL     1      -3.244  12.328  20.422  0.00  0.00    +0.000 A 
ATOM      6  C   UNL     1      -2.770  12.545  21.718  0.00  0.00    +0.000 A 
ATOM      7  C   UNL     1      -3.583  12.903  22.781  0.00  0.00    +0.000 A 
ATOM      8  C   UNL     1      -1.295  12.239  21.811  0.00  0.00    +0.000 C 
ATOM      9  C   UNL     1      -0.554  13.421  22.456  0.00  0.00    +0.000 C 
ATOM     10  C   UNL     1      -1.146  10.985  22.699  0.00  0.00    +0.000 C 
ATOM     11  C   UNL     1      -0.966  11.994  20.269  0.00  0.00    +0.000 C 
ATOM     12  N   UNL     1      -0.316  10.725  20.043  0.00  0.00    +0.000 N 
ATOM     13  C   UNL     1      -0.081  10.402  18.726  0.00  0.00    +0.000 C 
ATOM     14  O   UNL     1       1.023  10.072  18.312  0.00  0.00    +0.000 OA
ATOM     15  C   UNL     1      -1.342  10.290  17.910  0.00  0.00    +0.000 C 
ATOM     16  C   UNL     1      -2.317  11.435  18.199  0.00  0.00    +0.000 C 
ATOM     17  N   UNL     1      -2.249  11.872  19.584  0.00  0.00    +0.000 N 
ATOM     18  H   UNL     1      -0.968  10.047  20.408  0.00  0.00    +0.000 HD
ENDROOT
BRANCH  11  19
ATOM     19  C   UNL     1      -0.085  13.082  19.680  0.00  0.00    +0.000 C 
ATOM     20  C   UNL     1      -0.391  14.297  19.196  0.00  0.00    +0.000 C 
BRANCH  20  21
ATOM     21  C   UNL     1       0.721  15.176  18.837  0.00  0.00    +0.000 A 
ATOM     22  C   UNL     1       0.516  16.537  18.596  0.00  0.00    +0.000 A 
ATOM     23  C   UNL     1       1.549  17.325  18.089  0.00  0.00    +0.000 A 
ATOM     24  C   UNL     1       2.798  16.761  17.818  0.00  0.00    +0.000 A 
ATOM     25  C   UNL     1       3.012  15.406  18.080  0.00  0.00    +0.000 A 
ATOM     26  C   UNL     1       1.984  14.621  18.586  0.00  0.00    +0.000 A 
ENDBRANCH  20  21
ENDBRANCH  11  19
TORSDOF 2
ENDMDL
MODEL 8
REMARK VINA RESULT:      -6.6      2.745      5.375
REMARK  Name = 
REMARK  5 active torsions:
REMARK  status: ('A' for Active; 'I' for Inactive)
REMARK    1  A    between atoms: C_1  and  C_2
REMARK    2  A    between atoms: C_8  and  C_9
REMARK    3  A    between atoms: C_8  and  C_10
REMARK    4  A    between atoms: C_11  and  C_12
REMARK    5  A    between atoms: C_13  and  C_14
REMARK                            x       y       z     vdW  Elec       q    Type
REMARK                         _______ _______ _______ _____ _____    ______ ____
ROOT
ATOM      1  C   UNL     1      -1.126  15.873  23.712  0.00  0.00    +0.000 C 
ATOM      2  C   UNL     1      -1.067  14.513  23.081  0.00  0.00    +0.000 A 
ATOM      3  C   UNL     1      -1.534  13.342  23.705  0.00  0.00    +0.000 A 
ATOM      4  C   UNL     1      -1.341  12.066  23.115  0.00  0.00    +0.000 A 
ATOM      5  C   UNL     1      -0.681  11.963  21.903  0.00  0.00    +0.000 A 
ATOM      6  C   UNL     1      -0.285  13.148  21.278  0.00  0.00    +0.000 A 
ATOM      7  C   UNL     1      -0.450  14.403  21.839  0.00  0.00    +0.000 A 
ATOM      8  C   UNL     1       0.428  12.859  19.979  0.00  0.00    +0.000 C 
ATOM      9  C   UNL     1      -0.196  13.688  18.844  0.00  0.00    +0.000 C 
ATOM     10  C   UNL     1       1.904  13.266  20.170  0.00  0.00    +0.000 C 
ATOM     11  C   UNL     1       0.189  11.285  19.877  0.00  0.00    +0.000 C 
ATOM     12  N   UNL     1       1.422  10.555  19.694  0.00  0.00    +0.000 N 
ATOM     13  C   UNL     1       1.307   9.184  19.688  0.00  0.00    +0.000 C 
ATOM     14  O   UNL     1       1.758   8.486  18.789  0.00  0.00    +0.000 OA
ATOM     15  C   UNL     1       0.770   8.628  20.981  0.00  0.00    +0.000 C 
ATOM     16  C   UNL     1      -0.418   9.440  21.505  0.00  0.00    +0.000 C 
ATOM     17  N   UNL     1      -0.298  10.852  21.183  0.00  0.00    +0.000 N 
ATOM     18  H   UNL     1       1.977  10.807  20.497  0.00  0.00    +0.000 HD
ENDROOT
BRANCH  11  19
ATOM     19  C   UNL     1      -0.750  10.909  18.744  0.00  0.00    +0.000 C 
ATOM     20  C   UNL     1      -2.086  10.783  18.713  0.00  0.00    +0.000 C 
BRANCH  20  21
ATOM     21  C   UNL     1      -2.709  10.552  17.410  0.00  0.00    +0.000 A 
ATOM     22  C   UNL     1      -2.085   9.760  16.443  0.00  0.00    +0.000 A 
ATOM     23  C   UNL     1      -2.603   9.690  15.150  0.00  0.00    +0.000 A 
ATOM     24  C   UNL     1      -3.751  10.411  14.810  0.00  0.00    +0.000 A 
ATOM     25  C   UNL     1      -4.389  11.185  15.782  0.00  0.00    +0.000 A 
ATOM     26  C   UNL     1      -3.874  11.254  17.070  0.00  0.00    +0.000 A 
ENDBRANCH  20  21
ENDBRANCH  11  19
TORSDOF 2
ENDMDL
MODEL 9
REMARK VINA RESULT:      -6.3      2.966      6.917
REMARK  Name = 
REMARK  5 active torsions:
REMARK  status: ('A' for Active; 'I' for Inactive)
REMARK    1  A    between atoms: C_1  and  C_2
REMARK    2  A    between atoms: C_8  and  C_9
REMARK    3  A    between atoms: C_8  and  C_10
REMARK    4  A    between atoms: C_11  and  C_12
REMARK    5  A    between atoms: C_13  and  C_14
REMARK                            x       y       z     vdW  Elec       q    Type
REMARK                         _______ _______ _______ _____ _____    ______ ____
ROOT
ATOM      1  C   UNL     1      -7.538  12.836  18.614  0.00  0.00    +0.000 C 
ATOM      2  C   UNL     1      -6.073  12.514  18.638  0.00  0.00    +0.000 A 
ATOM      3  C   UNL     1      -5.448  11.651  17.719  0.00  0.00    +0.000 A 
ATOM      4  C   UNL     1      -4.085  11.285  17.862  0.00  0.00    +0.000 A 
ATOM      5  C   UNL     1      -3.350  11.781  18.924  0.00  0.00    +0.000 A 
ATOM      6  C   UNL     1      -3.980  12.684  19.784  0.00  0.00    +0.000 A 
ATOM      7  C   UNL     1      -5.311  13.046  19.672  0.00  0.00    +0.000 A 
ATOM      8  C   UNL     1      -3.047  13.116  20.890  0.00  0.00    +0.000 C 
ATOM      9  C   UNL     1      -3.017  14.650  20.980  0.00  0.00    +0.000 C 
ATOM     10  C   UNL     1      -3.598  12.528  22.205  0.00  0.00    +0.000 C 
ATOM     11  C   UNL     1      -1.691  12.441  20.386  0.00  0.00    +0.000 C 
ATOM     12  N   UNL     1      -1.084  11.610  21.399  0.00  0.00    +0.000 N 
ATOM     13  C   UNL     1       0.041  10.922  21.009  0.00  0.00    +0.000 C 
ATOM     14  O   UNL     1       1.095  10.968  21.631  0.00  0.00    +0.000 OA
ATOM     15  C   UNL     1      -0.216   9.954  19.883  0.00  0.00    +0.000 C 
ATOM     16  C   UNL     1      -1.089  10.569  18.786  0.00  0.00    +0.000 C 
ATOM     17  N   UNL     1      -2.059  11.509  19.325  0.00  0.00    +0.000 N 
ATOM     18  H   UNL     1      -1.796  10.927  21.615  0.00  0.00    +0.000 HD
ENDROOT
BRANCH  11  19
ATOM     19  C   UNL     1      -0.660  13.463  19.941  0.00  0.00    +0.000 C 
ATOM     20  C   UNL     1      -0.420  14.003  18.735  0.00  0.00    +0.000 C 
BRANCH  20  21
ATOM     21  C   UNL     1       0.559  15.087  18.669  0.00  0.00    +0.000 A 
ATOM     22  C   UNL     1       0.154  16.419  18.547  0.00  0.00    +0.000 A 
ATOM     23  C   UNL     1       1.094  17.422  18.312  0.00  0.00    +0.000 A 
ATOM     24  C   UNL     1       2.450  17.104  18.195  0.00  0.00    +0.000 A 
ATOM     25  C   UNL     1       2.860  15.777  18.340  0.00  0.00    +0.000 A 
ATOM     26  C   UNL     1       1.924  14.778  18.575  0.00  0.00    +0.000 A 
ENDBRANCH  20  21
ENDBRANCH  11  19
TORSDOF 2
ENDMDL
