MODEL 1
REMARK VINA RESULT:      -7.2      0.000      0.000
REMARK  Name = 
REMARK  3 active torsions:
REMARK  status: ('A' for Active; 'I' for Inactive)
REMARK    1  A    between atoms: N_3  and  C_4
REMARK    2  A    between atoms: N_15  and  C_16
REMARK    3  A    between atoms: C_16  and  C_17
REMARK                            x       y       z     vdW  Elec       q    Type
REMARK                         _______ _______ _______ _____ _____    ______ ____
ROOT
ATOM      1  O   UNL     1       2.393   8.204  17.608  0.00  0.00    +0.000 OA
ATOM      2  C   UNL     1       2.112   7.682  18.680  0.00  0.00    +0.000 C 
ATOM      3  N   UNL     1       1.586   8.292  19.828  0.00  0.00    +0.000 N 
ATOM      4  C   UNL     1       1.692   7.411  20.960  0.00  0.00    +0.000 C 
ATOM      5  C   UNL     1       1.605   6.030  20.347  0.00  0.00    +0.000 C 
ATOM      6  C   UNL     1       2.252   6.191  18.958  0.00  0.00    +0.000 C 
ATOM      7  C   UNL     1       1.470   5.437  17.872  0.00  0.00    +0.000 C 
ATOM      8  C   UNL     1       1.633   3.935  18.030  0.00  0.00    +0.000 C 
ATOM      9  C   UNL     1       3.111   3.546  18.070  0.00  0.00    +0.000 C 
ATOM     10  N   UNL     1       3.846   4.273  19.127  0.00  0.00    +0.000 NA
ATOM     11  C   UNL     1       3.723   5.741  18.936  0.00  0.00    +0.000 C 
ENDROOT
BRANCH   3  12
ATOM     12  C   UNL     1       0.940   9.535  19.811  0.00  0.00    +0.000 A 
ATOM     13  C   UNL     1       0.280  10.128  18.686  0.00  0.00    +0.000 A 
ATOM     14  C   UNL     1      -0.366  11.304  18.996  0.00  0.00    +0.000 A 
ATOM     15  S   UNL     1      -0.142  11.739  20.631  0.00  0.00    +0.000 S 
ATOM     16  C   UNL     1       0.795  10.338  20.926  0.00  0.00    +0.000 A 
ENDBRANCH   3  12
BRANCH  10  17
ATOM     17  C   UNL     1       5.281   3.891  19.100  0.00  0.00    +0.000 C 
BRANCH  17  18
ATOM     18  C   UNL     1       6.249   5.016  18.761  0.00  0.00    +0.000 A 
ATOM     19  C   UNL     1       6.243   5.601  17.497  0.00  0.00    +0.000 A 
ATOM     20  C   UNL     1       7.181   6.590  17.205  0.00  0.00    +0.000 A 
ATOM     21  C   UNL     1       8.096   6.971  18.182  0.00  0.00    +0.000 A 
ATOM     22  C   UNL     1       8.025   6.352  19.417  0.00  0.00    +0.000 A 
ATOM     23  N   UNL     1       7.130   5.388  19.728  0.00  0.00    +0.000 NA
ENDBRANCH  17  18
ENDBRANCH  10  17
TORSDOF 3
ENDMDL
MODEL 2
REMARK VINA RESULT:      -7.1      0.710      1.058
REMARK  Name = 
REMARK  3 active torsions:
REMARK  status: ('A' for Active; 'I' for Inactive)
REMARK    1  A    between atoms: N_3  and  C_4
REMARK    2  A    between atoms: N_15  and  C_16
REMARK    3  A    between atoms: C_16  and  C_17
REMARK                            x       y       z     vdW  Elec       q    Type
REMARK                         _______ _______ _______ _____ _____    ______ ____
ROOT
ATOM      1  O   UNL     1       2.392   8.328  17.848  0.00  0.00    +0.000 OA
ATOM      2  C   UNL     1       2.106   7.725  18.876  0.00  0.00    +0.000 C 
ATOM      3  N   UNL     1       1.538   8.238  20.050  0.00  0.00    +0.000 N 
ATOM      4  C   UNL     1       1.648   7.284  21.122  0.00  0.00    +0.000 C 
ATOM      5  C   UNL     1       1.619   5.947  20.414  0.00  0.00    +0.000 C 
ATOM      6  C   UNL     1       2.288   6.223  19.054  0.00  0.00    +0.000 C 
ATOM      7  C   UNL     1       1.553   5.523  17.902  0.00  0.00    +0.000 C 
ATOM      8  C   UNL     1       1.760   4.019  17.960  0.00  0.00    +0.000 C 
ATOM      9  C   UNL     1       3.249   3.673  18.007  0.00  0.00    +0.000 C 
ATOM     10  N   UNL     1       3.939   4.347  19.127  0.00  0.00    +0.000 NA
ATOM     11  C   UNL     1       3.773   5.821  19.035  0.00  0.00    +0.000 C 
ENDROOT
BRANCH   3  12
ATOM     12  C   UNL     1       0.853   9.459  20.104  0.00  0.00    +0.000 A 
ATOM     13  C   UNL     1      -0.147   9.906  19.182  0.00  0.00    +0.000 A 
ATOM     14  C   UNL     1      -0.730  11.099  19.552  0.00  0.00    +0.000 A 
ATOM     15  S   UNL     1      -0.042  11.723  20.984  0.00  0.00    +0.000 S 
ATOM     16  C   UNL     1       1.012  10.382  21.120  0.00  0.00    +0.000 A 
ENDBRANCH   3  12
BRANCH  10  17
ATOM     17  C   UNL     1       5.385   4.012  19.107  0.00  0.00    +0.000 C 
BRANCH  17  18
ATOM     18  C   UNL     1       6.297   5.091  18.538  0.00  0.00    +0.000 A 
ATOM     19  C   UNL     1       7.270   5.691  19.335  0.00  0.00    +0.000 A 
ATOM     20  C   UNL     1       8.049   6.712  18.796  0.00  0.00    +0.000 A 
ATOM     21  C   UNL     1       7.840   7.106  17.478  0.00  0.00    +0.000 A 
ATOM     22  C   UNL     1       6.865   6.449  16.748  0.00  0.00    +0.000 A 
ATOM     23  N   UNL     1       6.092   5.458  17.245  0.00  0.00    +0.000 NA
ENDBRANCH  17  18
ENDBRANCH  10  17
TORSDOF 3
ENDMDL
MODEL 3
REMARK VINA RESULT:      -6.9      3.108      4.113
REMARK  Name = 
REMARK  3 active torsions:
REMARK  status: ('A' for Active; 'I' for Inactive)
REMARK    1  A    between atoms: N_3  and  C_4
REMARK    2  A    between atoms: N_15  and  C_16
REMARK    3  A    between atoms: C_16  and  C_17
REMARK                            x       y       z     vdW  Elec       q    Type
REMARK                         _______ _______ _______ _____ _____    ______ ____
ROOT
ATOM      1  O   UNL     1       2.525   5.396  19.498  0.00  0.00    +0.000 OA
ATOM      2  C   UNL     1       3.093   6.255  18.833  0.00  0.00    +0.000 C 
ATOM      3  N   UNL     1       2.670   7.566  18.571  0.00  0.00    +0.000 N 
ATOM      4  C   UNL     1       3.450   8.143  17.508  0.00  0.00    +0.000 C 
ATOM      5  C   UNL     1       4.793   7.457  17.637  0.00  0.00    +0.000 C 
ATOM      6  C   UNL     1       4.452   6.054  18.174  0.00  0.00    +0.000 C 
ATOM      7  C   UNL     1       5.438   5.602  19.262  0.00  0.00    +0.000 C 
ATOM      8  C   UNL     1       6.801   5.296  18.665  0.00  0.00    +0.000 C 
ATOM      9  C   UNL     1       6.683   4.289  17.520  0.00  0.00    +0.000 C 
ATOM     10  N   UNL     1       5.739   4.744  16.478  0.00  0.00    +0.000 NA
ATOM     11  C   UNL     1       4.395   4.994  17.060  0.00  0.00    +0.000 C 
ENDROOT
BRANCH   3  12
ATOM     12  C   UNL     1       1.708   8.232  19.340  0.00  0.00    +0.000 A 
ATOM     13  C   UNL     1       1.423   7.996  20.724  0.00  0.00    +0.000 A 
ATOM     14  C   UNL     1       0.506   8.883  21.246  0.00  0.00    +0.000 A 
ATOM     15  S   UNL     1      -0.065   9.974  20.064  0.00  0.00    +0.000 S 
ATOM     16  C   UNL     1       0.938   9.277  18.865  0.00  0.00    +0.000 A 
ENDBRANCH   3  12
BRANCH  10  17
ATOM     17  C   UNL     1       5.630   3.718  15.409  0.00  0.00    +0.000 C 
BRANCH  17  18
ATOM     18  C   UNL     1       6.291   4.081  14.087  0.00  0.00    +0.000 A 
ATOM     19  C   UNL     1       5.980   3.384  12.922  0.00  0.00    +0.000 A 
ATOM     20  C   UNL     1       6.645   3.708  11.742  0.00  0.00    +0.000 A 
ATOM     21  C   UNL     1       7.600   4.720  11.753  0.00  0.00    +0.000 A 
ATOM     22  C   UNL     1       7.840   5.375  12.948  0.00  0.00    +0.000 A 
ATOM     23  N   UNL     1       7.214   5.080  14.108  0.00  0.00    +0.000 NA
ENDBRANCH  17  18
ENDBRANCH  10  17
TORSDOF 3
ENDMDL
MODEL 4
REMARK VINA RESULT:      -6.9      0.870      1.139
REMARK  Name = 
REMARK  3 active torsions:
REMARK  status: ('A' for Active; 'I' for Inactive)
REMARK    1  A    between atoms: N_3  and  C_4
REMARK    2  A    between atoms: N_15  and  C_16
REMARK    3  A    between atoms: C_16  and  C_17
REMARK                            x       y       z     vdW  Elec       q    Type
REMARK                         _______ _______ _______ _____ _____    ______ ____
ROOT
ATOM      1  O   UNL     1       2.018   8.057  17.732  0.00  0.00    +0.000 OA
ATOM      2  C   UNL     1       2.050   7.348  18.731  0.00  0.00    +0.000 C 
ATOM      3  N   UNL     1       1.768   7.709  20.057  0.00  0.00    +0.000 N 
ATOM      4  C   UNL     1       2.219   6.687  20.963  0.00  0.00    +0.000 C 
ATOM      5  C   UNL     1       2.103   5.414  20.153  0.00  0.00    +0.000 C 
ATOM      6  C   UNL     1       2.378   5.861  18.704  0.00  0.00    +0.000 C 
ATOM      7  C   UNL     1       1.423   5.189  17.707  0.00  0.00    +0.000 C 
ATOM      8  C   UNL     1       1.745   3.712  17.558  0.00  0.00    +0.000 C 
ATOM      9  C   UNL     1       3.217   3.507  17.195  0.00  0.00    +0.000 C 
ATOM     10  N   UNL     1       4.122   4.151  18.171  0.00  0.00    +0.000 NA
ATOM     11  C   UNL     1       3.833   5.605  18.274  0.00  0.00    +0.000 C 
ENDROOT
BRANCH   3  12
ATOM     12  C   UNL     1       1.035   8.851  20.404  0.00  0.00    +0.000 A 
ATOM     13  C   UNL     1       0.178   8.989  21.543  0.00  0.00    +0.000 A 
ATOM     14  C   UNL     1      -0.321  10.265  21.693  0.00  0.00    +0.000 A 
ATOM     15  S   UNL     1       0.190  11.297  20.434  0.00  0.00    +0.000 S 
ATOM     16  C   UNL     1       1.101  10.044  19.709  0.00  0.00    +0.000 A 
ENDBRANCH   3  12
BRANCH  10  17
ATOM     17  C   UNL     1       5.535   3.958  17.756  0.00  0.00    +0.000 C 
BRANCH  17  18
ATOM     18  C   UNL     1       6.464   5.130  18.039  0.00  0.00    +0.000 A 
ATOM     19  C   UNL     1       6.619   6.155  17.109  0.00  0.00    +0.000 A 
ATOM     20  C   UNL     1       7.519   7.183  17.379  0.00  0.00    +0.000 A 
ATOM     21  C   UNL     1       8.239   7.163  18.570  0.00  0.00    +0.000 A 
ATOM     22  C   UNL     1       8.016   6.118  19.449  0.00  0.00    +0.000 A 
ATOM     23  N   UNL     1       7.152   5.106  19.212  0.00  0.00    +0.000 NA
ENDBRANCH  17  18
ENDBRANCH  10  17
TORSDOF 3
ENDMDL
MODEL 5
REMARK VINA RESULT:      -6.8      3.133      4.306
REMARK  Name = 
REMARK  3 active torsions:
REMARK  status: ('A' for Active; 'I' for Inactive)
REMARK    1  A    between atoms: N_3  and  C_4
REMARK    2  A    between atoms: N_15  and  C_16
REMARK    3  A    between atoms: C_16  and  C_17
REMARK                            x       y       z     vdW  Elec       q    Type
REMARK                         _______ _______ _______ _____ _____    ______ ____
ROOT
ATOM      1  O   UNL     1       2.904   5.223  19.781  0.00  0.00    +0.000 OA
ATOM      2  C   UNL     1       3.330   6.090  19.027  0.00  0.00    +0.000 C 
ATOM      3  N   UNL     1       2.768   7.343  18.744  0.00  0.00    +0.000 N 
ATOM      4  C   UNL     1       3.395   7.926  17.588  0.00  0.00    +0.000 C 
ATOM      5  C   UNL     1       4.801   7.367  17.623  0.00  0.00    +0.000 C 
ATOM      6  C   UNL     1       4.638   5.971  18.254  0.00  0.00    +0.000 C 
ATOM      7  C   UNL     1       5.753   5.666  19.266  0.00  0.00    +0.000 C 
ATOM      8  C   UNL     1       7.080   5.447  18.560  0.00  0.00    +0.000 C 
ATOM      9  C   UNL     1       6.954   4.372  17.479  0.00  0.00    +0.000 C 
ATOM     10  N   UNL     1       5.884   4.687  16.509  0.00  0.00    +0.000 NA
ATOM     11  C   UNL     1       4.579   4.851  17.202  0.00  0.00    +0.000 C 
ENDROOT
BRANCH   3  12
ATOM     12  C   UNL     1       1.821   7.965  19.567  0.00  0.00    +0.000 A 
ATOM     13  C   UNL     1       1.439   7.543  20.882  0.00  0.00    +0.000 A 
ATOM     14  C   UNL     1       0.569   8.416  21.498  0.00  0.00    +0.000 A 
ATOM     15  S   UNL     1       0.158   9.724  20.483  0.00  0.00    +0.000 S 
ATOM     16  C   UNL     1       1.167   9.136  19.233  0.00  0.00    +0.000 A 
ENDBRANCH   3  12
BRANCH  10  17
ATOM     17  C   UNL     1       5.775   3.598  15.504  0.00  0.00    +0.000 C 
BRANCH  17  18
ATOM     18  C   UNL     1       6.367   3.911  14.137  0.00  0.00    +0.000 A 
ATOM     19  C   UNL     1       7.280   4.951  13.979  0.00  0.00    +0.000 A 
ATOM     20  C   UNL     1       7.758   5.243  12.703  0.00  0.00    +0.000 A 
ATOM     21  C   UNL     1       7.317   4.488  11.621  0.00  0.00    +0.000 A 
ATOM     22  C   UNL     1       6.422   3.461  11.864  0.00  0.00    +0.000 A 
ATOM     23  N   UNL     1       5.938   3.157  13.089  0.00  0.00    +0.000 NA
ENDBRANCH  17  18
ENDBRANCH  10  17
TORSDOF 3
ENDMDL
MODEL 6
REMARK VINA RESULT:      -6.8      3.836      7.746
REMARK  Name = 
REMARK  3 active torsions:
REMARK  status: ('A' for Active; 'I' for Inactive)
REMARK    1  A    between atoms: N_3  and  C_4
REMARK    2  A    between atoms: N_15  and  C_16
REMARK    3  A    between atoms: C_16  and  C_17
REMARK                            x       y       z     vdW  Elec       q    Type
REMARK                         _______ _______ _______ _____ _____    ______ ____
ROOT
ATOM      1  O   UNL     1       0.874   8.597  21.409  0.00  0.00    +0.000 OA
ATOM      2  C   UNL     1       1.194   8.846  20.252  0.00  0.00    +0.000 C 
ATOM      3  N   UNL     1       2.038   8.108  19.411  0.00  0.00    +0.000 N 
ATOM      4  C   UNL     1       2.404   8.886  18.257  0.00  0.00    +0.000 C 
ATOM      5  C   UNL     1       1.213   9.796  18.047  0.00  0.00    +0.000 C 
ATOM      6  C   UNL     1       0.669  10.042  19.468  0.00  0.00    +0.000 C 
ATOM      7  C   UNL     1      -0.865   9.992  19.509  0.00  0.00    +0.000 C 
ATOM      8  C   UNL     1      -1.466  11.205  18.819  0.00  0.00    +0.000 C 
ATOM      9  C   UNL     1      -0.902  12.501  19.401  0.00  0.00    +0.000 C 
ATOM     10  N   UNL     1       0.575  12.536  19.343  0.00  0.00    +0.000 NA
ATOM     11  C   UNL     1       1.156  11.374  20.063  0.00  0.00    +0.000 C 
ENDROOT
BRANCH   3  12
ATOM     12  C   UNL     1       2.357   6.762  19.629  0.00  0.00    +0.000 A 
ATOM     13  C   UNL     1       1.676   5.867  20.516  0.00  0.00    +0.000 A 
ATOM     14  C   UNL     1       2.139   4.571  20.437  0.00  0.00    +0.000 A 
ATOM     15  S   UNL     1       3.435   4.427  19.336  0.00  0.00    +0.000 S 
ATOM     16  C   UNL     1       3.354   6.091  18.946  0.00  0.00    +0.000 A 
ENDBRANCH   3  12
BRANCH  10  17
ATOM     17  C   UNL     1       1.076  13.795  19.954  0.00  0.00    +0.000 C 
BRANCH  17  18
ATOM     18  C   UNL     1       1.796  14.740  19.002  0.00  0.00    +0.000 A 
ATOM     19  C   UNL     1       2.905  14.309  18.277  0.00  0.00    +0.000 A 
ATOM     20  C   UNL     1       3.572  15.217  17.458  0.00  0.00    +0.000 A 
ATOM     21  C   UNL     1       3.114  16.528  17.380  0.00  0.00    +0.000 A 
ATOM     22  C   UNL     1       1.996  16.873  18.118  0.00  0.00    +0.000 A 
ATOM     23  N   UNL     1       1.331  16.015  18.924  0.00  0.00    +0.000 NA
ENDBRANCH  17  18
ENDBRANCH  10  17
TORSDOF 3
ENDMDL
MODEL 7
REMARK VINA RESULT:      -6.7      1.227      1.590
REMARK  Name = 
REMARK  3 active torsions:
REMARK  status: ('A' for Active; 'I' for Inactive)
REMARK    1  A    between atoms: N_3  and  C_4
REMARK    2  A    between atoms: N_15  and  C_16
REMARK    3  A    between atoms: C_16  and  C_17
REMARK                            x       y       z     vdW  Elec       q    Type
REMARK                         _______ _______ _______ _____ _____    ______ ____
ROOT
ATOM      1  O   UNL     1       2.146   8.340  17.471  0.00  0.00    +0.000 OA
ATOM      2  C   UNL     1       2.006   7.832  18.577  0.00  0.00    +0.000 C 
ATOM      3  N   UNL     1       1.578   8.447  19.763  0.00  0.00    +0.000 N 
ATOM      4  C   UNL     1       1.845   7.598  20.894  0.00  0.00    +0.000 C 
ATOM      5  C   UNL     1       1.757   6.200  20.321  0.00  0.00    +0.000 C 
ATOM      6  C   UNL     1       2.243   6.356  18.867  0.00  0.00    +0.000 C 
ATOM      7  C   UNL     1       1.384   5.543  17.887  0.00  0.00    +0.000 C 
ATOM      8  C   UNL     1       1.632   4.053  18.055  0.00  0.00    +0.000 C 
ATOM      9  C   UNL     1       3.123   3.730  17.942  0.00  0.00    +0.000 C 
ATOM     10  N   UNL     1       3.932   4.513  18.899  0.00  0.00    +0.000 NA
ATOM     11  C   UNL     1       3.722   5.970  18.695  0.00  0.00    +0.000 C 
ENDROOT
BRANCH   3  12
ATOM     12  C   UNL     1       0.878   9.659  19.792  0.00  0.00    +0.000 A 
ATOM     13  C   UNL     1      -0.107  10.087  18.844  0.00  0.00    +0.000 A 
ATOM     14  C   UNL     1      -0.712  11.276  19.193  0.00  0.00    +0.000 A 
ATOM     15  S   UNL     1      -0.063  11.919  20.634  0.00  0.00    +0.000 S 
ATOM     16  C   UNL     1       1.004  10.592  20.804  0.00  0.00    +0.000 A 
ENDBRANCH   3  12
BRANCH  10  17
ATOM     17  C   UNL     1       5.372   4.194  18.725  0.00  0.00    +0.000 C 
BRANCH  17  18
ATOM     18  C   UNL     1       5.934   4.452  17.333  0.00  0.00    +0.000 A 
ATOM     19  C   UNL     1       5.524   3.682  16.247  0.00  0.00    +0.000 A 
ATOM     20  C   UNL     1       6.101   3.911  15.000  0.00  0.00    +0.000 A 
ATOM     21  C   UNL     1       7.067   4.903  14.868  0.00  0.00    +0.000 A 
ATOM     22  C   UNL     1       7.408   5.635  15.992  0.00  0.00    +0.000 A 
ATOM     23  N   UNL     1       6.869   5.433  17.215  0.00  0.00    +0.000 NA
ENDBRANCH  17  18
ENDBRANCH  10  17
TORSDOF 3
ENDMDL
MODEL 8
REMARK VINA RESULT:      -6.6      1.200      1.705
REMARK  Name = 
REMARK  3 active torsions:
REMARK  status: ('A' for Active; 'I' for Inactive)
REMARK    1  A    between atoms: N_3  and  C_4
REMARK    2  A    between atoms: N_15  and  C_16
REMARK    3  A    between atoms: C_16  and  C_17
REMARK                            x       y       z     vdW  Elec       q    Type
REMARK                         _______ _______ _______ _____ _____    ______ ____
ROOT
ATOM      1  O   UNL     1       2.206   8.492  17.383  0.00  0.00    +0.000 OA
ATOM      2  C   UNL     1       2.017   8.017  18.496  0.00  0.00    +0.000 C 
ATOM      3  N   UNL     1       1.531   8.664  19.641  0.00  0.00    +0.000 N 
ATOM      4  C   UNL     1       1.750   7.852  20.809  0.00  0.00    +0.000 C 
ATOM      5  C   UNL     1       1.696   6.436  20.276  0.00  0.00    +0.000 C 
ATOM      6  C   UNL     1       2.249   6.551  18.842  0.00  0.00    +0.000 C 
ATOM      7  C   UNL     1       1.441   5.703  17.848  0.00  0.00    +0.000 C 
ATOM      8  C   UNL     1       1.689   4.221  18.073  0.00  0.00    +0.000 C 
ATOM      9  C   UNL     1       3.185   3.905  18.040  0.00  0.00    +0.000 C 
ATOM     10  N   UNL     1       3.944   4.722  19.009  0.00  0.00    +0.000 NA
ATOM     11  C   UNL     1       3.736   6.171  18.751  0.00  0.00    +0.000 C 
ENDROOT
BRANCH   3  12
ATOM     12  C   UNL     1       0.824   9.872  19.601  0.00  0.00    +0.000 A 
ATOM     13  C   UNL     1      -0.283  10.172  18.743  0.00  0.00    +0.000 A 
ATOM     14  C   UNL     1      -0.854  11.399  19.007  0.00  0.00    +0.000 A 
ATOM     15  S   UNL     1      -0.030  12.227  20.251  0.00  0.00    +0.000 S 
ATOM     16  C   UNL     1       1.069  10.931  20.454  0.00  0.00    +0.000 A 
ENDBRANCH   3  12
BRANCH  10  17
ATOM     17  C   UNL     1       5.393   4.407  18.912  0.00  0.00    +0.000 C 
BRANCH  17  18
ATOM     18  C   UNL     1       6.002   4.560  17.525  0.00  0.00    +0.000 A 
ATOM     19  C   UNL     1       6.942   5.554  17.267  0.00  0.00    +0.000 A 
ATOM     20  C   UNL     1       7.436   5.698  15.973  0.00  0.00    +0.000 A 
ATOM     21  C   UNL     1       6.984   4.845  14.971  0.00  0.00    +0.000 A 
ATOM     22  C   UNL     1       6.061   3.872  15.312  0.00  0.00    +0.000 A 
ATOM     23  N   UNL     1       5.561   3.711  16.557  0.00  0.00    +0.000 NA
ENDBRANCH  17  18
ENDBRANCH  10  17
TORSDOF 3
ENDMDL
MODEL 9
REMARK VINA RESULT:      -6.6      3.646      7.497
REMARK  Name = 
REMARK  3 active torsions:
REMARK  status: ('A' for Active; 'I' for Inactive)
REMARK    1  A    between atoms: N_3  and  C_4
REMARK    2  A    between atoms: N_15  and  C_16
REMARK    3  A    between atoms: C_16  and  C_17
REMARK                            x       y       z     vdW  Elec       q    Type
REMARK                         _______ _______ _______ _____ _____    ______ ____
ROOT
ATOM      1  O   UNL     1       1.385   7.960  21.077  0.00  0.00    +0.000 OA
ATOM      2  C   UNL     1       1.549   8.355  19.929  0.00  0.00    +0.000 C 
ATOM      3  N   UNL     1       2.251   7.727  18.890  0.00  0.00    +0.000 N 
ATOM      4  C   UNL     1       2.475   8.646  17.805  0.00  0.00    +0.000 C 
ATOM      5  C   UNL     1       1.290   9.584  17.882  0.00  0.00    +0.000 C 
ATOM      6  C   UNL     1       0.953   9.647  19.384  0.00  0.00    +0.000 C 
ATOM      7  C   UNL     1      -0.562   9.604  19.633  0.00  0.00    +0.000 C 
ATOM      8  C   UNL     1      -1.221  10.901  19.195  0.00  0.00    +0.000 C 
ATOM      9  C   UNL     1      -0.549  12.106  19.853  0.00  0.00    +0.000 C 
ATOM     10  N   UNL     1       0.906  12.137  19.595  0.00  0.00    +0.000 NA
ATOM     11  C   UNL     1       1.551  10.886  20.072  0.00  0.00    +0.000 C 
ENDROOT
BRANCH   3  12
ATOM     12  C   UNL     1       2.562   6.361  18.887  0.00  0.00    +0.000 A 
ATOM     13  C   UNL     1       1.924   5.352  18.096  0.00  0.00    +0.000 A 
ATOM     14  C   UNL     1       2.518   4.114  18.216  0.00  0.00    +0.000 A 
ATOM     15  S   UNL     1       3.816   4.139  19.323  0.00  0.00    +0.000 S 
ATOM     16  C   UNL     1       3.598   5.811  19.617  0.00  0.00    +0.000 A 
ENDBRANCH   3  12
BRANCH  10  17
ATOM     17  C   UNL     1       1.519  13.301  20.285  0.00  0.00    +0.000 C 
BRANCH  17  18
ATOM     18  C   UNL     1       2.135  14.351  19.372  0.00  0.00    +0.000 A 
ATOM     19  C   UNL     1       1.484  15.561  19.138  0.00  0.00    +0.000 A 
ATOM     20  C   UNL     1       2.051  16.474  18.253  0.00  0.00    +0.000 A 
ATOM     21  C   UNL     1       3.254  16.161  17.628  0.00  0.00    +0.000 A 
ATOM     22  C   UNL     1       3.846  14.946  17.926  0.00  0.00    +0.000 A 
ATOM     23  N   UNL     1       3.317  14.038  18.776  0.00  0.00    +0.000 NA
ENDBRANCH  17  18
ENDBRANCH  10  17
TORSDOF 3
ENDMDL
