MODEL 1
REMARK VINA RESULT:      -8.5      0.000      0.000
REMARK  Name = 
REMARK  4 active torsions:
REMARK  status: ('A' for Active; 'I' for Inactive)
REMARK    1  A    between atoms: C_1  and  N_2
REMARK    2  A    between atoms: C_6  and  C_7
REMARK    3  A    between atoms: C_7  and  C_8
REMARK    4  A    between atoms: N_17  and  C_18
REMARK                            x       y       z     vdW  Elec       q    Type
REMARK                         _______ _______ _______ _____ _____    ______ ____
ROOT
ATOM      1  C   UNL     1      -2.551  13.491  19.886  0.00  0.00    +0.000 C 
ATOM      2  N   UNL     1      -1.658  12.472  20.390  0.00  0.00    +0.000 N 
ATOM      3  N   UNL     1      -1.685  12.240  21.721  0.00  0.00    +0.000 NA
ATOM      4  C   UNL     1      -0.884  11.191  21.865  0.00  0.00    +0.000 A 
ATOM      5  C   UNL     1      -0.312  10.757  20.647  0.00  0.00    +0.000 A 
ATOM      6  C   UNL     1      -0.810  11.627  19.690  0.00  0.00    +0.000 A 
ATOM      7  C   UNL     1       0.514   9.559  20.573  0.00  0.00    +0.000 A 
ATOM      8  N   UNL     1       1.212   9.271  19.453  0.00  0.00    +0.000 NA
ATOM      9  C   UNL     1       1.881   8.103  19.453  0.00  0.00    +0.000 A 
ATOM     10  N   UNL     1       2.529   7.697  18.271  0.00  0.00    +0.000 N 
ATOM     11  N   UNL     1       1.954   7.287  20.522  0.00  0.00    +0.000 NA
ATOM     12  C   UNL     1       1.274   7.621  21.625  0.00  0.00    +0.000 A 
ATOM     13  C   UNL     1       0.510   8.752  21.712  0.00  0.00    +0.000 A 
ATOM     14  C   UNL     1      -0.366   9.020  22.914  0.00  0.00    +0.000 C 
ATOM     15  C   UNL     1      -0.635  10.513  23.159  0.00  0.00    +0.000 C 
ATOM     16  H   UNL     1       3.205   8.404  18.032  0.00  0.00    +0.000 HD
ENDROOT
BRANCH  10  17
ATOM     17  C   UNL     1       2.835   6.358  17.904  0.00  0.00    +0.000 A 
ATOM     18  C   UNL     1       1.796   5.402  17.909  0.00  0.00    +0.000 A 
ATOM     19  C   UNL     1       2.001   4.079  17.531  0.00  0.00    +0.000 A 
ATOM     20  C   UNL     1       3.259   3.677  17.106  0.00  0.00    +0.000 A 
ATOM     21  C   UNL     1       4.312   4.600  17.053  0.00  0.00    +0.000 A 
ATOM     22  C   UNL     1       5.574   4.197  16.609  0.00  0.00    +0.000 A 
ATOM     23  N   UNL     1       6.652   5.007  16.517  0.00  0.00    +0.000 NA
ATOM     24  C   UNL     1       6.461   6.286  16.887  0.00  0.00    +0.000 A 
ATOM     25  C   UNL     1       5.251   6.798  17.343  0.00  0.00    +0.000 A 
ATOM     26  C   UNL     1       4.124   5.954  17.440  0.00  0.00    +0.000 A 
ENDBRANCH  10  17
BRANCH   6  27
ATOM     27  C   UNL     1      -0.639  11.671  18.205  0.00  0.00    +0.000 C 
BRANCH  27  28
ATOM     28  C   UNL     1      -1.746  11.011  17.408  0.00  0.00    +0.000 A 
ATOM     29  C   UNL     1      -2.327   9.819  17.866  0.00  0.00    +0.000 A 
ATOM     30  C   UNL     1      -3.422   9.255  17.204  0.00  0.00    +0.000 A 
ATOM     31  C   UNL     1      -3.946   9.871  16.070  0.00  0.00    +0.000 A 
ATOM     32  C   UNL     1      -3.367  11.040  15.588  0.00  0.00    +0.000 A 
ATOM     33  C   UNL     1      -2.275  11.605  16.253  0.00  0.00    +0.000 A 
ENDBRANCH  27  28
ENDBRANCH   6  27
TORSDOF 3
ENDMDL
MODEL 2
REMARK VINA RESULT:      -7.9      1.885      3.109
REMARK  Name = 
REMARK  4 active torsions:
REMARK  status: ('A' for Active; 'I' for Inactive)
REMARK    1  A    between atoms: C_1  and  N_2
REMARK    2  A    between atoms: C_6  and  C_7
REMARK    3  A    between atoms: C_7  and  C_8
REMARK    4  A    between atoms: N_17  and  C_18
REMARK                            x       y       z     vdW  Elec       q    Type
REMARK                         _______ _______ _______ _____ _____    ______ ____
ROOT
ATOM      1  C   UNL     1      -1.633  14.056  20.143  0.00  0.00    +0.000 C 
ATOM      2  N   UNL     1      -1.003  12.850  20.630  0.00  0.00    +0.000 N 
ATOM      3  N   UNL     1      -1.311  12.465  21.888  0.00  0.00    +0.000 NA
ATOM      4  C   UNL     1      -0.708  11.289  22.005  0.00  0.00    +0.000 A 
ATOM      5  C   UNL     1       0.014  10.917  20.848  0.00  0.00    +0.000 A 
ATOM      6  C   UNL     1      -0.168  11.967  19.962  0.00  0.00    +0.000 A 
ATOM      7  C   UNL     1       0.661   9.616  20.734  0.00  0.00    +0.000 A 
ATOM      8  N   UNL     1       1.507   9.354  19.715  0.00  0.00    +0.000 NA
ATOM      9  C   UNL     1       1.993   8.100  19.651  0.00  0.00    +0.000 A 
ATOM     10  N   UNL     1       2.785   7.739  18.545  0.00  0.00    +0.000 N 
ATOM     11  N   UNL     1       1.748   7.160  20.584  0.00  0.00    +0.000 NA
ATOM     12  C   UNL     1       0.929   7.465  21.597  0.00  0.00    +0.000 A 
ATOM     13  C   UNL     1       0.330   8.689  21.724  0.00  0.00    +0.000 A 
ATOM     14  C   UNL     1      -0.708   8.950  22.791  0.00  0.00    +0.000 C 
ATOM     15  C   UNL     1      -0.803  10.427  23.207  0.00  0.00    +0.000 C 
ATOM     16  H   UNL     1       3.588   8.347  18.530  0.00  0.00    +0.000 HD
ENDROOT
BRANCH  10  17
ATOM     17  C   UNL     1       2.962   6.422  18.040  0.00  0.00    +0.000 A 
ATOM     18  C   UNL     1       1.867   5.533  18.076  0.00  0.00    +0.000 A 
ATOM     19  C   UNL     1       1.942   4.238  17.570  0.00  0.00    +0.000 A 
ATOM     20  C   UNL     1       3.121   3.803  16.983  0.00  0.00    +0.000 A 
ATOM     21  C   UNL     1       4.223   4.663  16.895  0.00  0.00    +0.000 A 
ATOM     22  C   UNL     1       5.404   4.227  16.288  0.00  0.00    +0.000 A 
ATOM     23  N   UNL     1       6.519   4.977  16.149  0.00  0.00    +0.000 NA
ATOM     24  C   UNL     1       6.453   6.227  16.641  0.00  0.00    +0.000 A 
ATOM     25  C   UNL     1       5.333   6.767  17.263  0.00  0.00    +0.000 A 
ATOM     26  C   UNL     1       4.167   5.985  17.410  0.00  0.00    +0.000 A 
ENDBRANCH  10  17
BRANCH   6  27
ATOM     27  C   UNL     1       0.281  12.162  18.549  0.00  0.00    +0.000 C 
BRANCH  27  28
ATOM     28  C   UNL     1       1.440  13.122  18.367  0.00  0.00    +0.000 A 
ATOM     29  C   UNL     1       1.243  14.501  18.536  0.00  0.00    +0.000 A 
ATOM     30  C   UNL     1       2.320  15.390  18.480  0.00  0.00    +0.000 A 
ATOM     31  C   UNL     1       3.608  14.914  18.246  0.00  0.00    +0.000 A 
ATOM     32  C   UNL     1       3.818  13.553  18.053  0.00  0.00    +0.000 A 
ATOM     33  C   UNL     1       2.741  12.664  18.112  0.00  0.00    +0.000 A 
ENDBRANCH  27  28
ENDBRANCH   6  27
TORSDOF 3
ENDMDL
MODEL 3
REMARK VINA RESULT:      -7.3      1.814      8.908
REMARK  Name = 
REMARK  4 active torsions:
REMARK  status: ('A' for Active; 'I' for Inactive)
REMARK    1  A    between atoms: C_1  and  N_2
REMARK    2  A    between atoms: C_6  and  C_7
REMARK    3  A    between atoms: C_7  and  C_8
REMARK    4  A    between atoms: N_17  and  C_18
REMARK                            x       y       z     vdW  Elec       q    Type
REMARK                         _______ _______ _______ _____ _____    ______ ____
ROOT
ATOM      1  C   UNL     1       6.894   4.048  15.400  0.00  0.00    +0.000 C 
ATOM      2  N   UNL     1       5.667   4.039  16.164  0.00  0.00    +0.000 N 
ATOM      3  N   UNL     1       5.180   2.832  16.525  0.00  0.00    +0.000 NA
ATOM      4  C   UNL     1       4.154   3.137  17.308  0.00  0.00    +0.000 A 
ATOM      5  C   UNL     1       3.947   4.530  17.436  0.00  0.00    +0.000 A 
ATOM      6  C   UNL     1       4.935   5.109  16.656  0.00  0.00    +0.000 A 
ATOM      7  C   UNL     1       2.935   5.075  18.332  0.00  0.00    +0.000 A 
ATOM      8  N   UNL     1       2.616   6.387  18.296  0.00  0.00    +0.000 NA
ATOM      9  C   UNL     1       1.729   6.810  19.216  0.00  0.00    +0.000 A 
ATOM     10  N   UNL     1       1.449   8.187  19.299  0.00  0.00    +0.000 N 
ATOM     11  N   UNL     1       1.102   5.986  20.078  0.00  0.00    +0.000 NA
ATOM     12  C   UNL     1       1.421   4.687  20.065  0.00  0.00    +0.000 A 
ATOM     13  C   UNL     1       2.356   4.161  19.215  0.00  0.00    +0.000 A 
ATOM     14  C   UNL     1       2.804   2.723  19.331  0.00  0.00    +0.000 C 
ATOM     15  C   UNL     1       3.321   2.131  18.010  0.00  0.00    +0.000 C 
ATOM     16  H   UNL     1       1.084   8.481  18.408  0.00  0.00    +0.000 HD
ENDROOT
BRANCH  10  17
ATOM     17  C   UNL     1       0.976   8.874  20.450  0.00  0.00    +0.000 A 
ATOM     18  C   UNL     1       1.540   8.557  21.705  0.00  0.00    +0.000 A 
ATOM     19  C   UNL     1       1.161   9.206  22.876  0.00  0.00    +0.000 A 
ATOM     20  C   UNL     1       0.216  10.220  22.820  0.00  0.00    +0.000 A 
ATOM     21  C   UNL     1      -0.346  10.591  21.591  0.00  0.00    +0.000 A 
ATOM     22  C   UNL     1      -1.285  11.624  21.535  0.00  0.00    +0.000 A 
ATOM     23  N   UNL     1      -1.882  12.059  20.404  0.00  0.00    +0.000 NA
ATOM     24  C   UNL     1      -1.523  11.432  19.269  0.00  0.00    +0.000 A 
ATOM     25  C   UNL     1      -0.600  10.394  19.206  0.00  0.00    +0.000 A 
ATOM     26  C   UNL     1       0.024   9.937  20.386  0.00  0.00    +0.000 A 
ENDBRANCH  10  17
BRANCH   6  27
ATOM     27  C   UNL     1       5.298   6.540  16.418  0.00  0.00    +0.000 C 
BRANCH  27  28
ATOM     28  C   UNL     1       6.416   7.077  17.291  0.00  0.00    +0.000 A 
ATOM     29  C   UNL     1       7.048   6.234  18.219  0.00  0.00    +0.000 A 
ATOM     30  C   UNL     1       8.151   6.679  18.953  0.00  0.00    +0.000 A 
ATOM     31  C   UNL     1       8.633   7.974  18.776  0.00  0.00    +0.000 A 
ATOM     32  C   UNL     1       8.003   8.829  17.878  0.00  0.00    +0.000 A 
ATOM     33  C   UNL     1       6.903   8.383  17.142  0.00  0.00    +0.000 A 
ENDBRANCH  27  28
ENDBRANCH   6  27
TORSDOF 3
ENDMDL
MODEL 4
REMARK VINA RESULT:      -7.1      3.624      9.874
REMARK  Name = 
REMARK  4 active torsions:
REMARK  status: ('A' for Active; 'I' for Inactive)
REMARK    1  A    between atoms: C_1  and  N_2
REMARK    2  A    between atoms: C_6  and  C_7
REMARK    3  A    between atoms: C_7  and  C_8
REMARK    4  A    between atoms: N_17  and  C_18
REMARK                            x       y       z     vdW  Elec       q    Type
REMARK                         _______ _______ _______ _____ _____    ______ ____
ROOT
ATOM      1  C   UNL     1       1.538   9.259  17.767  0.00  0.00    +0.000 C 
ATOM      2  N   UNL     1       1.249  10.515  18.421  0.00  0.00    +0.000 N 
ATOM      3  N   UNL     1       2.222  11.451  18.404  0.00  0.00    +0.000 NA
ATOM      4  C   UNL     1       1.636  12.512  18.945  0.00  0.00    +0.000 A 
ATOM      5  C   UNL     1       0.301  12.267  19.342  0.00  0.00    +0.000 A 
ATOM      6  C   UNL     1       0.070  10.941  19.015  0.00  0.00    +0.000 A 
ATOM      7  C   UNL     1      -0.549  13.330  19.863  0.00  0.00    +0.000 A 
ATOM      8  N   UNL     1      -1.746  13.044  20.420  0.00  0.00    +0.000 NA
ATOM      9  C   UNL     1      -2.493  14.098  20.799  0.00  0.00    +0.000 A 
ATOM     10  N   UNL     1      -3.796  13.863  21.278  0.00  0.00    +0.000 N 
ATOM     11  N   UNL     1      -2.068  15.374  20.731  0.00  0.00    +0.000 NA
ATOM     12  C   UNL     1      -0.864  15.617  20.201  0.00  0.00    +0.000 A 
ATOM     13  C   UNL     1      -0.049  14.626  19.725  0.00  0.00    +0.000 A 
ATOM     14  C   UNL     1       1.234  14.945  18.994  0.00  0.00    +0.000 C 
ATOM     15  C   UNL     1       2.291  13.834  19.091  0.00  0.00    +0.000 C 
ATOM     16  H   UNL     1      -3.724  13.269  22.088  0.00  0.00    +0.000 HD
ENDROOT
BRANCH  10  17
ATOM     17  C   UNL     1      -4.875  14.787  21.247  0.00  0.00    +0.000 A 
ATOM     18  C   UNL     1      -5.712  14.811  20.110  0.00  0.00    +0.000 A 
ATOM     19  C   UNL     1      -6.811  15.659  20.012  0.00  0.00    +0.000 A 
ATOM     20  C   UNL     1      -7.123  16.497  21.072  0.00  0.00    +0.000 A 
ATOM     21  C   UNL     1      -6.340  16.484  22.234  0.00  0.00    +0.000 A 
ATOM     22  C   UNL     1      -6.666  17.317  23.307  0.00  0.00    +0.000 A 
ATOM     23  N   UNL     1      -5.980  17.378  24.470  0.00  0.00    +0.000 NA
ATOM     24  C   UNL     1      -4.914  16.564  24.568  0.00  0.00    +0.000 A 
ATOM     25  C   UNL     1      -4.497  15.694  23.566  0.00  0.00    +0.000 A 
ATOM     26  C   UNL     1      -5.211  15.629  22.351  0.00  0.00    +0.000 A 
ENDBRANCH  10  17
BRANCH   6  27
ATOM     27  C   UNL     1      -1.157  10.093  19.121  0.00  0.00    +0.000 C 
BRANCH  27  28
ATOM     28  C   UNL     1      -2.158  10.263  17.996  0.00  0.00    +0.000 A 
ATOM     29  C   UNL     1      -3.321  11.021  18.200  0.00  0.00    +0.000 A 
ATOM     30  C   UNL     1      -4.201  11.281  17.145  0.00  0.00    +0.000 A 
ATOM     31  C   UNL     1      -3.934  10.779  15.873  0.00  0.00    +0.000 A 
ATOM     32  C   UNL     1      -2.799  10.005  15.659  0.00  0.00    +0.000 A 
ATOM     33  C   UNL     1      -1.918   9.749  16.714  0.00  0.00    +0.000 A 
ENDBRANCH  27  28
ENDBRANCH   6  27
TORSDOF 3
ENDMDL
MODEL 5
REMARK VINA RESULT:      -7.1      9.713     12.403
REMARK  Name = 
REMARK  4 active torsions:
REMARK  status: ('A' for Active; 'I' for Inactive)
REMARK    1  A    between atoms: C_1  and  N_2
REMARK    2  A    between atoms: C_6  and  C_7
REMARK    3  A    between atoms: C_7  and  C_8
REMARK    4  A    between atoms: N_17  and  C_18
REMARK                            x       y       z     vdW  Elec       q    Type
REMARK                         _______ _______ _______ _____ _____    ______ ____
ROOT
ATOM      1  C   UNL     1      10.817  16.804  16.931  0.00  0.00    +0.000 C 
ATOM      2  N   UNL     1      10.425  15.570  17.573  0.00  0.00    +0.000 N 
ATOM      3  N   UNL     1      10.961  14.430  17.086  0.00  0.00    +0.000 NA
ATOM      4  C   UNL     1      10.536  13.504  17.936  0.00  0.00    +0.000 A 
ATOM      5  C   UNL     1       9.703  14.023  18.953  0.00  0.00    +0.000 A 
ATOM      6  C   UNL     1       9.618  15.380  18.685  0.00  0.00    +0.000 A 
ATOM      7  C   UNL     1       9.216  13.189  20.044  0.00  0.00    +0.000 A 
ATOM      8  N   UNL     1       8.268  13.645  20.891  0.00  0.00    +0.000 NA
ATOM      9  C   UNL     1       7.940  12.833  21.913  0.00  0.00    +0.000 A 
ATOM     10  N   UNL     1       7.045  13.306  22.890  0.00  0.00    +0.000 N 
ATOM     11  N   UNL     1       8.438  11.590  22.063  0.00  0.00    +0.000 NA
ATOM     12  C   UNL     1       9.353  11.159  21.187  0.00  0.00    +0.000 A 
ATOM     13  C   UNL     1       9.804  11.927  20.149  0.00  0.00    +0.000 A 
ATOM     14  C   UNL     1      10.947  11.471  19.272  0.00  0.00    +0.000 C 
ATOM     15  C   UNL     1      10.917  12.073  17.858  0.00  0.00    +0.000 C 
ATOM     16  H   UNL     1       6.178  13.533  22.430  0.00  0.00    +0.000 HD
ENDROOT
BRANCH  10  17
ATOM     17  C   UNL     1       6.963  12.854  24.235  0.00  0.00    +0.000 A 
ATOM     18  C   UNL     1       6.205  11.697  24.515  0.00  0.00    +0.000 A 
ATOM     19  C   UNL     1       6.100  11.167  25.797  0.00  0.00    +0.000 A 
ATOM     20  C   UNL     1       6.782  11.772  26.843  0.00  0.00    +0.000 A 
ATOM     21  C   UNL     1       7.574  12.903  26.607  0.00  0.00    +0.000 A 
ATOM     22  C   UNL     1       8.273  13.501  27.659  0.00  0.00    +0.000 A 
ATOM     23  N   UNL     1       9.064  14.589  27.537  0.00  0.00    +0.000 NA
ATOM     24  C   UNL     1       9.164  15.108  26.300  0.00  0.00    +0.000 A 
ATOM     25  C   UNL     1       8.516  14.598  25.181  0.00  0.00    +0.000 A 
ATOM     26  C   UNL     1       7.688  13.462  25.306  0.00  0.00    +0.000 A 
ENDBRANCH  10  17
BRANCH   6  27
ATOM     27  C   UNL     1       8.943  16.495  19.418  0.00  0.00    +0.000 C 
BRANCH  27  28
ATOM     28  C   UNL     1       9.539  16.833  20.770  0.00  0.00    +0.000 A 
ATOM     29  C   UNL     1       8.702  17.211  21.831  0.00  0.00    +0.000 A 
ATOM     30  C   UNL     1       9.221  17.420  23.112  0.00  0.00    +0.000 A 
ATOM     31  C   UNL     1      10.585  17.262  23.349  0.00  0.00    +0.000 A 
ATOM     32  C   UNL     1      11.431  16.911  22.303  0.00  0.00    +0.000 A 
ATOM     33  C   UNL     1      10.911  16.699  21.023  0.00  0.00    +0.000 A 
ENDBRANCH  27  28
ENDBRANCH   6  27
TORSDOF 3
ENDMDL
MODEL 6
REMARK VINA RESULT:      -7.1      4.284      8.804
REMARK  Name = 
REMARK  4 active torsions:
REMARK  status: ('A' for Active; 'I' for Inactive)
REMARK    1  A    between atoms: C_1  and  N_2
REMARK    2  A    between atoms: C_6  and  C_7
REMARK    3  A    between atoms: C_7  and  C_8
REMARK    4  A    between atoms: N_17  and  C_18
REMARK                            x       y       z     vdW  Elec       q    Type
REMARK                         _______ _______ _______ _____ _____    ______ ____
ROOT
ATOM      1  C   UNL     1       3.429  15.010  18.940  0.00  0.00    +0.000 C 
ATOM      2  N   UNL     1       2.527  13.923  18.634  0.00  0.00    +0.000 N 
ATOM      3  N   UNL     1       3.085  12.717  18.386  0.00  0.00    +0.000 NA
ATOM      4  C   UNL     1       2.036  11.912  18.275  0.00  0.00    +0.000 A 
ATOM      5  C   UNL     1       0.800  12.585  18.417  0.00  0.00    +0.000 A 
ATOM      6  C   UNL     1       1.140  13.912  18.626  0.00  0.00    +0.000 A 
ATOM      7  C   UNL     1      -0.466  11.865  18.431  0.00  0.00    +0.000 A 
ATOM      8  N   UNL     1      -1.639  12.532  18.367  0.00  0.00    +0.000 NA
ATOM      9  C   UNL     1      -2.755  11.786  18.466  0.00  0.00    +0.000 A 
ATOM     10  N   UNL     1      -4.001  12.439  18.524  0.00  0.00    +0.000 N 
ATOM     11  N   UNL     1      -2.747  10.440  18.531  0.00  0.00    +0.000 NA
ATOM     12  C   UNL     1      -1.566   9.811  18.561  0.00  0.00    +0.000 A 
ATOM     13  C   UNL     1      -0.371  10.476  18.530  0.00  0.00    +0.000 A 
ATOM     14  C   UNL     1       0.940   9.747  18.721  0.00  0.00    +0.000 C 
ATOM     15  C   UNL     1       2.136  10.449  18.059  0.00  0.00    +0.000 C 
ATOM     16  H   UNL     1      -4.104  12.980  17.680  0.00  0.00    +0.000 HD
ENDROOT
BRANCH  10  17
ATOM     17  C   UNL     1      -5.188  11.923  19.110  0.00  0.00    +0.000 A 
ATOM     18  C   UNL     1      -5.905  10.925  18.416  0.00  0.00    +0.000 A 
ATOM     19  C   UNL     1      -7.057  10.340  18.934  0.00  0.00    +0.000 A 
ATOM     20  C   UNL     1      -7.513  10.723  20.186  0.00  0.00    +0.000 A 
ATOM     21  C   UNL     1      -6.815  11.686  20.926  0.00  0.00    +0.000 A 
ATOM     22  C   UNL     1      -7.266  12.059  22.195  0.00  0.00    +0.000 A 
ATOM     23  N   UNL     1      -6.665  12.972  22.988  0.00  0.00    +0.000 NA
ATOM     24  C   UNL     1      -5.554  13.544  22.490  0.00  0.00    +0.000 A 
ATOM     25  C   UNL     1      -5.013  13.252  21.243  0.00  0.00    +0.000 A 
ATOM     26  C   UNL     1      -5.640  12.298  20.412  0.00  0.00    +0.000 A 
ENDBRANCH  10  17
BRANCH   6  27
ATOM     27  C   UNL     1       0.302  15.118  18.908  0.00  0.00    +0.000 C 
BRANCH  27  28
ATOM     28  C   UNL     1      -0.331  15.157  20.285  0.00  0.00    +0.000 A 
ATOM     29  C   UNL     1      -1.609  15.711  20.454  0.00  0.00    +0.000 A 
ATOM     30  C   UNL     1      -2.254  15.657  21.693  0.00  0.00    +0.000 A 
ATOM     31  C   UNL     1      -1.627  15.056  22.782  0.00  0.00    +0.000 A 
ATOM     32  C   UNL     1      -0.350  14.524  22.637  0.00  0.00    +0.000 A 
ATOM     33  C   UNL     1       0.292  14.575  21.397  0.00  0.00    +0.000 A 
ENDBRANCH  27  28
ENDBRANCH   6  27
TORSDOF 3
ENDMDL
MODEL 7
REMARK VINA RESULT:      -7.1      4.655      9.355
REMARK  Name = 
REMARK  4 active torsions:
REMARK  status: ('A' for Active; 'I' for Inactive)
REMARK    1  A    between atoms: C_1  and  N_2
REMARK    2  A    between atoms: C_6  and  C_7
REMARK    3  A    between atoms: C_7  and  C_8
REMARK    4  A    between atoms: N_17  and  C_18
REMARK                            x       y       z     vdW  Elec       q    Type
REMARK                         _______ _______ _______ _____ _____    ______ ____
ROOT
ATOM      1  C   UNL     1      -4.154  10.481  15.092  0.00  0.00    +0.000 C 
ATOM      2  N   UNL     1      -3.405  10.571  16.325  0.00  0.00    +0.000 N 
ATOM      3  N   UNL     1      -2.191   9.979  16.347  0.00  0.00    +0.000 NA
ATOM      4  C   UNL     1      -1.699  10.335  17.527  0.00  0.00    +0.000 A 
ATOM      5  C   UNL     1      -2.592  11.125  18.287  0.00  0.00    +0.000 A 
ATOM      6  C   UNL     1      -3.721  11.249  17.493  0.00  0.00    +0.000 A 
ATOM      7  C   UNL     1      -2.204  11.703  19.567  0.00  0.00    +0.000 A 
ATOM      8  N   UNL     1      -3.123  12.284  20.368  0.00  0.00    +0.000 NA
ATOM      9  C   UNL     1      -2.655  12.860  21.492  0.00  0.00    +0.000 A 
ATOM     10  N   UNL     1      -3.551  13.580  22.304  0.00  0.00    +0.000 N 
ATOM     11  N   UNL     1      -1.366  12.798  21.877  0.00  0.00    +0.000 NA
ATOM     12  C   UNL     1      -0.489  12.188  21.073  0.00  0.00    +0.000 A 
ATOM     13  C   UNL     1      -0.845  11.626  19.877  0.00  0.00    +0.000 A 
ATOM     14  C   UNL     1       0.193  11.082  18.923  0.00  0.00    +0.000 C 
ATOM     15  C   UNL     1      -0.340   9.976  17.999  0.00  0.00    +0.000 C 
ATOM     16  H   UNL     1      -4.277  12.947  22.599  0.00  0.00    +0.000 HD
ENDROOT
BRANCH  10  17
ATOM     17  C   UNL     1      -3.208  14.631  23.197  0.00  0.00    +0.000 A 
ATOM     18  C   UNL     1      -3.088  14.337  24.572  0.00  0.00    +0.000 A 
ATOM     19  C   UNL     1      -2.722  15.299  25.509  0.00  0.00    +0.000 A 
ATOM     20  C   UNL     1      -2.436  16.589  25.088  0.00  0.00    +0.000 A 
ATOM     21  C   UNL     1      -2.509  16.918  23.728  0.00  0.00    +0.000 A 
ATOM     22  C   UNL     1      -2.204  18.214  23.304  0.00  0.00    +0.000 A 
ATOM     23  N   UNL     1      -2.240  18.631  22.019  0.00  0.00    +0.000 NA
ATOM     24  C   UNL     1      -2.599  17.707  21.110  0.00  0.00    +0.000 A 
ATOM     25  C   UNL     1      -2.923  16.390  21.416  0.00  0.00    +0.000 A 
ATOM     26  C   UNL     1      -2.886  15.952  22.757  0.00  0.00    +0.000 A 
ENDBRANCH  10  17
BRANCH   6  27
ATOM     27  C   UNL     1      -4.994  12.008  17.691  0.00  0.00    +0.000 C 
BRANCH  27  28
ATOM     28  C   UNL     1      -5.973  11.385  18.666  0.00  0.00    +0.000 A 
ATOM     29  C   UNL     1      -6.279  10.018  18.577  0.00  0.00    +0.000 A 
ATOM     30  C   UNL     1      -7.092   9.403  19.533  0.00  0.00    +0.000 A 
ATOM     31  C   UNL     1      -7.618  10.147  20.586  0.00  0.00    +0.000 A 
ATOM     32  C   UNL     1      -7.344  11.508  20.676  0.00  0.00    +0.000 A 
ATOM     33  C   UNL     1      -6.528  12.121  19.723  0.00  0.00    +0.000 A 
ENDBRANCH  27  28
ENDBRANCH   6  27
TORSDOF 3
ENDMDL
MODEL 8
REMARK VINA RESULT:      -7.0      3.916      9.565
REMARK  Name = 
REMARK  4 active torsions:
REMARK  status: ('A' for Active; 'I' for Inactive)
REMARK    1  A    between atoms: C_1  and  N_2
REMARK    2  A    between atoms: C_6  and  C_7
REMARK    3  A    between atoms: C_7  and  C_8
REMARK    4  A    between atoms: N_17  and  C_18
REMARK                            x       y       z     vdW  Elec       q    Type
REMARK                         _______ _______ _______ _____ _____    ______ ____
ROOT
ATOM      1  C   UNL     1       1.944  10.184  17.821  0.00  0.00    +0.000 C 
ATOM      2  N   UNL     1       1.534  11.277  18.673  0.00  0.00    +0.000 N 
ATOM      3  N   UNL     1       2.370  12.334  18.757  0.00  0.00    +0.000 NA
ATOM      4  C   UNL     1       1.685  13.210  19.480  0.00  0.00    +0.000 A 
ATOM      5  C   UNL     1       0.424  12.724  19.895  0.00  0.00    +0.000 A 
ATOM      6  C   UNL     1       0.351  11.440  19.378  0.00  0.00    +0.000 A 
ATOM      7  C   UNL     1      -0.525  13.567  20.611  0.00  0.00    +0.000 A 
ATOM      8  N   UNL     1      -1.633  13.036  21.171  0.00  0.00    +0.000 NA
ATOM      9  C   UNL     1      -2.488  13.906  21.741  0.00  0.00    +0.000 A 
ATOM     10  N   UNL     1      -3.713  13.422  22.235  0.00  0.00    +0.000 N 
ATOM     11  N   UNL     1      -2.242  15.226  21.851  0.00  0.00    +0.000 NA
ATOM     12  C   UNL     1      -1.118  15.712  21.311  0.00  0.00    +0.000 A 
ATOM     13  C   UNL     1      -0.212  14.927  20.652  0.00  0.00    +0.000 A 
ATOM     14  C   UNL     1       0.967  15.529  19.922  0.00  0.00    +0.000 C 
ATOM     15  C   UNL     1       2.166  14.576  19.799  0.00  0.00    +0.000 C 
ATOM     16  H   UNL     1      -3.510  12.732  22.940  0.00  0.00    +0.000 HD
ENDROOT
BRANCH  10  17
ATOM     17  C   UNL     1      -4.906  14.178  22.396  0.00  0.00    +0.000 A 
ATOM     18  C   UNL     1      -5.126  14.840  23.623  0.00  0.00    +0.000 A 
ATOM     19  C   UNL     1      -6.249  15.629  23.852  0.00  0.00    +0.000 A 
ATOM     20  C   UNL     1      -7.180  15.802  22.838  0.00  0.00    +0.000 A 
ATOM     21  C   UNL     1      -6.986  15.192  21.592  0.00  0.00    +0.000 A 
ATOM     22  C   UNL     1      -7.916  15.381  20.567  0.00  0.00    +0.000 A 
ATOM     23  N   UNL     1      -7.820  14.841  19.332  0.00  0.00    +0.000 NA
ATOM     24  C   UNL     1      -6.740  14.073  19.107  0.00  0.00    +0.000 A 
ATOM     25  C   UNL     1      -5.751  13.816  20.050  0.00  0.00    +0.000 A 
ATOM     26  C   UNL     1      -5.849  14.378  21.341  0.00  0.00    +0.000 A 
ENDBRANCH  10  17
BRANCH   6  27
ATOM     27  C   UNL     1      -0.743  10.420  19.407  0.00  0.00    +0.000 C 
BRANCH  27  28
ATOM     28  C   UNL     1      -1.814  10.592  18.348  0.00  0.00    +0.000 A 
ATOM     29  C   UNL     1      -1.719   9.895  17.134  0.00  0.00    +0.000 A 
ATOM     30  C   UNL     1      -2.750   9.954  16.192  0.00  0.00    +0.000 A 
ATOM     31  C   UNL     1      -3.887  10.718  16.447  0.00  0.00    +0.000 A 
ATOM     32  C   UNL     1      -3.987  11.434  17.635  0.00  0.00    +0.000 A 
ATOM     33  C   UNL     1      -2.957  11.371  18.578  0.00  0.00    +0.000 A 
ENDBRANCH  27  28
ENDBRANCH   6  27
TORSDOF 3
ENDMDL
MODEL 9
REMARK VINA RESULT:      -7.0      2.845      4.222
REMARK  Name = 
REMARK  4 active torsions:
REMARK  status: ('A' for Active; 'I' for Inactive)
REMARK    1  A    between atoms: C_1  and  N_2
REMARK    2  A    between atoms: C_6  and  C_7
REMARK    3  A    between atoms: C_7  and  C_8
REMARK    4  A    between atoms: N_17  and  C_18
REMARK                            x       y       z     vdW  Elec       q    Type
REMARK                         _______ _______ _______ _____ _____    ______ ____
ROOT
ATOM      1  C   UNL     1      -0.399  15.644  19.667  0.00  0.00    +0.000 C 
ATOM      2  N   UNL     1      -0.300  14.438  20.458  0.00  0.00    +0.000 N 
ATOM      3  N   UNL     1      -1.024  14.394  21.597  0.00  0.00    +0.000 NA
ATOM      4  C   UNL     1      -0.844  13.151  22.026  0.00  0.00    +0.000 A 
ATOM      5  C   UNL     1       0.015  12.395  21.196  0.00  0.00    +0.000 A 
ATOM      6  C   UNL     1       0.386  13.265  20.183  0.00  0.00    +0.000 A 
ATOM      7  C   UNL     1       0.261  10.979  21.435  0.00  0.00    +0.000 A 
ATOM      8  N   UNL     1       1.230  10.324  20.760  0.00  0.00    +0.000 NA
ATOM      9  C   UNL     1       1.328   9.001  20.991  0.00  0.00    +0.000 A 
ATOM     10  N   UNL     1       2.241   8.248  20.230  0.00  0.00    +0.000 N 
ATOM     11  N   UNL     1       0.584   8.350  21.907  0.00  0.00    +0.000 NA
ATOM     12  C   UNL     1      -0.346   9.038  22.579  0.00  0.00    +0.000 A 
ATOM     13  C   UNL     1      -0.573  10.372  22.375  0.00  0.00    +0.000 A 
ATOM     14  C   UNL     1      -1.731  11.083  23.037  0.00  0.00    +0.000 C 
ATOM     15  C   UNL     1      -1.498  12.589  23.232  0.00  0.00    +0.000 C 
ATOM     16  H   UNL     1       3.161   8.626  20.391  0.00  0.00    +0.000 HD
ENDROOT
BRANCH  10  17
ATOM     17  C   UNL     1       2.152   6.857  19.956  0.00  0.00    +0.000 A 
ATOM     18  C   UNL     1       1.261   6.074  20.721  0.00  0.00    +0.000 A 
ATOM     19  C   UNL     1       1.086   4.711  20.496  0.00  0.00    +0.000 A 
ATOM     20  C   UNL     1       1.785   4.094  19.470  0.00  0.00    +0.000 A 
ATOM     21  C   UNL     1       2.656   4.838  18.664  0.00  0.00    +0.000 A 
ATOM     22  C   UNL     1       3.347   4.217  17.620  0.00  0.00    +0.000 A 
ATOM     23  N   UNL     1       4.204   4.844  16.785  0.00  0.00    +0.000 NA
ATOM     24  C   UNL     1       4.381   6.159  17.001  0.00  0.00    +0.000 A 
ATOM     25  C   UNL     1       3.747   6.881  18.007  0.00  0.00    +0.000 A 
ATOM     26  C   UNL     1       2.852   6.228  18.881  0.00  0.00    +0.000 A 
ENDBRANCH  10  17
BRANCH   6  27
ATOM     27  C   UNL     1       1.227  13.065  18.962  0.00  0.00    +0.000 C 
BRANCH  27  28
ATOM     28  C   UNL     1       2.519  13.857  18.930  0.00  0.00    +0.000 A 
ATOM     29  C   UNL     1       2.934  14.476  17.741  0.00  0.00    +0.000 A 
ATOM     30  C   UNL     1       4.062  15.300  17.720  0.00  0.00    +0.000 A 
ATOM     31  C   UNL     1       4.796  15.511  18.885  0.00  0.00    +0.000 A 
ATOM     32  C   UNL     1       4.413  14.886  20.066  0.00  0.00    +0.000 A 
ATOM     33  C   UNL     1       3.282  14.065  20.088  0.00  0.00    +0.000 A 
ENDBRANCH  27  28
ENDBRANCH   6  27
TORSDOF 3
ENDMDL
