MODEL 1
REMARK VINA RESULT:      -7.4      0.000      0.000
REMARK  Name = 
REMARK  16 active torsions:
REMARK  status: ('A' for Active; 'I' for Inactive)
REMARK    1  A    between atoms: C_1  and  C_2
REMARK    2  A    between atoms: C_2  and  N_3
REMARK    3  A    between atoms: N_3  and  C_4
REMARK    4  A    between atoms: N_3  and  C_6
REMARK    5  A    between atoms: C_4  and  C_5
REMARK    6  A    between atoms: C_6  and  C_7
REMARK    7  A    between atoms: C_7  and  C_8
REMARK    8  A    between atoms: C_8  and  N_9
REMARK    9  A    between atoms: N_9  and  C_10
REMARK   10  A    between atoms: C_12  and  C_13
REMARK   11  A    between atoms: C_14  and  C_15
REMARK   12  A    between atoms: C_18  and  O_19
REMARK   13  A    between atoms: O_19  and  C_20
REMARK   14  A    between atoms: C_21  and  O_22
REMARK   15  A    between atoms: O_22  and  C_23
REMARK   16  A    between atoms: C_26  and  C_27
REMARK                            x       y       z     vdW  Elec       q    Type
REMARK                         _______ _______ _______ _____ _____    ______ ____
ROOT
ATOM      1  C   UNL     1       5.464   5.644  16.809  0.00  0.00    +0.000 A 
ATOM      2  O   UNL     1       5.885   6.585  17.709  0.00  0.00    +0.000 OA
ATOM      3  C   UNL     1       7.174   6.938  17.319  0.00  0.00    +0.000 A 
ATOM      4  N   UNL     1       7.542   6.306  16.210  0.00  0.00    +0.000 NA
ATOM      5  C   UNL     1       6.483   5.489  15.901  0.00  0.00    +0.000 A 
ENDROOT
BRANCH   1   6
ATOM      6  N   UNL     1       4.260   5.047  16.981  0.00  0.00    +0.000 N 
ATOM      7  H   UNL     1       3.432   5.616  17.153  0.00  0.00    +0.000 HD
BRANCH   6   8
ATOM      8  C   UNL     1       4.114   3.672  17.431  0.00  0.00    +0.000 C 
BRANCH   8   9
ATOM      9  C   UNL     1       4.527   3.507  18.897  0.00  0.00    +0.000 C 
BRANCH   9  10
ATOM     10  C   UNL     1       3.617   4.195  19.935  0.00  0.00    +0.000 C 
BRANCH  10  11
ATOM     11  N   UNL     1       2.379   4.815  19.420  0.00  0.00    +0.000 NA
BRANCH  11  13
ATOM     12  C   UNL     1       1.348   3.111  20.978  0.00  0.00    +0.000 C 
ATOM     13  C   UNL     1       1.178   4.039  19.778  0.00  0.00    +0.000 C 
ENDBRANCH  11  13
BRANCH  11  14
ATOM     14  C   UNL     1       2.293   6.238  19.815  0.00  0.00    +0.000 C 
ATOM     15  C   UNL     1       2.505   7.274  18.710  0.00  0.00    +0.000 C 
ENDBRANCH  11  14
ENDBRANCH  10  11
ENDBRANCH   9  10
ENDBRANCH   8   9
ENDBRANCH   6   8
ENDBRANCH   1   6
BRANCH   3  16
ATOM     16  C   UNL     1       8.009   7.861  18.022  0.00  0.00    +0.000 C 
ATOM     17  C   UNL     1       8.003   9.176  17.752  0.00  0.00    +0.000 C 
BRANCH  17  18
ATOM     18  C   UNL     1       8.833  10.201  18.423  0.00  0.00    +0.000 A 
ATOM     19  C   UNL     1       9.272  10.103  19.743  0.00  0.00    +0.000 A 
ATOM     20  C   UNL     1      10.025  11.135  20.315  0.00  0.00    +0.000 A 
ATOM     21  C   UNL     1      10.345  12.296  19.596  0.00  0.00    +0.000 A 
ATOM     22  C   UNL     1       9.889  12.425  18.274  0.00  0.00    +0.000 A 
ATOM     23  C   UNL     1       9.144  11.372  17.707  0.00  0.00    +0.000 A 
BRANCH  21  24
ATOM     24  O   UNL     1      11.090  13.177  20.336  0.00  0.00    +0.000 OA
ATOM     25  C   UNL     1      10.442  14.263  20.985  0.00  0.00    +0.000 C 
ENDBRANCH  21  24
BRANCH  22  26
ATOM     26  O   UNL     1      10.182  13.578  17.597  0.00  0.00    +0.000 OA
ATOM     27  C   UNL     1      11.422  13.673  16.913  0.00  0.00    +0.000 C 
ENDBRANCH  22  26
ENDBRANCH  17  18
ENDBRANCH   3  16
BRANCH   5  28
ATOM     28  C   UNL     1       6.493   4.639  14.761  0.00  0.00    +0.000 C 
ATOM     29  N   UNL     1       6.513   3.912  13.852  0.00  0.00    +0.000 NA
ENDBRANCH   5  28
TORSDOF 12
ENDMDL
MODEL 2
REMARK VINA RESULT:      -7.1      1.109      1.263
REMARK  Name = 
REMARK  16 active torsions:
REMARK  status: ('A' for Active; 'I' for Inactive)
REMARK    1  A    between atoms: C_1  and  C_2
REMARK    2  A    between atoms: C_2  and  N_3
REMARK    3  A    between atoms: N_3  and  C_4
REMARK    4  A    between atoms: N_3  and  C_6
REMARK    5  A    between atoms: C_4  and  C_5
REMARK    6  A    between atoms: C_6  and  C_7
REMARK    7  A    between atoms: C_7  and  C_8
REMARK    8  A    between atoms: C_8  and  N_9
REMARK    9  A    between atoms: N_9  and  C_10
REMARK   10  A    between atoms: C_12  and  C_13
REMARK   11  A    between atoms: C_14  and  C_15
REMARK   12  A    between atoms: C_18  and  O_19
REMARK   13  A    between atoms: O_19  and  C_20
REMARK   14  A    between atoms: C_21  and  O_22
REMARK   15  A    between atoms: O_22  and  C_23
REMARK   16  A    between atoms: C_26  and  C_27
REMARK                            x       y       z     vdW  Elec       q    Type
REMARK                         _______ _______ _______ _____ _____    ______ ____
ROOT
ATOM      1  C   UNL     1       6.095   4.848  17.355  0.00  0.00    +0.000 A 
ATOM      2  O   UNL     1       6.495   5.776  18.276  0.00  0.00    +0.000 OA
ATOM      3  C   UNL     1       7.396   6.607  17.617  0.00  0.00    +0.000 A 
ATOM      4  N   UNL     1       7.529   6.271  16.339  0.00  0.00    +0.000 NA
ATOM      5  C   UNL     1       6.730   5.166  16.179  0.00  0.00    +0.000 A 
ENDROOT
BRANCH   1   6
ATOM      6  N   UNL     1       5.268   3.844  17.733  0.00  0.00    +0.000 N 
ATOM      7  H   UNL     1       5.578   3.165  18.427  0.00  0.00    +0.000 HD
BRANCH   6   8
ATOM      8  C   UNL     1       4.182   3.354  16.898  0.00  0.00    +0.000 C 
BRANCH   8   9
ATOM      9  C   UNL     1       2.811   3.672  17.502  0.00  0.00    +0.000 C 
BRANCH   9  10
ATOM     10  C   UNL     1       2.823   4.511  18.796  0.00  0.00    +0.000 C 
BRANCH  10  11
ATOM     11  N   UNL     1       1.573   4.529  19.583  0.00  0.00    +0.000 NA
BRANCH  11  13
ATOM     12  C   UNL     1       1.448   2.770  21.396  0.00  0.00    +0.000 C 
ATOM     13  C   UNL     1       1.132   3.173  19.957  0.00  0.00    +0.000 C 
ENDBRANCH  11  13
BRANCH  11  14
ATOM     14  C   UNL     1       1.684   5.446  20.739  0.00  0.00    +0.000 C 
ATOM     15  C   UNL     1       1.897   6.928  20.425  0.00  0.00    +0.000 C 
ENDBRANCH  11  14
ENDBRANCH  10  11
ENDBRANCH   9  10
ENDBRANCH   8   9
ENDBRANCH   6   8
ENDBRANCH   1   6
BRANCH   3  16
ATOM     16  C   UNL     1       8.100   7.689  18.231  0.00  0.00    +0.000 C 
ATOM     17  C   UNL     1       7.988   8.953  17.795  0.00  0.00    +0.000 C 
BRANCH  17  18
ATOM     18  C   UNL     1       8.679  10.131  18.364  0.00  0.00    +0.000 A 
ATOM     19  C   UNL     1       9.474  10.085  19.510  0.00  0.00    +0.000 A 
ATOM     20  C   UNL     1      10.066  11.254  20.005  0.00  0.00    +0.000 A 
ATOM     21  C   UNL     1       9.869  12.496  19.385  0.00  0.00    +0.000 A 
ATOM     22  C   UNL     1       9.051  12.566  18.245  0.00  0.00    +0.000 A 
ATOM     23  C   UNL     1       8.473  11.380  17.750  0.00  0.00    +0.000 A 
BRANCH  21  24
ATOM     24  O   UNL     1      10.539  13.508  20.024  0.00  0.00    +0.000 OA
ATOM     25  C   UNL     1      11.830  13.884  19.565  0.00  0.00    +0.000 C 
ENDBRANCH  21  24
BRANCH  22  26
ATOM     26  O   UNL     1       8.843  13.791  17.671  0.00  0.00    +0.000 OA
ATOM     27  C   UNL     1       7.787  14.604  18.162  0.00  0.00    +0.000 C 
ENDBRANCH  22  26
ENDBRANCH  17  18
ENDBRANCH   3  16
BRANCH   5  28
ATOM     28  C   UNL     1       6.602   4.502  14.928  0.00  0.00    +0.000 C 
ATOM     29  N   UNL     1       6.467   3.986  13.893  0.00  0.00    +0.000 NA
ENDBRANCH   5  28
TORSDOF 12
ENDMDL
MODEL 3
REMARK VINA RESULT:      -7.1      1.320      2.153
REMARK  Name = 
REMARK  16 active torsions:
REMARK  status: ('A' for Active; 'I' for Inactive)
REMARK    1  A    between atoms: C_1  and  C_2
REMARK    2  A    between atoms: C_2  and  N_3
REMARK    3  A    between atoms: N_3  and  C_4
REMARK    4  A    between atoms: N_3  and  C_6
REMARK    5  A    between atoms: C_4  and  C_5
REMARK    6  A    between atoms: C_6  and  C_7
REMARK    7  A    between atoms: C_7  and  C_8
REMARK    8  A    between atoms: C_8  and  N_9
REMARK    9  A    between atoms: N_9  and  C_10
REMARK   10  A    between atoms: C_12  and  C_13
REMARK   11  A    between atoms: C_14  and  C_15
REMARK   12  A    between atoms: C_18  and  O_19
REMARK   13  A    between atoms: O_19  and  C_20
REMARK   14  A    between atoms: C_21  and  O_22
REMARK   15  A    between atoms: O_22  and  C_23
REMARK   16  A    between atoms: C_26  and  C_27
REMARK                            x       y       z     vdW  Elec       q    Type
REMARK                         _______ _______ _______ _____ _____    ______ ____
ROOT
ATOM      1  C   UNL     1       6.724   5.190  17.815  0.00  0.00    +0.000 A 
ATOM      2  O   UNL     1       7.043   6.362  18.444  0.00  0.00    +0.000 OA
ATOM      3  C   UNL     1       7.391   7.257  17.435  0.00  0.00    +0.000 A 
ATOM      4  N   UNL     1       7.254   6.716  16.230  0.00  0.00    +0.000 NA
ATOM      5  C   UNL     1       6.852   5.424  16.467  0.00  0.00    +0.000 A 
ENDROOT
BRANCH   1   6
ATOM      6  N   UNL     1       6.419   4.097  18.554  0.00  0.00    +0.000 N 
ATOM      7  H   UNL     1       6.786   3.184  18.285  0.00  0.00    +0.000 HD
BRANCH   6   8
ATOM      8  C   UNL     1       5.235   4.014  19.394  0.00  0.00    +0.000 C 
BRANCH   8   9
ATOM      9  C   UNL     1       4.204   3.033  18.828  0.00  0.00    +0.000 C 
BRANCH   9  10
ATOM     10  C   UNL     1       3.371   3.545  17.635  0.00  0.00    +0.000 C 
BRANCH  10  11
ATOM     11  N   UNL     1       2.015   4.044  17.943  0.00  0.00    +0.000 NA
BRANCH  11  13
ATOM     12  C   UNL     1       0.817   3.157  19.986  0.00  0.00    +0.000 C 
ATOM     13  C   UNL     1       1.149   2.992  18.505  0.00  0.00    +0.000 C 
ENDBRANCH  11  13
BRANCH  11  14
ATOM     14  C   UNL     1       2.074   5.260  18.784  0.00  0.00    +0.000 C 
ATOM     15  C   UNL     1       2.573   6.540  18.110  0.00  0.00    +0.000 C 
ENDBRANCH  11  14
ENDBRANCH  10  11
ENDBRANCH   9  10
ENDBRANCH   8   9
ENDBRANCH   6   8
ENDBRANCH   1   6
BRANCH   3  16
ATOM     16  C   UNL     1       7.844   8.594  17.658  0.00  0.00    +0.000 C 
ATOM     17  C   UNL     1       8.729   8.896  18.621  0.00  0.00    +0.000 C 
BRANCH  17  18
ATOM     18  C   UNL     1       9.250  10.247  18.926  0.00  0.00    +0.000 A 
ATOM     19  C   UNL     1       9.816  11.094  17.973  0.00  0.00    +0.000 A 
ATOM     20  C   UNL     1      10.318  12.345  18.351  0.00  0.00    +0.000 A 
ATOM     21  C   UNL     1      10.286  12.777  19.685  0.00  0.00    +0.000 A 
ATOM     22  C   UNL     1       9.742  11.928  20.662  0.00  0.00    +0.000 A 
ATOM     23  C   UNL     1       9.228  10.677  20.265  0.00  0.00    +0.000 A 
BRANCH  21  24
ATOM     24  O   UNL     1      10.822  14.030  19.838  0.00  0.00    +0.000 OA
ATOM     25  C   UNL     1       9.973  15.166  19.736  0.00  0.00    +0.000 C 
ENDBRANCH  21  24
BRANCH  22  26
ATOM     26  O   UNL     1       9.748  12.352  21.964  0.00  0.00    +0.000 OA
ATOM     27  C   UNL     1       8.551  12.249  22.721  0.00  0.00    +0.000 C 
ENDBRANCH  22  26
ENDBRANCH  17  18
ENDBRANCH   3  16
BRANCH   5  28
ATOM     28  C   UNL     1       6.596   4.507  15.410  0.00  0.00    +0.000 C 
ATOM     29  N   UNL     1       6.376   3.729  14.573  0.00  0.00    +0.000 NA
ENDBRANCH   5  28
TORSDOF 12
ENDMDL
MODEL 4
REMARK VINA RESULT:      -6.9      1.202      1.746
REMARK  Name = 
REMARK  16 active torsions:
REMARK  status: ('A' for Active; 'I' for Inactive)
REMARK    1  A    between atoms: C_1  and  C_2
REMARK    2  A    between atoms: C_2  and  N_3
REMARK    3  A    between atoms: N_3  and  C_4
REMARK    4  A    between atoms: N_3  and  C_6
REMARK    5  A    between atoms: C_4  and  C_5
REMARK    6  A    between atoms: C_6  and  C_7
REMARK    7  A    between atoms: C_7  and  C_8
REMARK    8  A    between atoms: C_8  and  N_9
REMARK    9  A    between atoms: N_9  and  C_10
REMARK   10  A    between atoms: C_12  and  C_13
REMARK   11  A    between atoms: C_14  and  C_15
REMARK   12  A    between atoms: C_18  and  O_19
REMARK   13  A    between atoms: O_19  and  C_20
REMARK   14  A    between atoms: C_21  and  O_22
REMARK   15  A    between atoms: O_22  and  C_23
REMARK   16  A    between atoms: C_26  and  C_27
REMARK                            x       y       z     vdW  Elec       q    Type
REMARK                         _______ _______ _______ _____ _____    ______ ____
ROOT
ATOM      1  C   UNL     1       6.845   5.272  17.825  0.00  0.00    +0.000 A 
ATOM      2  O   UNL     1       7.122   6.425  18.507  0.00  0.00    +0.000 OA
ATOM      3  C   UNL     1       7.479   7.365  17.543  0.00  0.00    +0.000 A 
ATOM      4  N   UNL     1       7.387   6.867  16.315  0.00  0.00    +0.000 NA
ATOM      5  C   UNL     1       7.006   5.560  16.492  0.00  0.00    +0.000 A 
ENDROOT
BRANCH   1   6
ATOM      6  N   UNL     1       6.543   4.146  18.513  0.00  0.00    +0.000 N 
ATOM      7  H   UNL     1       6.792   3.234  18.131  0.00  0.00    +0.000 HD
BRANCH   6   8
ATOM      8  C   UNL     1       5.471   4.080  19.495  0.00  0.00    +0.000 C 
BRANCH   8   9
ATOM      9  C   UNL     1       4.268   3.289  18.972  0.00  0.00    +0.000 C 
BRANCH   9  10
ATOM     10  C   UNL     1       3.356   2.661  20.045  0.00  0.00    +0.000 C 
BRANCH  10  11
ATOM     11  N   UNL     1       2.315   3.537  20.621  0.00  0.00    +0.000 NA
BRANCH  11  13
ATOM     12  C   UNL     1       1.422   5.901  20.714  0.00  0.00    +0.000 C 
ATOM     13  C   UNL     1       2.558   4.960  20.322  0.00  0.00    +0.000 C 
ENDBRANCH  11  13
BRANCH  11  14
ATOM     14  C   UNL     1       0.962   3.082  20.232  0.00  0.00    +0.000 C 
ATOM     15  C   UNL     1       0.799   2.543  18.810  0.00  0.00    +0.000 C 
ENDBRANCH  11  14
ENDBRANCH  10  11
ENDBRANCH   9  10
ENDBRANCH   8   9
ENDBRANCH   6   8
ENDBRANCH   1   6
BRANCH   3  16
ATOM     16  C   UNL     1       7.898   8.701  17.829  0.00  0.00    +0.000 C 
ATOM     17  C   UNL     1       8.849   8.972  18.737  0.00  0.00    +0.000 C 
BRANCH  17  18
ATOM     18  C   UNL     1       9.342  10.319  19.100  0.00  0.00    +0.000 A 
ATOM     19  C   UNL     1       9.498  10.760  20.414  0.00  0.00    +0.000 A 
ATOM     20  C   UNL     1       9.936  12.064  20.674  0.00  0.00    +0.000 A 
ATOM     21  C   UNL     1      10.213  12.965  19.635  0.00  0.00    +0.000 A 
ATOM     22  C   UNL     1      10.037  12.548  18.306  0.00  0.00    +0.000 A 
ATOM     23  C   UNL     1       9.609  11.228  18.060  0.00  0.00    +0.000 A 
BRANCH  21  24
ATOM     24  O   UNL     1      10.633  14.184  20.104  0.00  0.00    +0.000 OA
ATOM     25  C   UNL     1       9.675  15.211  20.326  0.00  0.00    +0.000 C 
ENDBRANCH  21  24
BRANCH  22  26
ATOM     26  O   UNL     1      10.280  13.450  17.306  0.00  0.00    +0.000 OA
ATOM     27  C   UNL     1      11.575  13.493  16.725  0.00  0.00    +0.000 C 
ENDBRANCH  22  26
ENDBRANCH  17  18
ENDBRANCH   3  16
BRANCH   5  28
ATOM     28  C   UNL     1       6.798   4.679  15.394  0.00  0.00    +0.000 C 
ATOM     29  N   UNL     1       6.613   3.931  14.522  0.00  0.00    +0.000 NA
ENDBRANCH   5  28
TORSDOF 12
ENDMDL
MODEL 5
REMARK VINA RESULT:      -6.9      1.128      1.769
REMARK  Name = 
REMARK  16 active torsions:
REMARK  status: ('A' for Active; 'I' for Inactive)
REMARK    1  A    between atoms: C_1  and  C_2
REMARK    2  A    between atoms: C_2  and  N_3
REMARK    3  A    between atoms: N_3  and  C_4
REMARK    4  A    between atoms: N_3  and  C_6
REMARK    5  A    between atoms: C_4  and  C_5
REMARK    6  A    between atoms: C_6  and  C_7
REMARK    7  A    between atoms: C_7  and  C_8
REMARK    8  A    between atoms: C_8  and  N_9
REMARK    9  A    between atoms: N_9  and  C_10
REMARK   10  A    between atoms: C_12  and  C_13
REMARK   11  A    between atoms: C_14  and  C_15
REMARK   12  A    between atoms: C_18  and  O_19
REMARK   13  A    between atoms: O_19  and  C_20
REMARK   14  A    between atoms: C_21  and  O_22
REMARK   15  A    between atoms: O_22  and  C_23
REMARK   16  A    between atoms: C_26  and  C_27
REMARK                            x       y       z     vdW  Elec       q    Type
REMARK                         _______ _______ _______ _____ _____    ______ ____
ROOT
ATOM      1  C   UNL     1       6.186   5.399  17.614  0.00  0.00    +0.000 A 
ATOM      2  O   UNL     1       6.647   6.318  18.517  0.00  0.00    +0.000 OA
ATOM      3  C   UNL     1       7.632   7.046  17.854  0.00  0.00    +0.000 A 
ATOM      4  N   UNL     1       7.761   6.659  16.590  0.00  0.00    +0.000 NA
ATOM      5  C   UNL     1       6.871   5.624  16.445  0.00  0.00    +0.000 A 
ENDROOT
BRANCH   1   6
ATOM      6  N   UNL     1       5.266   4.484  18.003  0.00  0.00    +0.000 N 
ATOM      7  H   UNL     1       5.270   4.136  18.961  0.00  0.00    +0.000 HD
BRANCH   6   8
ATOM      8  C   UNL     1       4.593   3.592  17.072  0.00  0.00    +0.000 C 
BRANCH   8   9
ATOM      9  C   UNL     1       3.096   3.900  16.970  0.00  0.00    +0.000 C 
BRANCH   9  10
ATOM     10  C   UNL     1       2.424   4.411  18.260  0.00  0.00    +0.000 C 
BRANCH  10  11
ATOM     11  N   UNL     1       2.737   3.676  19.503  0.00  0.00    +0.000 NA
BRANCH  11  13
ATOM     12  C   UNL     1       1.827   5.840  20.444  0.00  0.00    +0.000 C 
ATOM     13  C   UNL     1       2.493   4.491  20.707  0.00  0.00    +0.000 C 
ENDBRANCH  11  13
BRANCH  11  14
ATOM     14  C   UNL     1       2.046   2.367  19.536  0.00  0.00    +0.000 C 
ATOM     15  C   UNL     1       0.625   2.324  18.973  0.00  0.00    +0.000 C 
ENDBRANCH  11  14
ENDBRANCH  10  11
ENDBRANCH   9  10
ENDBRANCH   8   9
ENDBRANCH   6   8
ENDBRANCH   1   6
BRANCH   3  16
ATOM     16  C   UNL     1       8.416   8.080  18.453  0.00  0.00    +0.000 C 
ATOM     17  C   UNL     1       8.295   9.367  18.091  0.00  0.00    +0.000 C 
BRANCH  17  18
ATOM     18  C   UNL     1       9.064  10.500  18.650  0.00  0.00    +0.000 A 
ATOM     19  C   UNL     1       9.783  10.436  19.844  0.00  0.00    +0.000 A 
ATOM     20  C   UNL     1      10.456  11.566  20.324  0.00  0.00    +0.000 A 
ATOM     21  C   UNL     1      10.419  12.789  19.638  0.00  0.00    +0.000 A 
ATOM     22  C   UNL     1       9.681  12.880  18.447  0.00  0.00    +0.000 A 
ATOM     23  C   UNL     1       9.019  11.731  17.970  0.00  0.00    +0.000 A 
BRANCH  21  24
ATOM     24  O   UNL     1      11.147  13.763  20.273  0.00  0.00    +0.000 OA
ATOM     25  C   UNL     1      10.492  14.640  21.180  0.00  0.00    +0.000 C 
ENDBRANCH  21  24
BRANCH  22  26
ATOM     26  O   UNL     1       9.628  14.089  17.808  0.00  0.00    +0.000 OA
ATOM     27  C   UNL     1       8.501  14.926  18.022  0.00  0.00    +0.000 C 
ENDBRANCH  22  26
ENDBRANCH  17  18
ENDBRANCH   3  16
BRANCH   5  28
ATOM     28  C   UNL     1       6.710   4.935  15.211  0.00  0.00    +0.000 C 
ATOM     29  N   UNL     1       6.541   4.359  14.214  0.00  0.00    +0.000 NA
ENDBRANCH   5  28
TORSDOF 12
ENDMDL
MODEL 6
REMARK VINA RESULT:      -6.7      1.449      2.317
REMARK  Name = 
REMARK  16 active torsions:
REMARK  status: ('A' for Active; 'I' for Inactive)
REMARK    1  A    between atoms: C_1  and  C_2
REMARK    2  A    between atoms: C_2  and  N_3
REMARK    3  A    between atoms: N_3  and  C_4
REMARK    4  A    between atoms: N_3  and  C_6
REMARK    5  A    between atoms: C_4  and  C_5
REMARK    6  A    between atoms: C_6  and  C_7
REMARK    7  A    between atoms: C_7  and  C_8
REMARK    8  A    between atoms: C_8  and  N_9
REMARK    9  A    between atoms: N_9  and  C_10
REMARK   10  A    between atoms: C_12  and  C_13
REMARK   11  A    between atoms: C_14  and  C_15
REMARK   12  A    between atoms: C_18  and  O_19
REMARK   13  A    between atoms: O_19  and  C_20
REMARK   14  A    between atoms: C_21  and  O_22
REMARK   15  A    between atoms: O_22  and  C_23
REMARK   16  A    between atoms: C_26  and  C_27
REMARK                            x       y       z     vdW  Elec       q    Type
REMARK                         _______ _______ _______ _____ _____    ______ ____
ROOT
ATOM      1  C   UNL     1       6.722   5.306  17.911  0.00  0.00    +0.000 A 
ATOM      2  O   UNL     1       7.018   6.492  18.526  0.00  0.00    +0.000 OA
ATOM      3  C   UNL     1       7.411   7.361  17.511  0.00  0.00    +0.000 A 
ATOM      4  N   UNL     1       7.324   6.791  16.315  0.00  0.00    +0.000 NA
ATOM      5  C   UNL     1       6.909   5.506  16.565  0.00  0.00    +0.000 A 
ENDROOT
BRANCH   1   6
ATOM      6  N   UNL     1       6.382   4.231  18.662  0.00  0.00    +0.000 N 
ATOM      7  H   UNL     1       6.918   3.367  18.584  0.00  0.00    +0.000 HD
BRANCH   6   8
ATOM      8  C   UNL     1       5.044   4.029  19.197  0.00  0.00    +0.000 C 
BRANCH   8   9
ATOM      9  C   UNL     1       4.283   5.350  19.338  0.00  0.00    +0.000 C 
BRANCH   9  10
ATOM     10  C   UNL     1       2.744   5.248  19.312  0.00  0.00    +0.000 C 
BRANCH  10  11
ATOM     11  N   UNL     1       2.170   3.894  19.452  0.00  0.00    +0.000 NA
BRANCH  11  13
ATOM     12  C   UNL     1       1.417   2.786  21.597  0.00  0.00    +0.000 C 
ATOM     13  C   UNL     1       1.151   3.831  20.515  0.00  0.00    +0.000 C 
ENDBRANCH  11  13
BRANCH  11  14
ATOM     14  C   UNL     1       1.688   3.383  18.150  0.00  0.00    +0.000 C 
ATOM     15  C   UNL     1       2.421   2.172  17.571  0.00  0.00    +0.000 C 
ENDBRANCH  11  14
ENDBRANCH  10  11
ENDBRANCH   9  10
ENDBRANCH   8   9
ENDBRANCH   6   8
ENDBRANCH   1   6
BRANCH   3  16
ATOM     16  C   UNL     1       7.859   8.702  17.722  0.00  0.00    +0.000 C 
ATOM     17  C   UNL     1       8.875   8.994  18.550  0.00  0.00    +0.000 C 
BRANCH  17  18
ATOM     18  C   UNL     1       9.401  10.347  18.831  0.00  0.00    +0.000 A 
ATOM     19  C   UNL     1      10.507  10.900  18.186  0.00  0.00    +0.000 A 
ATOM     20  C   UNL     1      10.965  12.175  18.536  0.00  0.00    +0.000 A 
ATOM     21  C   UNL     1      10.345  12.926  19.547  0.00  0.00    +0.000 A 
ATOM     22  C   UNL     1       9.245  12.376  20.225  0.00  0.00    +0.000 A 
ATOM     23  C   UNL     1       8.788  11.096  19.853  0.00  0.00    +0.000 A 
BRANCH  21  24
ATOM     24  O   UNL     1      10.944  14.146  19.729  0.00  0.00    +0.000 OA
ATOM     25  C   UNL     1      11.068  15.031  18.623  0.00  0.00    +0.000 C 
ENDBRANCH  21  24
BRANCH  22  26
ATOM     26  O   UNL     1       8.673  13.107  21.231  0.00  0.00    +0.000 OA
ATOM     27  C   UNL     1       8.970  12.767  22.577  0.00  0.00    +0.000 C 
ENDBRANCH  22  26
ENDBRANCH  17  18
ENDBRANCH   3  16
BRANCH   5  28
ATOM     28  C   UNL     1       6.695   4.565  15.520  0.00  0.00    +0.000 C 
ATOM     29  N   UNL     1       6.512   3.827  14.640  0.00  0.00    +0.000 NA
ENDBRANCH   5  28
TORSDOF 12
ENDMDL
MODEL 7
REMARK VINA RESULT:      -6.7      1.195      1.852
REMARK  Name = 
REMARK  16 active torsions:
REMARK  status: ('A' for Active; 'I' for Inactive)
REMARK    1  A    between atoms: C_1  and  C_2
REMARK    2  A    between atoms: C_2  and  N_3
REMARK    3  A    between atoms: N_3  and  C_4
REMARK    4  A    between atoms: N_3  and  C_6
REMARK    5  A    between atoms: C_4  and  C_5
REMARK    6  A    between atoms: C_6  and  C_7
REMARK    7  A    between atoms: C_7  and  C_8
REMARK    8  A    between atoms: C_8  and  N_9
REMARK    9  A    between atoms: N_9  and  C_10
REMARK   10  A    between atoms: C_12  and  C_13
REMARK   11  A    between atoms: C_14  and  C_15
REMARK   12  A    between atoms: C_18  and  O_19
REMARK   13  A    between atoms: O_19  and  C_20
REMARK   14  A    between atoms: C_21  and  O_22
REMARK   15  A    between atoms: O_22  and  C_23
REMARK   16  A    between atoms: C_26  and  C_27
REMARK                            x       y       z     vdW  Elec       q    Type
REMARK                         _______ _______ _______ _____ _____    ______ ____
ROOT
ATOM      1  C   UNL     1       5.364   6.607  16.980  0.00  0.00    +0.000 A 
ATOM      2  O   UNL     1       5.989   7.672  17.568  0.00  0.00    +0.000 OA
ATOM      3  C   UNL     1       7.355   7.421  17.461  0.00  0.00    +0.000 A 
ATOM      4  N   UNL     1       7.597   6.295  16.801  0.00  0.00    +0.000 NA
ATOM      5  C   UNL     1       6.357   5.780  16.513  0.00  0.00    +0.000 A 
ENDROOT
BRANCH   1   6
ATOM      6  N   UNL     1       4.012   6.530  17.002  0.00  0.00    +0.000 N 
ATOM      7  H   UNL     1       3.453   7.337  16.727  0.00  0.00    +0.000 HD
BRANCH   6   8
ATOM      8  C   UNL     1       3.285   5.589  17.841  0.00  0.00    +0.000 C 
BRANCH   8   9
ATOM      9  C   UNL     1       3.071   6.136  19.255  0.00  0.00    +0.000 C 
BRANCH   9  10
ATOM     10  C   UNL     1       2.542   5.128  20.295  0.00  0.00    +0.000 C 
BRANCH  10  11
ATOM     11  N   UNL     1       2.499   3.711  19.878  0.00  0.00    +0.000 NA
BRANCH  11  13
ATOM     12  C   UNL     1       4.299   1.936  19.798  0.00  0.00    +0.000 C 
ATOM     13  C   UNL     1       3.445   2.878  20.643  0.00  0.00    +0.000 C 
ENDBRANCH  11  13
BRANCH  11  14
ATOM     14  C   UNL     1       1.114   3.191  19.900  0.00  0.00    +0.000 C 
ATOM     15  C   UNL     1       0.687   2.318  18.719  0.00  0.00    +0.000 C 
ENDBRANCH  11  14
ENDBRANCH  10  11
ENDBRANCH   9  10
ENDBRANCH   8   9
ENDBRANCH   6   8
ENDBRANCH   1   6
BRANCH   3  16
ATOM     16  C   UNL     1       8.377   8.264  17.997  0.00  0.00    +0.000 C 
ATOM     17  C   UNL     1       8.226   9.593  18.100  0.00  0.00    +0.000 C 
BRANCH  17  18
ATOM     18  C   UNL     1       9.228  10.540  18.635  0.00  0.00    +0.000 A 
ATOM     19  C   UNL     1       9.310  10.907  19.979  0.00  0.00    +0.000 A 
ATOM     20  C   UNL     1      10.267  11.838  20.399  0.00  0.00    +0.000 A 
ATOM     21  C   UNL     1      11.153  12.441  19.494  0.00  0.00    +0.000 A 
ATOM     22  C   UNL     1      11.069  12.103  18.133  0.00  0.00    +0.000 A 
ATOM     23  C   UNL     1      10.110  11.154  17.727  0.00  0.00    +0.000 A 
BRANCH  21  24
ATOM     24  O   UNL     1      12.009  13.316  20.110  0.00  0.00    +0.000 OA
ATOM     25  C   UNL     1      11.666  14.694  20.176  0.00  0.00    +0.000 C 
ENDBRANCH  21  24
BRANCH  22  26
ATOM     26  O   UNL     1      11.919  12.725  17.259  0.00  0.00    +0.000 OA
ATOM     27  C   UNL     1      11.474  13.895  16.589  0.00  0.00    +0.000 C 
ENDBRANCH  22  26
ENDBRANCH  17  18
ENDBRANCH   3  16
BRANCH   5  28
ATOM     28  C   UNL     1       6.193   4.560  15.801  0.00  0.00    +0.000 C 
ATOM     29  N   UNL     1       6.065   3.582  15.183  0.00  0.00    +0.000 NA
ENDBRANCH   5  28
TORSDOF 12
ENDMDL
MODEL 8
REMARK VINA RESULT:      -6.7      1.078      1.343
REMARK  Name = 
REMARK  16 active torsions:
REMARK  status: ('A' for Active; 'I' for Inactive)
REMARK    1  A    between atoms: C_1  and  C_2
REMARK    2  A    between atoms: C_2  and  N_3
REMARK    3  A    between atoms: N_3  and  C_4
REMARK    4  A    between atoms: N_3  and  C_6
REMARK    5  A    between atoms: C_4  and  C_5
REMARK    6  A    between atoms: C_6  and  C_7
REMARK    7  A    between atoms: C_7  and  C_8
REMARK    8  A    between atoms: C_8  and  N_9
REMARK    9  A    between atoms: N_9  and  C_10
REMARK   10  A    between atoms: C_12  and  C_13
REMARK   11  A    between atoms: C_14  and  C_15
REMARK   12  A    between atoms: C_18  and  O_19
REMARK   13  A    between atoms: O_19  and  C_20
REMARK   14  A    between atoms: C_21  and  O_22
REMARK   15  A    between atoms: O_22  and  C_23
REMARK   16  A    between atoms: C_26  and  C_27
REMARK                            x       y       z     vdW  Elec       q    Type
REMARK                         _______ _______ _______ _____ _____    ______ ____
ROOT
ATOM      1  C   UNL     1       6.556   5.243  17.610  0.00  0.00    +0.000 A 
ATOM      2  O   UNL     1       6.828   6.393  18.299  0.00  0.00    +0.000 OA
ATOM      3  C   UNL     1       7.359   7.281  17.368  0.00  0.00    +0.000 A 
ATOM      4  N   UNL     1       7.378   6.759  16.147  0.00  0.00    +0.000 NA
ATOM      5  C   UNL     1       6.892   5.484  16.300  0.00  0.00    +0.000 A 
ENDROOT
BRANCH   1   6
ATOM      6  N   UNL     1       6.099   4.157  18.278  0.00  0.00    +0.000 N 
ATOM      7  H   UNL     1       5.673   3.386  17.764  0.00  0.00    +0.000 HD
BRANCH   6   8
ATOM      8  C   UNL     1       5.711   4.193  19.679  0.00  0.00    +0.000 C 
BRANCH   8   9
ATOM      9  C   UNL     1       4.359   3.513  19.913  0.00  0.00    +0.000 C 
BRANCH   9  10
ATOM     10  C   UNL     1       3.121   4.429  19.835  0.00  0.00    +0.000 C 
BRANCH  10  11
ATOM     11  N   UNL     1       2.913   5.151  18.563  0.00  0.00    +0.000 NA
BRANCH  11  13
ATOM     12  C   UNL     1       2.264   3.137  17.177  0.00  0.00    +0.000 C 
ATOM     13  C   UNL     1       1.885   4.512  17.722  0.00  0.00    +0.000 C 
ENDBRANCH  11  13
BRANCH  11  14
ATOM     14  C   UNL     1       2.660   6.589  18.802  0.00  0.00    +0.000 C 
ATOM     15  C   UNL     1       3.258   7.572  17.794  0.00  0.00    +0.000 C 
ENDBRANCH  11  14
ENDBRANCH  10  11
ENDBRANCH   9  10
ENDBRANCH   8   9
ENDBRANCH   6   8
ENDBRANCH   1   6
BRANCH   3  16
ATOM     16  C   UNL     1       7.831   8.594  17.678  0.00  0.00    +0.000 C 
ATOM     17  C   UNL     1       8.714   8.821  18.662  0.00  0.00    +0.000 C 
BRANCH  17  18
ATOM     18  C   UNL     1       9.253  10.142  19.055  0.00  0.00    +0.000 A 
ATOM     19  C   UNL     1       9.461  10.534  20.377  0.00  0.00    +0.000 A 
ATOM     20  C   UNL     1       9.941  11.816  20.667  0.00  0.00    +0.000 A 
ATOM     21  C   UNL     1      10.210  12.746  19.652  0.00  0.00    +0.000 A 
ATOM     22  C   UNL     1       9.983  12.379  18.315  0.00  0.00    +0.000 A 
ATOM     23  C   UNL     1       9.512  11.080  18.038  0.00  0.00    +0.000 A 
BRANCH  21  24
ATOM     24  O   UNL     1      10.676  13.936  20.148  0.00  0.00    +0.000 OA
ATOM     25  C   UNL     1       9.748  14.960  20.485  0.00  0.00    +0.000 C 
ENDBRANCH  21  24
BRANCH  22  26
ATOM     26  O   UNL     1      10.220  13.309  17.339  0.00  0.00    +0.000 OA
ATOM     27  C   UNL     1      11.486  13.319  16.698  0.00  0.00    +0.000 C 
ENDBRANCH  22  26
ENDBRANCH  17  18
ENDBRANCH   3  16
BRANCH   5  28
ATOM     28  C   UNL     1       6.755   4.591  15.202  0.00  0.00    +0.000 C 
ATOM     29  N   UNL     1       6.629   3.892  14.280  0.00  0.00    +0.000 NA
ENDBRANCH   5  28
TORSDOF 12
ENDMDL
MODEL 9
REMARK VINA RESULT:      -6.7      4.697      7.878
REMARK  Name = 
REMARK  16 active torsions:
REMARK  status: ('A' for Active; 'I' for Inactive)
REMARK    1  A    between atoms: C_1  and  C_2
REMARK    2  A    between atoms: C_2  and  N_3
REMARK    3  A    between atoms: N_3  and  C_4
REMARK    4  A    between atoms: N_3  and  C_6
REMARK    5  A    between atoms: C_4  and  C_5
REMARK    6  A    between atoms: C_6  and  C_7
REMARK    7  A    between atoms: C_7  and  C_8
REMARK    8  A    between atoms: C_8  and  N_9
REMARK    9  A    between atoms: N_9  and  C_10
REMARK   10  A    between atoms: C_12  and  C_13
REMARK   11  A    between atoms: C_14  and  C_15
REMARK   12  A    between atoms: C_18  and  O_19
REMARK   13  A    between atoms: O_19  and  C_20
REMARK   14  A    between atoms: C_21  and  O_22
REMARK   15  A    between atoms: O_22  and  C_23
REMARK   16  A    between atoms: C_26  and  C_27
REMARK                            x       y       z     vdW  Elec       q    Type
REMARK                         _______ _______ _______ _____ _____    ______ ____
ROOT
ATOM      1  C   UNL     1       4.526   4.484  19.390  0.00  0.00    +0.000 A 
ATOM      2  O   UNL     1       3.992   5.673  19.803  0.00  0.00    +0.000 OA
ATOM      3  C   UNL     1       2.610   5.523  19.719  0.00  0.00    +0.000 A 
ATOM      4  N   UNL     1       2.272   4.300  19.329  0.00  0.00    +0.000 NA
ATOM      5  C   UNL     1       3.465   3.657  19.110  0.00  0.00    +0.000 A 
ENDROOT
BRANCH   1   6
ATOM      6  N   UNL     1       5.870   4.355  19.287  0.00  0.00    +0.000 N 
ATOM      7  H   UNL     1       6.305   3.444  19.427  0.00  0.00    +0.000 HD
BRANCH   6   8
ATOM      8  C   UNL     1       6.790   5.464  19.483  0.00  0.00    +0.000 C 
BRANCH   8   9
ATOM      9  C   UNL     1       7.687   5.683  18.260  0.00  0.00    +0.000 C 
BRANCH   9  10
ATOM     10  C   UNL     1       7.157   6.673  17.203  0.00  0.00    +0.000 C 
BRANCH  10  11
ATOM     11  N   UNL     1       6.642   6.086  15.949  0.00  0.00    +0.000 NA
BRANCH  11  13
ATOM     12  C   UNL     1       5.839   3.706  15.651  0.00  0.00    +0.000 C 
ATOM     13  C   UNL     1       7.016   4.667  15.805  0.00  0.00    +0.000 C 
ENDBRANCH  11  13
BRANCH  11  14
ATOM     14  C   UNL     1       5.189   6.323  15.808  0.00  0.00    +0.000 C 
ATOM     15  C   UNL     1       4.513   7.137  16.913  0.00  0.00    +0.000 C 
ENDBRANCH  11  14
ENDBRANCH  10  11
ENDBRANCH   9  10
ENDBRANCH   8   9
ENDBRANCH   6   8
ENDBRANCH   1   6
BRANCH   3  16
ATOM     16  C   UNL     1       1.664   6.554  20.011  0.00  0.00    +0.000 C 
ATOM     17  C   UNL     1       2.002   7.664  20.684  0.00  0.00    +0.000 C 
BRANCH  17  18
ATOM     18  C   UNL     1       1.092   8.777  21.034  0.00  0.00    +0.000 A 
ATOM     19  C   UNL     1       0.771   9.135  22.343  0.00  0.00    +0.000 A 
ATOM     20  C   UNL     1      -0.128  10.179  22.590  0.00  0.00    +0.000 A 
ATOM     21  C   UNL     1      -0.743  10.881  21.542  0.00  0.00    +0.000 A 
ATOM     22  C   UNL     1      -0.451  10.518  20.217  0.00  0.00    +0.000 A 
ATOM     23  C   UNL     1       0.466   9.474  19.984  0.00  0.00    +0.000 A 
BRANCH  21  24
ATOM     24  O   UNL     1      -1.582  11.865  21.998  0.00  0.00    +0.000 OA
ATOM     25  C   UNL     1      -2.220  11.705  23.258  0.00  0.00    +0.000 C 
ENDBRANCH  21  24
BRANCH  22  26
ATOM     26  O   UNL     1      -1.084  11.192  19.207  0.00  0.00    +0.000 OA
ATOM     27  C   UNL     1      -1.701  10.444  18.170  0.00  0.00    +0.000 C 
ENDBRANCH  22  26
ENDBRANCH  17  18
ENDBRANCH   3  16
BRANCH   5  28
ATOM     28  C   UNL     1       3.525   2.303  18.675  0.00  0.00    +0.000 C 
ATOM     29  N   UNL     1       3.599   1.188  18.350  0.00  0.00    +0.000 NA
ENDBRANCH   5  28
TORSDOF 12
ENDMDL
