MODEL 1
REMARK VINA RESULT:      -6.8      0.000      0.000
REMARK  Name = 
REMARK  4 active torsions:
REMARK  status: ('A' for Active; 'I' for Inactive)
REMARK    1  A    between atoms: C_1  and  C_2
REMARK    2  A    between atoms: C_2  and  N_3
REMARK    3  A    between atoms: C_9  and  N_10
REMARK    4  A    between atoms: C_13  and  C_14
REMARK                            x       y       z     vdW  Elec       q    Type
REMARK                         _______ _______ _______ _____ _____    ______ ____
ROOT
ATOM      1  N   UNL     1       2.081   3.246  18.999  0.00  0.00    +0.000 NA
ATOM      2  C   UNL     1       2.513   2.408  17.853  0.00  0.00    +0.000 C 
ATOM      3  C   UNL     1       3.920   2.787  17.327  0.00  0.00    +0.000 C 
ATOM      4  C   UNL     1       4.134   4.290  17.321  0.00  0.00    +0.000 A 
ATOM      5  C   UNL     1       3.178   5.127  17.883  0.00  0.00    +0.000 A 
ATOM      6  S   UNL     1       3.729   6.699  17.906  0.00  0.00    +0.000 S 
ATOM      7  C   UNL     1       5.184   6.365  17.126  0.00  0.00    +0.000 A 
ATOM      8  C   UNL     1       5.304   4.974  16.879  0.00  0.00    +0.000 A 
ATOM      9  C   UNL     1       1.908   4.632  18.504  0.00  0.00    +0.000 C 
ENDROOT
BRANCH   8  10
ATOM     10  C   UNL     1       6.498   4.253  16.301  0.00  0.00    +0.000 C 
ATOM     11  N   UNL     1       7.710   4.196  16.913  0.00  0.00    +0.000 N 
ATOM     12  O   UNL     1       6.368   3.657  15.251  0.00  0.00    +0.000 OA
ATOM     13  H   UNL     1       7.916   4.614  17.818  0.00  0.00    +0.000 HD
ATOM     14  H   UNL     1       8.481   3.682  16.462  0.00  0.00    +0.000 HD
ENDBRANCH   8  10
BRANCH   7  15
ATOM     15  N   UNL     1       6.112   7.382  16.779  0.00  0.00    +0.000 N 
ATOM     16  C   UNL     1       7.203   7.629  17.538  0.00  0.00    +0.000 C 
ATOM     17  O   UNL     1       7.984   8.510  17.219  0.00  0.00    +0.000 OA
ATOM     18  H   UNL     1       5.949   7.947  15.935  0.00  0.00    +0.000 HD
ENDBRANCH   7  15
BRANCH   1  20
ATOM     19  C   UNL     1       2.279   2.822  21.470  0.00  0.00    +0.000 C 
ATOM     20  C   UNL     1       3.002   3.140  20.158  0.00  0.00    +0.000 C 
ENDBRANCH   1  20
TORSDOF 3
ENDMDL
MODEL 2
REMARK VINA RESULT:      -6.6      2.117      3.383
REMARK  Name = 
REMARK  4 active torsions:
REMARK  status: ('A' for Active; 'I' for Inactive)
REMARK    1  A    between atoms: C_1  and  C_2
REMARK    2  A    between atoms: C_2  and  N_3
REMARK    3  A    between atoms: C_9  and  N_10
REMARK    4  A    between atoms: C_13  and  C_14
REMARK                            x       y       z     vdW  Elec       q    Type
REMARK                         _______ _______ _______ _____ _____    ______ ____
ROOT
ATOM      1  N   UNL     1       3.321   3.669  18.838  0.00  0.00    +0.000 NA
ATOM      2  C   UNL     1       4.322   4.018  19.876  0.00  0.00    +0.000 C 
ATOM      3  C   UNL     1       5.362   5.055  19.385  0.00  0.00    +0.000 C 
ATOM      4  C   UNL     1       5.783   4.796  17.950  0.00  0.00    +0.000 A 
ATOM      5  C   UNL     1       5.138   3.814  17.206  0.00  0.00    +0.000 A 
ATOM      6  S   UNL     1       5.661   3.851  15.625  0.00  0.00    +0.000 S 
ATOM      7  C   UNL     1       6.788   5.081  15.863  0.00  0.00    +0.000 A 
ATOM      8  C   UNL     1       6.737   5.546  17.201  0.00  0.00    +0.000 A 
ATOM      9  C   UNL     1       4.031   2.963  17.746  0.00  0.00    +0.000 C 
ENDROOT
BRANCH   8  10
ATOM     10  C   UNL     1       7.502   6.706  17.790  0.00  0.00    +0.000 C 
ATOM     11  N   UNL     1       8.142   6.655  18.987  0.00  0.00    +0.000 N 
ATOM     12  O   UNL     1       7.588   7.734  17.148  0.00  0.00    +0.000 OA
ATOM     13  H   UNL     1       8.179   5.830  19.583  0.00  0.00    +0.000 HD
ATOM     14  H   UNL     1       8.649   7.485  19.327  0.00  0.00    +0.000 HD
ENDBRANCH   8  10
BRANCH   7  15
ATOM     15  N   UNL     1       7.649   5.533  14.829  0.00  0.00    +0.000 N 
ATOM     16  C   UNL     1       7.493   5.120  13.551  0.00  0.00    +0.000 C 
ATOM     17  O   UNL     1       8.248   5.522  12.681  0.00  0.00    +0.000 OA
ATOM     18  H   UNL     1       8.413   6.183  15.056  0.00  0.00    +0.000 HD
ENDBRANCH   7  15
BRANCH   1  20
ATOM     19  C   UNL     1       1.373   4.477  17.467  0.00  0.00    +0.000 C 
ATOM     20  C   UNL     1       2.547   4.850  18.377  0.00  0.00    +0.000 C 
ENDBRANCH   1  20
TORSDOF 3
ENDMDL
MODEL 3
REMARK VINA RESULT:      -6.5      2.033      2.986
REMARK  Name = 
REMARK  4 active torsions:
REMARK  status: ('A' for Active; 'I' for Inactive)
REMARK    1  A    between atoms: C_1  and  C_2
REMARK    2  A    between atoms: C_2  and  N_3
REMARK    3  A    between atoms: C_9  and  N_10
REMARK    4  A    between atoms: C_13  and  C_14
REMARK                            x       y       z     vdW  Elec       q    Type
REMARK                         _______ _______ _______ _____ _____    ______ ____
ROOT
ATOM      1  N   UNL     1       2.856   3.457  18.838  0.00  0.00    +0.000 NA
ATOM      2  C   UNL     1       3.895   3.309  19.887  0.00  0.00    +0.000 C 
ATOM      3  C   UNL     1       5.111   4.242  19.666  0.00  0.00    +0.000 C 
ATOM      4  C   UNL     1       5.490   4.337  18.198  0.00  0.00    +0.000 A 
ATOM      5  C   UNL     1       4.683   3.742  17.236  0.00  0.00    +0.000 A 
ATOM      6  S   UNL     1       5.217   4.139  15.709  0.00  0.00    +0.000 S 
ATOM      7  C   UNL     1       6.547   5.029  16.236  0.00  0.00    +0.000 A 
ATOM      8  C   UNL     1       6.570   5.090  17.653  0.00  0.00    +0.000 A 
ATOM      9  C   UNL     1       3.434   2.981  17.560  0.00  0.00    +0.000 C 
ENDROOT
BRANCH   8  10
ATOM     10  C   UNL     1       7.529   5.877  18.513  0.00  0.00    +0.000 C 
ATOM     11  N   UNL     1       8.157   5.363  19.602  0.00  0.00    +0.000 N 
ATOM     12  O   UNL     1       7.789   7.021  18.200  0.00  0.00    +0.000 OA
ATOM     13  H   UNL     1       8.054   4.403  19.924  0.00  0.00    +0.000 HD
ATOM     14  H   UNL     1       8.803   5.957  20.142  0.00  0.00    +0.000 HD
ENDBRANCH   8  10
BRANCH   7  15
ATOM     15  N   UNL     1       7.485   5.600  15.337  0.00  0.00    +0.000 N 
ATOM     16  C   UNL     1       7.518   5.242  14.033  0.00  0.00    +0.000 C 
ATOM     17  O   UNL     1       8.335   5.746  13.281  0.00  0.00    +0.000 OA
ATOM     18  H   UNL     1       8.159   6.295  15.684  0.00  0.00    +0.000 HD
ENDBRANCH   7  15
BRANCH   1  20
ATOM     19  C   UNL     1       1.753   5.329  20.104  0.00  0.00    +0.000 C 
ATOM     20  C   UNL     1       2.314   4.838  18.767  0.00  0.00    +0.000 C 
ENDBRANCH   1  20
TORSDOF 3
ENDMDL
MODEL 4
REMARK VINA RESULT:      -6.5      1.776      1.889
REMARK  Name = 
REMARK  4 active torsions:
REMARK  status: ('A' for Active; 'I' for Inactive)
REMARK    1  A    between atoms: C_1  and  C_2
REMARK    2  A    between atoms: C_2  and  N_3
REMARK    3  A    between atoms: C_9  and  N_10
REMARK    4  A    between atoms: C_13  and  C_14
REMARK                            x       y       z     vdW  Elec       q    Type
REMARK                         _______ _______ _______ _____ _____    ______ ____
ROOT
ATOM      1  N   UNL     1       2.511   4.096  19.071  0.00  0.00    +0.000 NA
ATOM      2  C   UNL     1       3.480   2.985  18.900  0.00  0.00    +0.000 C 
ATOM      3  C   UNL     1       4.953   3.462  18.931  0.00  0.00    +0.000 C 
ATOM      4  C   UNL     1       5.136   4.778  18.198  0.00  0.00    +0.000 A 
ATOM      5  C   UNL     1       4.025   5.466  17.724  0.00  0.00    +0.000 A 
ATOM      6  S   UNL     1       4.479   6.950  17.120  0.00  0.00    +0.000 S 
ATOM      7  C   UNL     1       6.129   6.726  17.381  0.00  0.00    +0.000 A 
ATOM      8  C   UNL     1       6.363   5.481  18.018  0.00  0.00    +0.000 A 
ATOM      9  C   UNL     1       2.619   4.975  17.884  0.00  0.00    +0.000 C 
ENDROOT
BRANCH   8  10
ATOM     10  C   UNL     1       7.685   4.952  18.521  0.00  0.00    +0.000 C 
ATOM     11  N   UNL     1       8.211   5.273  19.731  0.00  0.00    +0.000 N 
ATOM     12  O   UNL     1       8.300   4.167  17.828  0.00  0.00    +0.000 OA
ATOM     13  H   UNL     1       7.757   5.879  20.412  0.00  0.00    +0.000 HD
ATOM     14  H   UNL     1       9.117   4.871  20.012  0.00  0.00    +0.000 HD
ENDBRANCH   8  10
BRANCH   7  15
ATOM     15  N   UNL     1       7.099   7.682  16.981  0.00  0.00    +0.000 N 
ATOM     16  C   UNL     1       7.729   8.466  17.884  0.00  0.00    +0.000 C 
ATOM     17  O   UNL     1       8.559   9.281  17.515  0.00  0.00    +0.000 OA
ATOM     18  H   UNL     1       7.325   7.786  15.983  0.00  0.00    +0.000 HD
ENDBRANCH   7  15
BRANCH   1  20
ATOM     19  C   UNL     1       1.766   6.024  20.504  0.00  0.00    +0.000 C 
ATOM     20  C   UNL     1       2.691   4.812  20.360  0.00  0.00    +0.000 C 
ENDBRANCH   1  20
TORSDOF 3
ENDMDL
MODEL 5
REMARK VINA RESULT:      -6.4      1.055      1.055
REMARK  Name = 
REMARK  4 active torsions:
REMARK  status: ('A' for Active; 'I' for Inactive)
REMARK    1  A    between atoms: C_1  and  C_2
REMARK    2  A    between atoms: C_2  and  N_3
REMARK    3  A    between atoms: C_9  and  N_10
REMARK    4  A    between atoms: C_13  and  C_14
REMARK                            x       y       z     vdW  Elec       q    Type
REMARK                         _______ _______ _______ _____ _____    ______ ____
ROOT
ATOM      1  N   UNL     1       2.180   3.511  18.642  0.00  0.00    +0.000 NA
ATOM      2  C   UNL     1       2.940   2.612  17.739  0.00  0.00    +0.000 C 
ATOM      3  C   UNL     1       4.410   3.058  17.542  0.00  0.00    +0.000 C 
ATOM      4  C   UNL     1       4.531   4.567  17.425  0.00  0.00    +0.000 A 
ATOM      5  C   UNL     1       3.415   5.368  17.637  0.00  0.00    +0.000 A 
ATOM      6  S   UNL     1       3.849   6.977  17.624  0.00  0.00    +0.000 S 
ATOM      7  C   UNL     1       5.473   6.696  17.273  0.00  0.00    +0.000 A 
ATOM      8  C   UNL     1       5.733   5.304  17.217  0.00  0.00    +0.000 A 
ATOM      9  C   UNL     1       2.060   4.827  17.972  0.00  0.00    +0.000 C 
ENDROOT
BRANCH   8  10
ATOM     10  C   UNL     1       7.075   4.636  17.037  0.00  0.00    +0.000 C 
ATOM     11  N   UNL     1       7.652   4.421  15.826  0.00  0.00    +0.000 N 
ATOM     12  O   UNL     1       7.698   4.305  18.025  0.00  0.00    +0.000 OA
ATOM     13  H   UNL     1       7.243   4.705  14.938  0.00  0.00    +0.000 HD
ATOM     14  H   UNL     1       8.573   3.963  15.778  0.00  0.00    +0.000 HD
ENDBRANCH   8  10
BRANCH   7  15
ATOM     15  N   UNL     1       6.398   7.752  17.058  0.00  0.00    +0.000 N 
ATOM     16  C   UNL     1       7.518   7.869  17.806  0.00  0.00    +0.000 C 
ATOM     17  O   UNL     1       8.297   8.786  17.603  0.00  0.00    +0.000 OA
ATOM     18  H   UNL     1       6.210   8.447  16.324  0.00  0.00    +0.000 HD
ENDBRANCH   7  15
BRANCH   1  20
ATOM     19  C   UNL     1       2.017   4.533  20.935  0.00  0.00    +0.000 C 
ATOM     20  C   UNL     1       2.778   3.589  20.000  0.00  0.00    +0.000 C 
ENDBRANCH   1  20
TORSDOF 3
ENDMDL
MODEL 6
REMARK VINA RESULT:      -6.4      2.918      5.420
REMARK  Name = 
REMARK  4 active torsions:
REMARK  status: ('A' for Active; 'I' for Inactive)
REMARK    1  A    between atoms: C_1  and  C_2
REMARK    2  A    between atoms: C_2  and  N_3
REMARK    3  A    between atoms: C_9  and  N_10
REMARK    4  A    between atoms: C_13  and  C_14
REMARK                            x       y       z     vdW  Elec       q    Type
REMARK                         _______ _______ _______ _____ _____    ______ ____
ROOT
ATOM      1  N   UNL     1       6.045   6.300  16.398  0.00  0.00    +0.000 NA
ATOM      2  C   UNL     1       7.026   5.456  17.125  0.00  0.00    +0.000 C 
ATOM      3  C   UNL     1       6.373   4.234  17.817  0.00  0.00    +0.000 C 
ATOM      4  C   UNL     1       5.033   4.587  18.439  0.00  0.00    +0.000 A 
ATOM      5  C   UNL     1       4.480   5.844  18.223  0.00  0.00    +0.000 A 
ATOM      6  S   UNL     1       2.943   5.915  18.860  0.00  0.00    +0.000 S 
ATOM      7  C   UNL     1       2.967   4.356  19.499  0.00  0.00    +0.000 A 
ATOM      8  C   UNL     1       4.183   3.706  19.168  0.00  0.00    +0.000 A 
ATOM      9  C   UNL     1       5.142   6.908  17.402  0.00  0.00    +0.000 C 
ENDROOT
BRANCH   8  10
ATOM     10  C   UNL     1       4.553   2.271  19.455  0.00  0.00    +0.000 C 
ATOM     11  N   UNL     1       4.245   1.236  18.631  0.00  0.00    +0.000 N 
ATOM     12  O   UNL     1       5.195   2.023  20.456  0.00  0.00    +0.000 OA
ATOM     13  H   UNL     1       3.757   1.335  17.743  0.00  0.00    +0.000 HD
ATOM     14  H   UNL     1       4.533   0.280  18.888  0.00  0.00    +0.000 HD
ENDBRANCH   8  10
BRANCH   7  15
ATOM     15  N   UNL     1       1.894   3.832  20.266  0.00  0.00    +0.000 N 
ATOM     16  C   UNL     1       2.105   3.263  21.475  0.00  0.00    +0.000 C 
ATOM     17  O   UNL     1       1.166   2.819  22.115  0.00  0.00    +0.000 OA
ATOM     18  H   UNL     1       0.937   3.879  19.894  0.00  0.00    +0.000 HD
ENDBRANCH   7  15
BRANCH   1  20
ATOM     19  C   UNL     1       6.277   4.798  14.394  0.00  0.00    +0.000 C 
ATOM     20  C   UNL     1       5.330   5.549  15.334  0.00  0.00    +0.000 C 
ENDBRANCH   1  20
TORSDOF 3
ENDMDL
MODEL 7
REMARK VINA RESULT:      -6.4      2.762      5.515
REMARK  Name = 
REMARK  4 active torsions:
REMARK  status: ('A' for Active; 'I' for Inactive)
REMARK    1  A    between atoms: C_1  and  C_2
REMARK    2  A    between atoms: C_2  and  N_3
REMARK    3  A    between atoms: C_9  and  N_10
REMARK    4  A    between atoms: C_13  and  C_14
REMARK                            x       y       z     vdW  Elec       q    Type
REMARK                         _______ _______ _______ _____ _____    ______ ____
ROOT
ATOM      1  N   UNL     1       6.282   6.329  16.288  0.00  0.00    +0.000 NA
ATOM      2  C   UNL     1       7.139   5.605  17.259  0.00  0.00    +0.000 C 
ATOM      3  C   UNL     1       6.435   4.375  17.883  0.00  0.00    +0.000 C 
ATOM      4  C   UNL     1       4.974   4.655  18.188  0.00  0.00    +0.000 A 
ATOM      5  C   UNL     1       4.399   5.852  17.776  0.00  0.00    +0.000 A 
ATOM      6  S   UNL     1       2.761   5.837  18.074  0.00  0.00    +0.000 S 
ATOM      7  C   UNL     1       2.750   4.321  18.810  0.00  0.00    +0.000 A 
ATOM      8  C   UNL     1       4.048   3.751  18.784  0.00  0.00    +0.000 A 
ATOM      9  C   UNL     1       5.149   6.918  17.039  0.00  0.00    +0.000 C 
ENDROOT
BRANCH   8  10
ATOM     10  C   UNL     1       4.441   2.366  19.239  0.00  0.00    +0.000 C 
ATOM     11  N   UNL     1       4.228   1.245  18.504  0.00  0.00    +0.000 N 
ATOM     12  O   UNL     1       5.013   2.243  20.303  0.00  0.00    +0.000 OA
ATOM     13  H   UNL     1       3.805   1.237  17.578  0.00  0.00    +0.000 HD
ATOM     14  H   UNL     1       4.526   0.331  18.876  0.00  0.00    +0.000 HD
ENDBRANCH   8  10
BRANCH   7  15
ATOM     15  N   UNL     1       1.575   3.757  19.372  0.00  0.00    +0.000 N 
ATOM     16  C   UNL     1       0.938   2.722  18.780  0.00  0.00    +0.000 C 
ATOM     17  O   UNL     1      -0.071   2.255  19.283  0.00  0.00    +0.000 OA
ATOM     18  H   UNL     1       1.195   4.147  20.244  0.00  0.00    +0.000 HD
ENDBRANCH   7  15
BRANCH   1  20
ATOM     19  C   UNL     1       7.040   4.874  14.382  0.00  0.00    +0.000 C 
ATOM     20  C   UNL     1       5.859   5.469  15.153  0.00  0.00    +0.000 C 
ENDBRANCH   1  20
TORSDOF 3
ENDMDL
MODEL 8
REMARK VINA RESULT:      -6.4      3.198      5.905
REMARK  Name = 
REMARK  4 active torsions:
REMARK  status: ('A' for Active; 'I' for Inactive)
REMARK    1  A    between atoms: C_1  and  C_2
REMARK    2  A    between atoms: C_2  and  N_3
REMARK    3  A    between atoms: C_9  and  N_10
REMARK    4  A    between atoms: C_13  and  C_14
REMARK                            x       y       z     vdW  Elec       q    Type
REMARK                         _______ _______ _______ _____ _____    ______ ____
ROOT
ATOM      1  N   UNL     1       6.609   5.713  16.788  0.00  0.00    +0.000 NA
ATOM      2  C   UNL     1       5.561   6.610  16.239  0.00  0.00    +0.000 C 
ATOM      3  C   UNL     1       4.484   6.988  17.285  0.00  0.00    +0.000 C 
ATOM      4  C   UNL     1       4.118   5.810  18.171  0.00  0.00    +0.000 A 
ATOM      5  C   UNL     1       4.834   4.623  18.072  0.00  0.00    +0.000 A 
ATOM      6  S   UNL     1       4.356   3.560  19.262  0.00  0.00    +0.000 S 
ATOM      7  C   UNL     1       3.162   4.565  19.897  0.00  0.00    +0.000 A 
ATOM      8  C   UNL     1       3.150   5.809  19.217  0.00  0.00    +0.000 A 
ATOM      9  C   UNL     1       5.968   4.418  17.115  0.00  0.00    +0.000 C 
ENDROOT
BRANCH   8  10
ATOM     10  C   UNL     1       2.309   7.018  19.548  0.00  0.00    +0.000 C 
ATOM     11  N   UNL     1       2.048   7.426  20.817  0.00  0.00    +0.000 N 
ATOM     12  O   UNL     1       1.870   7.691  18.638  0.00  0.00    +0.000 OA
ATOM     13  H   UNL     1       2.408   6.969  21.653  0.00  0.00    +0.000 HD
ATOM     14  H   UNL     1       1.469   8.265  20.971  0.00  0.00    +0.000 HD
ENDBRANCH   8  10
BRANCH   7  15
ATOM     15  N   UNL     1       2.308   4.157  20.955  0.00  0.00    +0.000 N 
ATOM     16  C   UNL     1       2.315   2.886  21.415  0.00  0.00    +0.000 C 
ATOM     17  O   UNL     1       1.570   2.560  22.325  0.00  0.00    +0.000 OA
ATOM     18  H   UNL     1       1.666   4.840  21.378  0.00  0.00    +0.000 HD
ENDBRANCH   7  15
BRANCH   1  20
ATOM     19  C   UNL     1       7.841   7.736  17.634  0.00  0.00    +0.000 C 
ATOM     20  C   UNL     1       7.333   6.323  17.932  0.00  0.00    +0.000 C 
ENDBRANCH   1  20
TORSDOF 3
ENDMDL
MODEL 9
REMARK VINA RESULT:      -6.3      3.304      5.820
REMARK  Name = 
REMARK  4 active torsions:
REMARK  status: ('A' for Active; 'I' for Inactive)
REMARK    1  A    between atoms: C_1  and  C_2
REMARK    2  A    between atoms: C_2  and  N_3
REMARK    3  A    between atoms: C_9  and  N_10
REMARK    4  A    between atoms: C_13  and  C_14
REMARK                            x       y       z     vdW  Elec       q    Type
REMARK                         _______ _______ _______ _____ _____    ______ ____
ROOT
ATOM      1  N   UNL     1       6.134   5.425  16.281  0.00  0.00    +0.000 NA
ATOM      2  C   UNL     1       5.209   6.569  16.092  0.00  0.00    +0.000 C 
ATOM      3  C   UNL     1       4.256   6.778  17.295  0.00  0.00    +0.000 C 
ATOM      4  C   UNL     1       3.762   5.459  17.861  0.00  0.00    +0.000 A 
ATOM      5  C   UNL     1       4.283   4.263  17.380  0.00  0.00    +0.000 A 
ATOM      6  S   UNL     1       3.711   2.982  18.279  0.00  0.00    +0.000 S 
ATOM      7  C   UNL     1       2.717   3.918  19.267  0.00  0.00    +0.000 A 
ATOM      8  C   UNL     1       2.859   5.292  18.951  0.00  0.00    +0.000 A 
ATOM      9  C   UNL     1       5.322   4.186  16.304  0.00  0.00    +0.000 C 
ENDROOT
BRANCH   8  10
ATOM     10  C   UNL     1       2.231   6.460  19.672  0.00  0.00    +0.000 C 
ATOM     11  N   UNL     1       2.224   7.729  19.185  0.00  0.00    +0.000 N 
ATOM     12  O   UNL     1       1.664   6.258  20.727  0.00  0.00    +0.000 OA
ATOM     13  H   UNL     1       2.623   8.001  18.289  0.00  0.00    +0.000 HD
ATOM     14  H   UNL     1       1.772   8.478  19.729  0.00  0.00    +0.000 HD
ENDBRANCH   8  10
BRANCH   7  15
ATOM     15  N   UNL     1       1.867   3.346  20.250  0.00  0.00    +0.000 N 
ATOM     16  C   UNL     1       2.355   2.898  21.429  0.00  0.00    +0.000 C 
ATOM     17  O   UNL     1       1.603   2.410  22.256  0.00  0.00    +0.000 OA
ATOM     18  H   UNL     1       0.859   3.264  20.060  0.00  0.00    +0.000 HD
ENDBRANCH   7  15
BRANCH   1  20
ATOM     19  C   UNL     1       7.612   6.988  17.584  0.00  0.00    +0.000 C 
ATOM     20  C   UNL     1       7.001   5.588  17.476  0.00  0.00    +0.000 C 
ENDBRANCH   1  20
TORSDOF 3
ENDMDL
