MODEL 1
REMARK VINA RESULT:      -6.6      0.000      0.000
REMARK  Name = 
REMARK  8 active torsions:
REMARK  status: ('A' for Active; 'I' for Inactive)
REMARK    1  A    between atoms: C_1  and  C_2
REMARK    2  A    between atoms: C_2  and  O_3
REMARK    3  A    between atoms: C_2  and  C_8
REMARK    4  A    between atoms: O_3  and  C_4
REMARK    5  A    between atoms: C_4  and  C_5
REMARK    6  A    between atoms: N_10  and  C_11
REMARK    7  A    between atoms: C_11  and  C_12
REMARK    8  A    between atoms: N_14  and  C_15
REMARK                            x       y       z     vdW  Elec       q    Type
REMARK                         _______ _______ _______ _____ _____    ______ ____
ROOT
ATOM      1  C   UNL     1       2.701   5.818  17.876  0.00  0.00    +0.000 C 
ATOM      2  O   UNL     1       1.582   5.310  17.741  0.00  0.00    +0.000 OA
ATOM      3  N   UNL     1       3.865   5.081  17.559  0.00  0.00    +0.000 N 
ATOM      4  C   UNL     1       5.103   5.721  17.534  0.00  0.00    +0.000 A 
ATOM      5  N   UNL     1       5.311   7.005  17.371  0.00  0.00    +0.000 NA
ATOM      6  C   UNL     1       6.656   7.293  17.450  0.00  0.00    +0.000 A 
ATOM      7  C   UNL     1       7.481   6.204  17.597  0.00  0.00    +0.000 A 
ATOM      8  S   UNL     1       6.536   4.782  17.682  0.00  0.00    +0.000 S 
ENDROOT
BRANCH   1  10
ATOM      9  C   UNL     1       2.117   8.335  17.599  0.00  0.00    +0.000 C 
ATOM     10  C   UNL     1       2.821   7.278  18.462  0.00  0.00    +0.000 C 
BRANCH  10  11
ATOM     11  O   UNL     1       2.467   7.456  19.836  0.00  0.00    +0.000 OA
BRANCH  11  12
ATOM     12  C   UNL     1       1.495   8.458  20.094  0.00  0.00    +0.000 C 
BRANCH  12  13
ATOM     13  C   UNL     1       0.889   8.194  21.438  0.00  0.00    +0.000 C 
ATOM     14  C   UNL     1       0.962   9.265  22.496  0.00  0.00    +0.000 C 
ATOM     15  C   UNL     1      -0.364   8.900  21.889  0.00  0.00    +0.000 C 
ENDBRANCH  12  13
ENDBRANCH  11  12
ENDBRANCH  10  11
ENDBRANCH   1  10
BRANCH   3  16
ATOM     16  C   UNL     1       3.695   3.664  17.162  0.00  0.00    +0.000 C 
BRANCH  16  17
ATOM     17  C   UNL     1       3.782   2.639  18.326  0.00  0.00    +0.000 C 
ATOM     18  C   UNL     1       3.706   3.190  19.775  0.00  0.00    +0.000 C 
ATOM     19  N   UNL     1       2.347   3.521  20.255  0.00  0.00    +0.000 NA
ATOM     20  C   UNL     1       2.381   3.858  21.682  0.00  0.00    +0.000 C 
ATOM     21  C   UNL     1       1.471   2.353  20.041  0.00  0.00    +0.000 C 
ATOM     22  C   UNL     1       1.491   1.931  18.569  0.00  0.00    +0.000 C 
ATOM     23  O   UNL     1       2.812   1.576  18.139  0.00  0.00    +0.000 OA
ENDBRANCH  16  17
ENDBRANCH   3  16
TORSDOF 6
ENDMDL
MODEL 2
REMARK VINA RESULT:      -6.4      2.385      6.020
REMARK  Name = 
REMARK  8 active torsions:
REMARK  status: ('A' for Active; 'I' for Inactive)
REMARK    1  A    between atoms: C_1  and  C_2
REMARK    2  A    between atoms: C_2  and  O_3
REMARK    3  A    between atoms: C_2  and  C_8
REMARK    4  A    between atoms: O_3  and  C_4
REMARK    5  A    between atoms: C_4  and  C_5
REMARK    6  A    between atoms: N_10  and  C_11
REMARK    7  A    between atoms: C_11  and  C_12
REMARK    8  A    between atoms: N_14  and  C_15
REMARK                            x       y       z     vdW  Elec       q    Type
REMARK                         _______ _______ _______ _____ _____    ______ ____
ROOT
ATOM      1  C   UNL     1       3.982   5.323  17.382  0.00  0.00    +0.000 C 
ATOM      2  O   UNL     1       4.249   6.316  16.696  0.00  0.00    +0.000 OA
ATOM      3  N   UNL     1       2.783   5.269  18.129  0.00  0.00    +0.000 N 
ATOM      4  C   UNL     1       2.405   4.076  18.744  0.00  0.00    +0.000 A 
ATOM      5  N   UNL     1       2.792   2.871  18.406  0.00  0.00    +0.000 NA
ATOM      6  C   UNL     1       2.261   1.932  19.262  0.00  0.00    +0.000 A 
ATOM      7  C   UNL     1       1.398   2.426  20.212  0.00  0.00    +0.000 A 
ATOM      8  S   UNL     1       1.288   4.124  20.050  0.00  0.00    +0.000 S 
ENDROOT
BRANCH   1  10
ATOM      9  C   UNL     1       5.730   3.865  16.127  0.00  0.00    +0.000 C 
ATOM     10  C   UNL     1       5.022   4.139  17.462  0.00  0.00    +0.000 C 
BRANCH  10  11
ATOM     11  O   UNL     1       5.980   4.187  18.521  0.00  0.00    +0.000 OA
BRANCH  11  12
ATOM     12  C   UNL     1       6.301   5.486  18.998  0.00  0.00    +0.000 C 
BRANCH  12  13
ATOM     13  C   UNL     1       7.571   5.930  18.341  0.00  0.00    +0.000 C 
ATOM     14  C   UNL     1       7.511   6.995  17.276  0.00  0.00    +0.000 C 
ATOM     15  C   UNL     1       8.156   7.295  18.601  0.00  0.00    +0.000 C 
ENDBRANCH  12  13
ENDBRANCH  11  12
ENDBRANCH  10  11
ENDBRANCH   1  10
BRANCH   3  16
ATOM     16  C   UNL     1       1.923   6.475  18.136  0.00  0.00    +0.000 C 
BRANCH  16  17
ATOM     17  C   UNL     1       2.523   7.706  18.868  0.00  0.00    +0.000 C 
ATOM     18  C   UNL     1       2.017   9.111  18.444  0.00  0.00    +0.000 C 
ATOM     19  N   UNL     1       0.703   9.504  18.999  0.00  0.00    +0.000 NA
ATOM     20  C   UNL     1       0.416  10.906  18.678  0.00  0.00    +0.000 C 
ATOM     21  C   UNL     1       0.734   9.326  20.463  0.00  0.00    +0.000 C 
ATOM     22  C   UNL     1       1.119   7.887  20.819  0.00  0.00    +0.000 C 
ATOM     23  O   UNL     1       2.413   7.543  20.307  0.00  0.00    +0.000 OA
ENDBRANCH  16  17
ENDBRANCH   3  16
TORSDOF 6
ENDMDL
MODEL 3
REMARK VINA RESULT:      -5.8      2.656      6.373
REMARK  Name = 
REMARK  8 active torsions:
REMARK  status: ('A' for Active; 'I' for Inactive)
REMARK    1  A    between atoms: C_1  and  C_2
REMARK    2  A    between atoms: C_2  and  O_3
REMARK    3  A    between atoms: C_2  and  C_8
REMARK    4  A    between atoms: O_3  and  C_4
REMARK    5  A    between atoms: C_4  and  C_5
REMARK    6  A    between atoms: N_10  and  C_11
REMARK    7  A    between atoms: C_11  and  C_12
REMARK    8  A    between atoms: N_14  and  C_15
REMARK                            x       y       z     vdW  Elec       q    Type
REMARK                         _______ _______ _______ _____ _____    ______ ____
ROOT
ATOM      1  C   UNL     1       3.930   6.362  17.592  0.00  0.00    +0.000 C 
ATOM      2  O   UNL     1       4.442   7.414  17.191  0.00  0.00    +0.000 OA
ATOM      3  N   UNL     1       2.939   6.386  18.599  0.00  0.00    +0.000 N 
ATOM      4  C   UNL     1       2.238   5.220  18.907  0.00  0.00    +0.000 A 
ATOM      5  N   UNL     1       2.076   4.181  18.124  0.00  0.00    +0.000 NA
ATOM      6  C   UNL     1       1.371   3.190  18.771  0.00  0.00    +0.000 A 
ATOM      7  C   UNL     1       0.928   3.514  20.032  0.00  0.00    +0.000 A 
ATOM      8  S   UNL     1       1.450   5.093  20.429  0.00  0.00    +0.000 S 
ENDROOT
BRANCH   1  10
ATOM      9  C   UNL     1       5.059   5.116  15.610  0.00  0.00    +0.000 C 
ATOM     10  C   UNL     1       4.437   4.987  17.008  0.00  0.00    +0.000 C 
BRANCH  10  11
ATOM     11  O   UNL     1       5.284   4.198  17.848  0.00  0.00    +0.000 OA
BRANCH  11  12
ATOM     12  C   UNL     1       6.664   4.529  17.810  0.00  0.00    +0.000 C 
BRANCH  12  13
ATOM     13  C   UNL     1       6.910   5.640  18.785  0.00  0.00    +0.000 C 
ATOM     14  C   UNL     1       8.243   5.720  19.483  0.00  0.00    +0.000 C 
ATOM     15  C   UNL     1       7.863   6.765  18.472  0.00  0.00    +0.000 C 
ENDBRANCH  12  13
ENDBRANCH  11  12
ENDBRANCH  10  11
ENDBRANCH   1  10
BRANCH   3  16
ATOM     16  C   UNL     1       2.617   7.693  19.217  0.00  0.00    +0.000 C 
BRANCH  16  17
ATOM     17  C   UNL     1       1.407   8.437  18.590  0.00  0.00    +0.000 C 
ATOM     18  C   UNL     1       0.472   9.223  19.547  0.00  0.00    +0.000 C 
ATOM     19  N   UNL     1       0.976  10.544  19.979  0.00  0.00    +0.000 NA
ATOM     20  C   UNL     1      -0.061  11.263  20.728  0.00  0.00    +0.000 C 
ATOM     21  C   UNL     1       1.355  11.322  18.785  0.00  0.00    +0.000 C 
ATOM     22  C   UNL     1       2.373  10.548  17.942  0.00  0.00    +0.000 C 
ATOM     23  O   UNL     1       1.847   9.290  17.500  0.00  0.00    +0.000 OA
ENDBRANCH  16  17
ENDBRANCH   3  16
TORSDOF 6
ENDMDL
MODEL 4
REMARK VINA RESULT:      -5.6      2.490      5.911
REMARK  Name = 
REMARK  8 active torsions:
REMARK  status: ('A' for Active; 'I' for Inactive)
REMARK    1  A    between atoms: C_1  and  C_2
REMARK    2  A    between atoms: C_2  and  O_3
REMARK    3  A    between atoms: C_2  and  C_8
REMARK    4  A    between atoms: O_3  and  C_4
REMARK    5  A    between atoms: C_4  and  C_5
REMARK    6  A    between atoms: N_10  and  C_11
REMARK    7  A    between atoms: C_11  and  C_12
REMARK    8  A    between atoms: N_14  and  C_15
REMARK                            x       y       z     vdW  Elec       q    Type
REMARK                         _______ _______ _______ _____ _____    ______ ____
ROOT
ATOM      1  C   UNL     1       4.950   6.123  16.251  0.00  0.00    +0.000 C 
ATOM      2  O   UNL     1       5.127   7.141  15.572  0.00  0.00    +0.000 OA
ATOM      3  N   UNL     1       4.209   6.183  17.454  0.00  0.00    +0.000 N 
ATOM      4  C   UNL     1       3.858   5.003  18.109  0.00  0.00    +0.000 A 
ATOM      5  N   UNL     1       3.765   3.813  17.569  0.00  0.00    +0.000 NA
ATOM      6  C   UNL     1       3.443   2.871  18.521  0.00  0.00    +0.000 A 
ATOM      7  C   UNL     1       3.212   3.368  19.782  0.00  0.00    +0.000 A 
ATOM      8  S   UNL     1       3.451   5.061  19.778  0.00  0.00    +0.000 S 
ENDROOT
BRANCH   1  10
ATOM      9  C   UNL     1       5.493   4.516  14.282  0.00  0.00    +0.000 C 
ATOM     10  C   UNL     1       5.611   4.766  15.792  0.00  0.00    +0.000 C 
BRANCH  10  11
ATOM     11  O   UNL     1       6.951   4.518  16.224  0.00  0.00    +0.000 OA
BRANCH  11  12
ATOM     12  C   UNL     1       7.101   4.186  17.597  0.00  0.00    +0.000 C 
BRANCH  12  13
ATOM     13  C   UNL     1       8.041   5.170  18.221  0.00  0.00    +0.000 C 
ATOM     14  C   UNL     1       7.650   6.625  18.274  0.00  0.00    +0.000 C 
ATOM     15  C   UNL     1       7.732   5.824  19.543  0.00  0.00    +0.000 C 
ENDBRANCH  12  13
ENDBRANCH  11  12
ENDBRANCH  10  11
ENDBRANCH   1  10
BRANCH   3  16
ATOM     16  C   UNL     1       3.747   7.514  17.911  0.00  0.00    +0.000 C 
BRANCH  16  17
ATOM     17  C   UNL     1       2.207   7.710  17.914  0.00  0.00    +0.000 C 
ATOM     18  C   UNL     1       1.474   7.619  19.280  0.00  0.00    +0.000 C 
ATOM     19  N   UNL     1       1.564   8.828  20.127  0.00  0.00    +0.000 NA
ATOM     20  C   UNL     1       0.694   8.692  21.300  0.00  0.00    +0.000 C 
ATOM     21  C   UNL     1       1.145   9.997  19.331  0.00  0.00    +0.000 C 
ATOM     22  C   UNL     1       1.986  10.106  18.056  0.00  0.00    +0.000 C 
ATOM     23  O   UNL     1       1.851   8.941  17.231  0.00  0.00    +0.000 OA
ENDBRANCH  16  17
ENDBRANCH   3  16
TORSDOF 6
ENDMDL
MODEL 5
REMARK VINA RESULT:      -5.5      2.224      5.854
REMARK  Name = 
REMARK  8 active torsions:
REMARK  status: ('A' for Active; 'I' for Inactive)
REMARK    1  A    between atoms: C_1  and  C_2
REMARK    2  A    between atoms: C_2  and  O_3
REMARK    3  A    between atoms: C_2  and  C_8
REMARK    4  A    between atoms: O_3  and  C_4
REMARK    5  A    between atoms: C_4  and  C_5
REMARK    6  A    between atoms: N_10  and  C_11
REMARK    7  A    between atoms: C_11  and  C_12
REMARK    8  A    between atoms: N_14  and  C_15
REMARK                            x       y       z     vdW  Elec       q    Type
REMARK                         _______ _______ _______ _____ _____    ______ ____
ROOT
ATOM      1  C   UNL     1       1.851   5.024  20.102  0.00  0.00    +0.000 C 
ATOM      2  O   UNL     1       0.684   5.207  20.467  0.00  0.00    +0.000 OA
ATOM      3  N   UNL     1       2.495   5.963  19.264  0.00  0.00    +0.000 N 
ATOM      4  C   UNL     1       3.862   5.844  19.015  0.00  0.00    +0.000 A 
ATOM      5  N   UNL     1       4.736   5.216  19.763  0.00  0.00    +0.000 NA
ATOM      6  C   UNL     1       5.987   5.258  19.187  0.00  0.00    +0.000 A 
ATOM      7  C   UNL     1       6.074   5.993  18.028  0.00  0.00    +0.000 A 
ATOM      8  S   UNL     1       4.531   6.612  17.630  0.00  0.00    +0.000 S 
ENDROOT
BRANCH   1  10
ATOM      9  C   UNL     1       2.340   3.313  21.996  0.00  0.00    +0.000 C 
ATOM     10  C   UNL     1       2.596   3.702  20.533  0.00  0.00    +0.000 C 
BRANCH  10  11
ATOM     11  O   UNL     1       2.429   2.560  19.688  0.00  0.00    +0.000 OA
BRANCH  11  12
ATOM     12  C   UNL     1       3.625   2.023  19.141  0.00  0.00    +0.000 C 
BRANCH  12  13
ATOM     13  C   UNL     1       3.502   2.022  17.649  0.00  0.00    +0.000 C 
ATOM     14  C   UNL     1       2.694   3.104  16.980  0.00  0.00    +0.000 C 
ATOM     15  C   UNL     1       4.186   3.065  16.802  0.00  0.00    +0.000 C 
ENDBRANCH  12  13
ENDBRANCH  11  12
ENDBRANCH  10  11
ENDBRANCH   1  10
BRANCH   3  16
ATOM     16  C   UNL     1       1.693   7.106  18.768  0.00  0.00    +0.000 C 
BRANCH  16  17
ATOM     17  C   UNL     1       1.985   8.464  19.461  0.00  0.00    +0.000 C 
ATOM     18  C   UNL     1       1.347   9.738  18.843  0.00  0.00    +0.000 C 
ATOM     19  N   UNL     1      -0.080   9.952  19.172  0.00  0.00    +0.000 NA
ATOM     20  C   UNL     1      -0.520  11.264  18.687  0.00  0.00    +0.000 C 
ATOM     21  C   UNL     1      -0.245   9.882  20.636  0.00  0.00    +0.000 C 
ATOM     22  C   UNL     1       0.291   8.551  21.172  0.00  0.00    +0.000 C 
ATOM     23  O   UNL     1       1.684   8.385  20.879  0.00  0.00    +0.000 OA
ENDBRANCH  16  17
ENDBRANCH   3  16
TORSDOF 6
ENDMDL
MODEL 6
REMARK VINA RESULT:      -5.3      2.913      5.750
REMARK  Name = 
REMARK  8 active torsions:
REMARK  status: ('A' for Active; 'I' for Inactive)
REMARK    1  A    between atoms: C_1  and  C_2
REMARK    2  A    between atoms: C_2  and  O_3
REMARK    3  A    between atoms: C_2  and  C_8
REMARK    4  A    between atoms: O_3  and  C_4
REMARK    5  A    between atoms: C_4  and  C_5
REMARK    6  A    between atoms: N_10  and  C_11
REMARK    7  A    between atoms: C_11  and  C_12
REMARK    8  A    between atoms: N_14  and  C_15
REMARK                            x       y       z     vdW  Elec       q    Type
REMARK                         _______ _______ _______ _____ _____    ______ ____
ROOT
ATOM      1  C   UNL     1       5.901   4.789  17.229  0.00  0.00    +0.000 C 
ATOM      2  O   UNL     1       6.765   3.931  17.441  0.00  0.00    +0.000 OA
ATOM      3  N   UNL     1       4.995   5.160  18.248  0.00  0.00    +0.000 N 
ATOM      4  C   UNL     1       4.152   6.255  18.058  0.00  0.00    +0.000 A 
ATOM      5  N   UNL     1       4.347   7.251  17.228  0.00  0.00    +0.000 NA
ATOM      6  C   UNL     1       3.287   8.130  17.268  0.00  0.00    +0.000 A 
ATOM      7  C   UNL     1       2.317   7.837  18.196  0.00  0.00    +0.000 A 
ATOM      8  S   UNL     1       2.727   6.391  19.010  0.00  0.00    +0.000 S 
ENDROOT
BRANCH   1  10
ATOM      9  C   UNL     1       7.128   5.894  15.222  0.00  0.00    +0.000 C 
ATOM     10  C   UNL     1       5.781   5.423  15.789  0.00  0.00    +0.000 C 
BRANCH  10  11
ATOM     11  O   UNL     1       5.075   4.665  14.803  0.00  0.00    +0.000 OA
BRANCH  11  12
ATOM     12  C   UNL     1       5.822   3.638  14.169  0.00  0.00    +0.000 C 
BRANCH  12  13
ATOM     13  C   UNL     1       5.743   3.842  12.688  0.00  0.00    +0.000 C 
ATOM     14  C   UNL     1       6.057   2.687  11.772  0.00  0.00    +0.000 C 
ATOM     15  C   UNL     1       4.651   3.209  11.863  0.00  0.00    +0.000 C 
ENDBRANCH  12  13
ENDBRANCH  11  12
ENDBRANCH  10  11
ENDBRANCH   1  10
BRANCH   3  16
ATOM     16  C   UNL     1       5.058   4.419  19.529  0.00  0.00    +0.000 C 
BRANCH  16  17
ATOM     17  C   UNL     1       4.465   2.984  19.487  0.00  0.00    +0.000 C 
ATOM     18  C   UNL     1       3.540   2.554  20.658  0.00  0.00    +0.000 C 
ATOM     19  N   UNL     1       2.152   3.060  20.584  0.00  0.00    +0.000 NA
ATOM     20  C   UNL     1       1.333   2.448  21.637  0.00  0.00    +0.000 C 
ATOM     21  C   UNL     1       1.593   2.722  19.261  0.00  0.00    +0.000 C 
ATOM     22  C   UNL     1       2.484   3.278  18.146  0.00  0.00    +0.000 C 
ATOM     23  O   UNL     1       3.812   2.742  18.213  0.00  0.00    +0.000 OA
ENDBRANCH  16  17
ENDBRANCH   3  16
TORSDOF 6
ENDMDL
MODEL 7
REMARK VINA RESULT:      -5.3      1.999      5.115
REMARK  Name = 
REMARK  8 active torsions:
REMARK  status: ('A' for Active; 'I' for Inactive)
REMARK    1  A    between atoms: C_1  and  C_2
REMARK    2  A    between atoms: C_2  and  O_3
REMARK    3  A    between atoms: C_2  and  C_8
REMARK    4  A    between atoms: O_3  and  C_4
REMARK    5  A    between atoms: C_4  and  C_5
REMARK    6  A    between atoms: N_10  and  C_11
REMARK    7  A    between atoms: C_11  and  C_12
REMARK    8  A    between atoms: N_14  and  C_15
REMARK                            x       y       z     vdW  Elec       q    Type
REMARK                         _______ _______ _______ _____ _____    ______ ____
ROOT
ATOM      1  C   UNL     1       4.276   4.712  19.131  0.00  0.00    +0.000 C 
ATOM      2  O   UNL     1       3.703   5.045  20.174  0.00  0.00    +0.000 OA
ATOM      3  N   UNL     1       4.543   5.667  18.123  0.00  0.00    +0.000 N 
ATOM      4  C   UNL     1       5.352   5.322  17.041  0.00  0.00    +0.000 A 
ATOM      5  N   UNL     1       6.240   4.358  17.010  0.00  0.00    +0.000 NA
ATOM      6  C   UNL     1       6.819   4.271  15.764  0.00  0.00    +0.000 A 
ATOM      7  C   UNL     1       6.421   5.231  14.864  0.00  0.00    +0.000 A 
ATOM      8  S   UNL     1       5.253   6.244  15.594  0.00  0.00    +0.000 S 
ENDROOT
BRANCH   1  10
ATOM      9  C   UNL     1       4.781   2.407  20.220  0.00  0.00    +0.000 C 
ATOM     10  C   UNL     1       4.654   3.196  18.909  0.00  0.00    +0.000 C 
BRANCH  10  11
ATOM     11  O   UNL     1       3.863   2.461  17.971  0.00  0.00    +0.000 OA
BRANCH  11  12
ATOM     12  C   UNL     1       2.536   2.931  17.788  0.00  0.00    +0.000 C 
BRANCH  12  13
ATOM     13  C   UNL     1       1.633   2.168  18.707  0.00  0.00    +0.000 C 
ATOM     14  C   UNL     1       1.154   2.826  19.976  0.00  0.00    +0.000 C 
ATOM     15  C   UNL     1       0.180   2.537  18.868  0.00  0.00    +0.000 C 
ENDBRANCH  12  13
ENDBRANCH  11  12
ENDBRANCH  10  11
ENDBRANCH   1  10
BRANCH   3  16
ATOM     16  C   UNL     1       4.026   7.040  18.323  0.00  0.00    +0.000 C 
BRANCH  16  17
ATOM     17  C   UNL     1       2.488   7.193  18.169  0.00  0.00    +0.000 C 
ATOM     18  C   UNL     1       1.641   7.280  19.467  0.00  0.00    +0.000 C 
ATOM     19  N   UNL     1       1.640   8.600  20.133  0.00  0.00    +0.000 NA
ATOM     20  C   UNL     1       0.672   8.610  21.236  0.00  0.00    +0.000 C 
ATOM     21  C   UNL     1       1.275   9.631  19.143  0.00  0.00    +0.000 C 
ATOM     22  C   UNL     1       2.222   9.577  17.941  0.00  0.00    +0.000 C 
ATOM     23  O   UNL     1       2.175   8.302  17.287  0.00  0.00    +0.000 OA
ENDBRANCH  16  17
ENDBRANCH   3  16
TORSDOF 6
ENDMDL
MODEL 8
REMARK VINA RESULT:      -5.2      2.779      5.485
REMARK  Name = 
REMARK  8 active torsions:
REMARK  status: ('A' for Active; 'I' for Inactive)
REMARK    1  A    between atoms: C_1  and  C_2
REMARK    2  A    between atoms: C_2  and  O_3
REMARK    3  A    between atoms: C_2  and  C_8
REMARK    4  A    between atoms: O_3  and  C_4
REMARK    5  A    between atoms: C_4  and  C_5
REMARK    6  A    between atoms: N_10  and  C_11
REMARK    7  A    between atoms: C_11  and  C_12
REMARK    8  A    between atoms: N_14  and  C_15
REMARK                            x       y       z     vdW  Elec       q    Type
REMARK                         _______ _______ _______ _____ _____    ______ ____
ROOT
ATOM      1  C   UNL     1       6.363   5.495  18.307  0.00  0.00    +0.000 C 
ATOM      2  O   UNL     1       7.194   4.732  18.811  0.00  0.00    +0.000 OA
ATOM      3  N   UNL     1       5.029   5.513  18.775  0.00  0.00    +0.000 N 
ATOM      4  C   UNL     1       4.154   6.503  18.331  0.00  0.00    +0.000 A 
ATOM      5  N   UNL     1       4.487   7.674  17.844  0.00  0.00    +0.000 NA
ATOM      6  C   UNL     1       3.367   8.377  17.461  0.00  0.00    +0.000 A 
ATOM      7  C   UNL     1       2.167   7.764  17.735  0.00  0.00    +0.000 A 
ATOM      8  S   UNL     1       2.459   6.240  18.453  0.00  0.00    +0.000 S 
ENDROOT
BRANCH   1  10
ATOM      9  C   UNL     1       7.625   7.627  17.519  0.00  0.00    +0.000 C 
ATOM     10  C   UNL     1       6.791   6.409  17.094  0.00  0.00    +0.000 C 
BRANCH  10  11
ATOM     11  O   UNL     1       7.408   5.761  15.979  0.00  0.00    +0.000 OA
BRANCH  11  12
ATOM     12  C   UNL     1       6.788   4.557  15.550  0.00  0.00    +0.000 C 
BRANCH  12  13
ATOM     13  C   UNL     1       6.181   4.794  14.202  0.00  0.00    +0.000 C 
ATOM     14  C   UNL     1       6.743   4.065  13.008  0.00  0.00    +0.000 C 
ATOM     15  C   UNL     1       5.366   3.732  13.509  0.00  0.00    +0.000 C 
ENDBRANCH  12  13
ENDBRANCH  11  12
ENDBRANCH  10  11
ENDBRANCH   1  10
BRANCH   3  16
ATOM     16  C   UNL     1       4.651   4.522  19.809  0.00  0.00    +0.000 C 
BRANCH  16  17
ATOM     17  C   UNL     1       4.403   3.083  19.282  0.00  0.00    +0.000 C 
ATOM     18  C   UNL     1       3.044   2.416  19.624  0.00  0.00    +0.000 C 
ATOM     19  N   UNL     1       1.900   2.847  18.791  0.00  0.00    +0.000 NA
ATOM     20  C   UNL     1       0.721   2.026  19.085  0.00  0.00    +0.000 C 
ATOM     21  C   UNL     1       2.267   2.700  17.370  0.00  0.00    +0.000 C 
ATOM     22  C   UNL     1       3.549   3.481  17.064  0.00  0.00    +0.000 C 
ATOM     23  O   UNL     1       4.652   3.017  17.853  0.00  0.00    +0.000 OA
ENDBRANCH  16  17
ENDBRANCH   3  16
TORSDOF 6
ENDMDL
MODEL 9
REMARK VINA RESULT:      -5.2      2.480      6.099
REMARK  Name = 
REMARK  8 active torsions:
REMARK  status: ('A' for Active; 'I' for Inactive)
REMARK    1  A    between atoms: C_1  and  C_2
REMARK    2  A    between atoms: C_2  and  O_3
REMARK    3  A    between atoms: C_2  and  C_8
REMARK    4  A    between atoms: O_3  and  C_4
REMARK    5  A    between atoms: C_4  and  C_5
REMARK    6  A    between atoms: N_10  and  C_11
REMARK    7  A    between atoms: C_11  and  C_12
REMARK    8  A    between atoms: N_14  and  C_15
REMARK                            x       y       z     vdW  Elec       q    Type
REMARK                         _______ _______ _______ _____ _____    ______ ____
ROOT
ATOM      1  C   UNL     1       3.868   6.092  17.958  0.00  0.00    +0.000 C 
ATOM      2  O   UNL     1       3.785   7.033  17.160  0.00  0.00    +0.000 OA
ATOM      3  N   UNL     1       2.826   5.841  18.880  0.00  0.00    +0.000 N 
ATOM      4  C   UNL     1       2.844   4.672  19.640  0.00  0.00    +0.000 A 
ATOM      5  N   UNL     1       3.478   3.563  19.347  0.00  0.00    +0.000 NA
ATOM      6  C   UNL     1       3.314   2.631  20.347  0.00  0.00    +0.000 A 
ATOM      7  C   UNL     1       2.482   3.011  21.373  0.00  0.00    +0.000 A 
ATOM      8  S   UNL     1       1.926   4.603  21.092  0.00  0.00    +0.000 S 
ENDROOT
BRANCH   1  10
ATOM      9  C   UNL     1       5.560   4.671  16.589  0.00  0.00    +0.000 C 
ATOM     10  C   UNL     1       5.175   5.209  17.975  0.00  0.00    +0.000 C 
BRANCH  10  11
ATOM     11  O   UNL     1       6.324   5.764  18.620  0.00  0.00    +0.000 OA
BRANCH  11  12
ATOM     12  C   UNL     1       7.523   5.745  17.858  0.00  0.00    +0.000 C 
BRANCH  12  13
ATOM     13  C   UNL     1       7.723   7.104  17.261  0.00  0.00    +0.000 C 
ATOM     14  C   UNL     1       6.838   8.239  17.709  0.00  0.00    +0.000 C 
ATOM     15  C   UNL     1       8.298   8.241  18.068  0.00  0.00    +0.000 C 
ENDBRANCH  12  13
ENDBRANCH  11  12
ENDBRANCH  10  11
ENDBRANCH   1  10
BRANCH   3  16
ATOM     16  C   UNL     1       1.697   6.798  18.919  0.00  0.00    +0.000 C 
BRANCH  16  17
ATOM     17  C   UNL     1       2.025   8.178  19.551  0.00  0.00    +0.000 C 
ATOM     18  C   UNL     1       1.436   9.440  18.867  0.00  0.00    +0.000 C 
ATOM     19  N   UNL     1       0.014   9.715  19.166  0.00  0.00    +0.000 NA
ATOM     20  C   UNL     1      -0.377  11.017  18.615  0.00  0.00    +0.000 C 
ATOM     21  C   UNL     1      -0.171   9.720  20.630  0.00  0.00    +0.000 C 
ATOM     22  C   UNL     1       0.315   8.399  21.235  0.00  0.00    +0.000 C 
ATOM     23  O   UNL     1       1.705   8.175  20.968  0.00  0.00    +0.000 OA
ENDBRANCH  16  17
ENDBRANCH   3  16
TORSDOF 6
ENDMDL
