MODEL 1
REMARK VINA RESULT:      -7.8      0.000      0.000
REMARK  Name = 
REMARK  12 active torsions:
REMARK  status: ('A' for Active; 'I' for Inactive)
REMARK    1  A    between atoms: C_2  and  O_3
REMARK    2  A    between atoms: C_2  and  C_9
REMARK    3  A    between atoms: O_3  and  C_4
REMARK    4  A    between atoms: C_4  and  C_5
REMARK    5  A    between atoms: C_5  and  O_6
REMARK    6  A    between atoms: C_5  and  C_7
REMARK    7  A    between atoms: C_7  and  O_8
REMARK    8  A    between atoms: C_9  and  O_10
REMARK    9  A    between atoms: C_9  and  C_18
REMARK   10  A    between atoms: O_10  and  C_11
REMARK   11  A    between atoms: C_21  and  O_22
REMARK   12  A    between atoms: O_22  and  C_23
REMARK                            x       y       z     vdW  Elec       q    Type
REMARK                         _______ _______ _______ _____ _____    ______ ____
ROOT
ATOM      1  C   UNL     1       2.531   6.257  18.843  0.00  0.00    +0.000 C 
ENDROOT
BRANCH   1   2
ATOM      2  C   UNL     1       3.869   6.284  18.094  0.00  0.00    +0.000 A 
ATOM      3  C   UNL     1       3.955   6.906  16.837  0.00  0.00    +0.000 A 
ATOM      4  C   UNL     1       5.097   6.758  16.045  0.00  0.00    +0.000 A 
ATOM      5  C   UNL     1       6.174   5.994  16.495  0.00  0.00    +0.000 A 
ATOM      6  C   UNL     1       6.115   5.406  17.760  0.00  0.00    +0.000 A 
ATOM      7  C   UNL     1       4.994   5.596  18.573  0.00  0.00    +0.000 A 
BRANCH   5   8
ATOM      8  O   UNL     1       7.207   5.820  15.596  0.00  0.00    +0.000 OA
BRANCH   8   9
ATOM      9  C   UNL     1       7.009   5.034  14.486  0.00  0.00    +0.000 A 
ATOM     10  C   UNL     1       6.058   4.016  14.586  0.00  0.00    +0.000 A 
ATOM     11  C   UNL     1       5.831   3.165  13.500  0.00  0.00    +0.000 A 
ATOM     12  C   UNL     1       6.554   3.342  12.321  0.00  0.00    +0.000 A 
ATOM     13 CL   UNL     1       6.321   2.261  11.001  0.00  0.00    +0.000 Cl
ATOM     14  C   UNL     1       7.466   4.388  12.201  0.00  0.00    +0.000 A 
ATOM     15  C   UNL     1       7.668   5.250  13.278  0.00  0.00    +0.000 A 
ENDBRANCH   8   9
ENDBRANCH   5   8
ENDBRANCH   1   2
BRANCH   1  17
ATOM     16  O   UNL     1       1.266   4.141  18.526  0.00  0.00    +0.000 OA
ATOM     17  C   UNL     1       2.118   4.784  19.125  0.00  0.00    +0.000 C 
BRANCH  17  18
ATOM     18  O   UNL     1       2.812   4.307  20.204  0.00  0.00    +0.000 OA
BRANCH  18  19
ATOM     19  C   UNL     1       2.901   2.876  20.322  0.00  0.00    +0.000 C 
BRANCH  19  20
ATOM     20  C   UNL     1       4.064   2.413  19.433  0.00  0.00    +0.000 C 
BRANCH  20  21
ATOM     21  O   UNL     1       5.158   1.948  20.239  0.00  0.00    +0.000 OA
ATOM     22  H   UNL     1       5.059   2.339  21.125  0.00  0.00    +0.000 HD
ENDBRANCH  20  21
BRANCH  20  23
ATOM     23  C   UNL     1       3.648   1.301  18.474  0.00  0.00    +0.000 C 
BRANCH  23  24
ATOM     24  O   UNL     1       2.513   1.700  17.710  0.00  0.00    +0.000 OA
ATOM     25  H   UNL     1       2.363   1.009  17.041  0.00  0.00    +0.000 HD
ENDBRANCH  23  24
ENDBRANCH  20  23
ENDBRANCH  19  20
ENDBRANCH  18  19
ENDBRANCH  17  18
ENDBRANCH   1  17
BRANCH   1  26
ATOM     26  O   UNL     1       2.611   7.090  19.999  0.00  0.00    +0.000 OA
BRANCH  26  27
ATOM     27  C   UNL     1       1.736   8.149  20.067  0.00  0.00    +0.000 A 
ATOM     28  C   UNL     1       1.500   9.074  19.048  0.00  0.00    +0.000 A 
ATOM     29  C   UNL     1       0.581  10.116  19.221  0.00  0.00    +0.000 A 
ATOM     30  C   UNL     1      -0.119  10.232  20.418  0.00  0.00    +0.000 A 
ATOM     31 CL   UNL     1      -1.246  11.514  20.624  0.00  0.00    +0.000 Cl
ATOM     32  C   UNL     1       0.100   9.315  21.440  0.00  0.00    +0.000 A 
ATOM     33  C   UNL     1       1.020   8.273  21.262  0.00  0.00    +0.000 A 
ENDBRANCH  26  27
ENDBRANCH   1  26
TORSDOF 12
ENDMDL
MODEL 2
REMARK VINA RESULT:      -7.6      0.864      1.739
REMARK  Name = 
REMARK  12 active torsions:
REMARK  status: ('A' for Active; 'I' for Inactive)
REMARK    1  A    between atoms: C_2  and  O_3
REMARK    2  A    between atoms: C_2  and  C_9
REMARK    3  A    between atoms: O_3  and  C_4
REMARK    4  A    between atoms: C_4  and  C_5
REMARK    5  A    between atoms: C_5  and  O_6
REMARK    6  A    between atoms: C_5  and  C_7
REMARK    7  A    between atoms: C_7  and  O_8
REMARK    8  A    between atoms: C_9  and  O_10
REMARK    9  A    between atoms: C_9  and  C_18
REMARK   10  A    between atoms: O_10  and  C_11
REMARK   11  A    between atoms: C_21  and  O_22
REMARK   12  A    between atoms: O_22  and  C_23
REMARK                            x       y       z     vdW  Elec       q    Type
REMARK                         _______ _______ _______ _____ _____    ______ ____
ROOT
ATOM      1  C   UNL     1       2.311   6.429  19.372  0.00  0.00    +0.000 C 
ENDROOT
BRANCH   1   2
ATOM      2  C   UNL     1       3.642   6.377  18.611  0.00  0.00    +0.000 A 
ATOM      3  C   UNL     1       3.790   7.095  17.413  0.00  0.00    +0.000 A 
ATOM      4  C   UNL     1       4.907   6.895  16.595  0.00  0.00    +0.000 A 
ATOM      5  C   UNL     1       5.896   5.982  16.963  0.00  0.00    +0.000 A 
ATOM      6  C   UNL     1       5.777   5.294  18.172  0.00  0.00    +0.000 A 
ATOM      7  C   UNL     1       4.686   5.532  19.013  0.00  0.00    +0.000 A 
BRANCH   5   8
ATOM      8  O   UNL     1       6.900   5.777  16.039  0.00  0.00    +0.000 OA
BRANCH   8   9
ATOM      9  C   UNL     1       6.656   4.987  14.942  0.00  0.00    +0.000 A 
ATOM     10  C   UNL     1       7.474   5.175  13.825  0.00  0.00    +0.000 A 
ATOM     11  C   UNL     1       7.258   4.419  12.668  0.00  0.00    +0.000 A 
ATOM     12  C   UNL     1       6.228   3.479  12.639  0.00  0.00    +0.000 A 
ATOM     13 CL   UNL     1       5.920   2.589  11.198  0.00  0.00    +0.000 Cl
ATOM     14  C   UNL     1       5.444   3.253  13.767  0.00  0.00    +0.000 A 
ATOM     15  C   UNL     1       5.682   3.990  14.928  0.00  0.00    +0.000 A 
ENDBRANCH   8   9
ENDBRANCH   5   8
ENDBRANCH   1   2
BRANCH   1  17
ATOM     16  O   UNL     1       2.028   4.550  20.975  0.00  0.00    +0.000 OA
ATOM     17  C   UNL     1       1.919   4.998  19.840  0.00  0.00    +0.000 C 
BRANCH  17  18
ATOM     18  O   UNL     1       1.481   4.265  18.771  0.00  0.00    +0.000 OA
BRANCH  18  19
ATOM     19  C   UNL     1       1.424   2.839  18.957  0.00  0.00    +0.000 C 
BRANCH  19  20
ATOM     20  C   UNL     1       2.528   2.219  18.088  0.00  0.00    +0.000 C 
BRANCH  20  21
ATOM     21  O   UNL     1       2.951   3.146  17.076  0.00  0.00    +0.000 OA
ATOM     22  H   UNL     1       3.740   3.610  17.412  0.00  0.00    +0.000 HD
ENDBRANCH  20  21
BRANCH  20  23
ATOM     23  C   UNL     1       3.742   1.799  18.913  0.00  0.00    +0.000 C 
BRANCH  23  24
ATOM     24  O   UNL     1       4.346   0.635  18.354  0.00  0.00    +0.000 OA
ATOM     25  H   UNL     1       3.632   0.110  17.951  0.00  0.00    +0.000 HD
ENDBRANCH  23  24
ENDBRANCH  20  23
ENDBRANCH  19  20
ENDBRANCH  18  19
ENDBRANCH  17  18
ENDBRANCH   1  17
BRANCH   1  26
ATOM     26  O   UNL     1       2.391   7.401  20.414  0.00  0.00    +0.000 OA
BRANCH  26  27
ATOM     27  C   UNL     1       1.441   8.395  20.414  0.00  0.00    +0.000 A 
ATOM     28  C   UNL     1       0.641   8.754  21.500  0.00  0.00    +0.000 A 
ATOM     29  C   UNL     1      -0.298   9.789  21.392  0.00  0.00    +0.000 A 
ATOM     30  C   UNL     1      -0.431  10.480  20.193  0.00  0.00    +0.000 A 
ATOM     31 CL   UNL     1      -1.585  11.749  20.067  0.00  0.00    +0.000 Cl
ATOM     32  C   UNL     1       0.362  10.139  19.104  0.00  0.00    +0.000 A 
ATOM     33  C   UNL     1       1.301   9.104  19.216  0.00  0.00    +0.000 A 
ENDBRANCH  26  27
ENDBRANCH   1  26
TORSDOF 12
ENDMDL
MODEL 3
REMARK VINA RESULT:      -7.4      2.523      8.294
REMARK  Name = 
REMARK  12 active torsions:
REMARK  status: ('A' for Active; 'I' for Inactive)
REMARK    1  A    between atoms: C_2  and  O_3
REMARK    2  A    between atoms: C_2  and  C_9
REMARK    3  A    between atoms: O_3  and  C_4
REMARK    4  A    between atoms: C_4  and  C_5
REMARK    5  A    between atoms: C_5  and  O_6
REMARK    6  A    between atoms: C_5  and  C_7
REMARK    7  A    between atoms: C_7  and  O_8
REMARK    8  A    between atoms: C_9  and  O_10
REMARK    9  A    between atoms: C_9  and  C_18
REMARK   10  A    between atoms: O_10  and  C_11
REMARK   11  A    between atoms: C_21  and  O_22
REMARK   12  A    between atoms: O_22  and  C_23
REMARK                            x       y       z     vdW  Elec       q    Type
REMARK                         _______ _______ _______ _____ _____    ______ ____
ROOT
ATOM      1  C   UNL     1       2.645   6.146  19.548  0.00  0.00    +0.000 C 
ENDROOT
BRANCH   1   2
ATOM      2  C   UNL     1       2.006   7.520  19.786  0.00  0.00    +0.000 A 
ATOM      3  C   UNL     1       1.417   7.811  21.028  0.00  0.00    +0.000 A 
ATOM      4  C   UNL     1       0.645   8.964  21.198  0.00  0.00    +0.000 A 
ATOM      5  C   UNL     1       0.454   9.849  20.136  0.00  0.00    +0.000 A 
ATOM      6  C   UNL     1       1.070   9.589  18.910  0.00  0.00    +0.000 A 
ATOM      7  C   UNL     1       1.882   8.463  18.755  0.00  0.00    +0.000 A 
BRANCH   5   8
ATOM      8  O   UNL     1      -0.410  10.898  20.373  0.00  0.00    +0.000 OA
BRANCH   8   9
ATOM      9  C   UNL     1      -0.037  12.172  20.017  0.00  0.00    +0.000 A 
ATOM     10  C   UNL     1       0.972  12.776  20.771  0.00  0.00    +0.000 A 
ATOM     11  C   UNL     1       1.377  14.081  20.475  0.00  0.00    +0.000 A 
ATOM     12  C   UNL     1       0.773  14.771  19.425  0.00  0.00    +0.000 A 
ATOM     13 CL   UNL     1       1.225  16.399  19.093  0.00  0.00    +0.000 Cl
ATOM     14  C   UNL     1      -0.197  14.154  18.639  0.00  0.00    +0.000 A 
ATOM     15  C   UNL     1      -0.577  12.842  18.922  0.00  0.00    +0.000 A 
ENDBRANCH   8   9
ENDBRANCH   5   8
ENDBRANCH   1   2
BRANCH   1  17
ATOM     16  O   UNL     1       2.571   4.768  21.615  0.00  0.00    +0.000 OA
ATOM     17  C   UNL     1       2.062   5.116  20.557  0.00  0.00    +0.000 C 
BRANCH  17  18
ATOM     18  O   UNL     1       0.901   4.588  20.062  0.00  0.00    +0.000 OA
BRANCH  18  19
ATOM     19  C   UNL     1       0.676   3.190  20.320  0.00  0.00    +0.000 C 
BRANCH  19  20
ATOM     20  C   UNL     1       1.062   2.421  19.048  0.00  0.00    +0.000 C 
BRANCH  20  21
ATOM     21  O   UNL     1       0.956   3.270  17.895  0.00  0.00    +0.000 OA
ATOM     22  H   UNL     1       0.349   2.840  17.266  0.00  0.00    +0.000 HD
ENDBRANCH  20  21
BRANCH  20  23
ATOM     23  C   UNL     1       2.481   1.863  19.122  0.00  0.00    +0.000 C 
BRANCH  23  24
ATOM     24  O   UNL     1       2.898   1.392  17.842  0.00  0.00    +0.000 OA
ATOM     25  H   UNL     1       2.199   0.798  17.516  0.00  0.00    +0.000 HD
ENDBRANCH  23  24
ENDBRANCH  20  23
ENDBRANCH  19  20
ENDBRANCH  18  19
ENDBRANCH  17  18
ENDBRANCH   1  17
BRANCH   1  26
ATOM     26  O   UNL     1       2.508   5.784  18.174  0.00  0.00    +0.000 OA
BRANCH  26  27
ATOM     27  C   UNL     1       3.665   5.674  17.440  0.00  0.00    +0.000 A 
ATOM     28  C   UNL     1       4.508   6.730  17.090  0.00  0.00    +0.000 A 
ATOM     29  C   UNL     1       5.670   6.506  16.339  0.00  0.00    +0.000 A 
ATOM     30  C   UNL     1       5.999   5.215  15.942  0.00  0.00    +0.000 A 
ATOM     31 CL   UNL     1       7.426   4.947  15.020  0.00  0.00    +0.000 Cl
ATOM     32  C   UNL     1       5.173   4.151  16.287  0.00  0.00    +0.000 A 
ATOM     33  C   UNL     1       4.013   4.380  17.040  0.00  0.00    +0.000 A 
ENDBRANCH  26  27
ENDBRANCH   1  26
TORSDOF 12
ENDMDL
MODEL 4
REMARK VINA RESULT:      -7.4      2.214      8.115
REMARK  Name = 
REMARK  12 active torsions:
REMARK  status: ('A' for Active; 'I' for Inactive)
REMARK    1  A    between atoms: C_2  and  O_3
REMARK    2  A    between atoms: C_2  and  C_9
REMARK    3  A    between atoms: O_3  and  C_4
REMARK    4  A    between atoms: C_4  and  C_5
REMARK    5  A    between atoms: C_5  and  O_6
REMARK    6  A    between atoms: C_5  and  C_7
REMARK    7  A    between atoms: C_7  and  O_8
REMARK    8  A    between atoms: C_9  and  O_10
REMARK    9  A    between atoms: C_9  and  C_18
REMARK   10  A    between atoms: O_10  and  C_11
REMARK   11  A    between atoms: C_21  and  O_22
REMARK   12  A    between atoms: O_22  and  C_23
REMARK                            x       y       z     vdW  Elec       q    Type
REMARK                         _______ _______ _______ _____ _____    ______ ____
ROOT
ATOM      1  C   UNL     1       3.497   6.049  19.074  0.00  0.00    +0.000 C 
ENDROOT
BRANCH   1   2
ATOM      2  C   UNL     1       2.561   7.262  18.999  0.00  0.00    +0.000 A 
ATOM      3  C   UNL     1       2.528   8.048  17.835  0.00  0.00    +0.000 A 
ATOM      4  C   UNL     1       1.851   9.272  17.820  0.00  0.00    +0.000 A 
ATOM      5  C   UNL     1       1.192   9.727  18.962  0.00  0.00    +0.000 A 
ATOM      6  C   UNL     1       1.185   8.934  20.111  0.00  0.00    +0.000 A 
ATOM      7  C   UNL     1       1.819   7.688  20.110  0.00  0.00    +0.000 A 
BRANCH   5   8
ATOM      8  O   UNL     1       0.648  10.993  18.879  0.00  0.00    +0.000 OA
BRANCH   8   9
ATOM      9  C   UNL     1      -0.711  11.133  18.729  0.00  0.00    +0.000 A 
ATOM     10  C   UNL     1      -1.369  11.977  19.627  0.00  0.00    +0.000 A 
ATOM     11  C   UNL     1      -2.755  12.140  19.542  0.00  0.00    +0.000 A 
ATOM     12  C   UNL     1      -3.472  11.461  18.558  0.00  0.00    +0.000 A 
ATOM     13 CL   UNL     1      -5.185  11.612  18.486  0.00  0.00    +0.000 Cl
ATOM     14  C   UNL     1      -2.813  10.659  17.629  0.00  0.00    +0.000 A 
ATOM     15  C   UNL     1      -1.427  10.522  17.702  0.00  0.00    +0.000 A 
ENDBRANCH   8   9
ENDBRANCH   5   8
ENDBRANCH   1   2
BRANCH   1  17
ATOM     16  O   UNL     1       1.959   4.842  17.538  0.00  0.00    +0.000 OA
ATOM     17  C   UNL     1       2.809   4.817  18.420  0.00  0.00    +0.000 C 
BRANCH  17  18
ATOM     18  O   UNL     1       3.248   3.669  19.021  0.00  0.00    +0.000 OA
BRANCH  18  19
ATOM     19  C   UNL     1       2.882   3.492  20.402  0.00  0.00    +0.000 C 
BRANCH  19  20
ATOM     20  C   UNL     1       1.742   2.466  20.447  0.00  0.00    +0.000 C 
BRANCH  20  21
ATOM     21  O   UNL     1       0.522   3.088  20.879  0.00  0.00    +0.000 OA
ATOM     22  H   UNL     1       0.651   4.053  20.838  0.00  0.00    +0.000 HD
ENDBRANCH  20  21
BRANCH  20  23
ATOM     23  C   UNL     1       1.506   1.807  19.090  0.00  0.00    +0.000 C 
BRANCH  23  24
ATOM     24  O   UNL     1       0.362   2.371  18.454  0.00  0.00    +0.000 OA
ATOM     25  H   UNL     1      -0.401   1.819  18.700  0.00  0.00    +0.000 HD
ENDBRANCH  23  24
ENDBRANCH  20  23
ENDBRANCH  19  20
ENDBRANCH  18  19
ENDBRANCH  17  18
ENDBRANCH   1  17
BRANCH   1  26
ATOM     26  O   UNL     1       4.770   6.389  18.524  0.00  0.00    +0.000 OA
BRANCH  26  27
ATOM     27  C   UNL     1       5.162   5.712  17.394  0.00  0.00    +0.000 A 
ATOM     28  C   UNL     1       5.720   4.432  17.366  0.00  0.00    +0.000 A 
ATOM     29  C   UNL     1       6.082   3.830  16.154  0.00  0.00    +0.000 A 
ATOM     30  C   UNL     1       5.876   4.507  14.957  0.00  0.00    +0.000 A 
ATOM     31 CL   UNL     1       6.323   3.763  13.472  0.00  0.00    +0.000 Cl
ATOM     32  C   UNL     1       5.316   5.779  14.966  0.00  0.00    +0.000 A 
ATOM     33  C   UNL     1       4.954   6.377  16.181  0.00  0.00    +0.000 A 
ENDBRANCH  26  27
ENDBRANCH   1  26
TORSDOF 12
ENDMDL
MODEL 5
REMARK VINA RESULT:      -7.3      2.370      7.991
REMARK  Name = 
REMARK  12 active torsions:
REMARK  status: ('A' for Active; 'I' for Inactive)
REMARK    1  A    between atoms: C_2  and  O_3
REMARK    2  A    between atoms: C_2  and  C_9
REMARK    3  A    between atoms: O_3  and  C_4
REMARK    4  A    between atoms: C_4  and  C_5
REMARK    5  A    between atoms: C_5  and  O_6
REMARK    6  A    between atoms: C_5  and  C_7
REMARK    7  A    between atoms: C_7  and  O_8
REMARK    8  A    between atoms: C_9  and  O_10
REMARK    9  A    between atoms: C_9  and  C_18
REMARK   10  A    between atoms: O_10  and  C_11
REMARK   11  A    between atoms: C_21  and  O_22
REMARK   12  A    between atoms: O_22  and  C_23
REMARK                            x       y       z     vdW  Elec       q    Type
REMARK                         _______ _______ _______ _____ _____    ______ ____
ROOT
ATOM      1  C   UNL     1       2.930   6.178  19.348  0.00  0.00    +0.000 C 
ENDROOT
BRANCH   1   2
ATOM      2  C   UNL     1       2.404   7.607  19.168  0.00  0.00    +0.000 A 
ATOM      3  C   UNL     1       1.680   8.221  20.205  0.00  0.00    +0.000 A 
ATOM      4  C   UNL     1       1.011   9.430  19.988  0.00  0.00    +0.000 A 
ATOM      5  C   UNL     1       1.059  10.048  18.738  0.00  0.00    +0.000 A 
ATOM      6  C   UNL     1       1.809   9.466  17.715  0.00  0.00    +0.000 A 
ATOM      7  C   UNL     1       2.519   8.285  17.946  0.00  0.00    +0.000 A 
BRANCH   5   8
ATOM      8  O   UNL     1       0.279  11.177  18.595  0.00  0.00    +0.000 OA
BRANCH   8   9
ATOM      9  C   UNL     1      -1.071  11.041  18.378  0.00  0.00    +0.000 A 
ATOM     10  C   UNL     1      -1.915  11.964  19.002  0.00  0.00    +0.000 A 
ATOM     11  C   UNL     1      -3.300  11.861  18.842  0.00  0.00    +0.000 A 
ATOM     12  C   UNL     1      -3.831  10.839  18.056  0.00  0.00    +0.000 A 
ATOM     13 CL   UNL     1      -5.538  10.672  17.904  0.00  0.00    +0.000 Cl
ATOM     14  C   UNL     1      -2.991   9.948  17.392  0.00  0.00    +0.000 A 
ATOM     15  C   UNL     1      -1.609  10.073  17.533  0.00  0.00    +0.000 A 
ENDBRANCH   8   9
ENDBRANCH   5   8
ENDBRANCH   1   2
BRANCH   1  17
ATOM     16  O   UNL     1       1.687   5.350  17.361  0.00  0.00    +0.000 OA
ATOM     17  C   UNL     1       2.060   5.192  18.517  0.00  0.00    +0.000 C 
BRANCH  17  18
ATOM     18  O   UNL     1       1.706   4.121  19.291  0.00  0.00    +0.000 OA
BRANCH  18  19
ATOM     19  C   UNL     1       1.783   4.312  20.716  0.00  0.00    +0.000 C 
BRANCH  19  20
ATOM     20  C   UNL     1       2.678   3.199  21.279  0.00  0.00    +0.000 C 
BRANCH  20  21
ATOM     21  O   UNL     1       1.932   2.358  22.172  0.00  0.00    +0.000 OA
ATOM     22  H   UNL     1       2.553   2.009  22.837  0.00  0.00    +0.000 HD
ENDBRANCH  20  21
BRANCH  20  23
ATOM     23  C   UNL     1       3.285   2.335  20.177  0.00  0.00    +0.000 C 
BRANCH  23  24
ATOM     24  O   UNL     1       4.656   2.061  20.458  0.00  0.00    +0.000 OA
ATOM     25  H   UNL     1       4.971   2.762  21.054  0.00  0.00    +0.000 HD
ENDBRANCH  23  24
ENDBRANCH  20  23
ENDBRANCH  19  20
ENDBRANCH  18  19
ENDBRANCH  17  18
ENDBRANCH   1  17
BRANCH   1  26
ATOM     26  O   UNL     1       4.327   6.139  19.057  0.00  0.00    +0.000 OA
BRANCH  26  27
ATOM     27  C   UNL     1       4.700   5.562  17.867  0.00  0.00    +0.000 A 
ATOM     28  C   UNL     1       4.825   4.191  17.633  0.00  0.00    +0.000 A 
ATOM     29  C   UNL     1       5.209   3.707  16.376  0.00  0.00    +0.000 A 
ATOM     30  C   UNL     1       5.463   4.598  15.339  0.00  0.00    +0.000 A 
ATOM     31 CL   UNL     1       5.936   3.997  13.799  0.00  0.00    +0.000 Cl
ATOM     32  C   UNL     1       5.338   5.966  15.553  0.00  0.00    +0.000 A 
ATOM     33  C   UNL     1       4.951   6.446  16.812  0.00  0.00    +0.000 A 
ENDBRANCH  26  27
ENDBRANCH   1  26
TORSDOF 12
ENDMDL
MODEL 6
REMARK VINA RESULT:      -7.3      2.384      8.919
REMARK  Name = 
REMARK  12 active torsions:
REMARK  status: ('A' for Active; 'I' for Inactive)
REMARK    1  A    between atoms: C_2  and  O_3
REMARK    2  A    between atoms: C_2  and  C_9
REMARK    3  A    between atoms: O_3  and  C_4
REMARK    4  A    between atoms: C_4  and  C_5
REMARK    5  A    between atoms: C_5  and  O_6
REMARK    6  A    between atoms: C_5  and  C_7
REMARK    7  A    between atoms: C_7  and  O_8
REMARK    8  A    between atoms: C_9  and  O_10
REMARK    9  A    between atoms: C_9  and  C_18
REMARK   10  A    between atoms: O_10  and  C_11
REMARK   11  A    between atoms: C_21  and  O_22
REMARK   12  A    between atoms: O_22  and  C_23
REMARK                            x       y       z     vdW  Elec       q    Type
REMARK                         _______ _______ _______ _____ _____    ______ ____
ROOT
ATOM      1  C   UNL     1       2.421   6.513  19.642  0.00  0.00    +0.000 C 
ENDROOT
BRANCH   1   2
ATOM      2  C   UNL     1       1.748   7.787  20.166  0.00  0.00    +0.000 A 
ATOM      3  C   UNL     1       1.407   8.816  19.273  0.00  0.00    +0.000 A 
ATOM      4  C   UNL     1       0.994  10.065  19.747  0.00  0.00    +0.000 A 
ATOM      5  C   UNL     1       0.906  10.305  21.119  0.00  0.00    +0.000 A 
ATOM      6  C   UNL     1       1.203   9.275  22.014  0.00  0.00    +0.000 A 
ATOM      7  C   UNL     1       1.567   8.012  21.539  0.00  0.00    +0.000 A 
BRANCH   5   8
ATOM      8  O   UNL     1       0.595  11.598  21.486  0.00  0.00    +0.000 OA
BRANCH   8   9
ATOM      9  C   UNL     1      -0.723  11.952  21.653  0.00  0.00    +0.000 A 
ATOM     10  C   UNL     1      -1.287  11.738  22.912  0.00  0.00    +0.000 A 
ATOM     11  C   UNL     1      -2.631  12.053  23.136  0.00  0.00    +0.000 A 
ATOM     12  C   UNL     1      -3.399  12.582  22.100  0.00  0.00    +0.000 A 
ATOM     13 CL   UNL     1      -5.069  12.917  22.353  0.00  0.00    +0.000 Cl
ATOM     14  C   UNL     1      -2.826  12.844  20.858  0.00  0.00    +0.000 A 
ATOM     15  C   UNL     1      -1.478  12.554  20.649  0.00  0.00    +0.000 A 
ENDBRANCH   8   9
ENDBRANCH   5   8
ENDBRANCH   1   2
BRANCH   1  17
ATOM     16  O   UNL     1       0.632   5.046  20.550  0.00  0.00    +0.000 OA
ATOM     17  C   UNL     1       1.820   5.270  20.359  0.00  0.00    +0.000 C 
BRANCH  17  18
ATOM     18  O   UNL     1       2.829   4.467  20.816  0.00  0.00    +0.000 OA
BRANCH  18  19
ATOM     19  C   UNL     1       2.434   3.191  21.354  0.00  0.00    +0.000 C 
BRANCH  19  20
ATOM     20  C   UNL     1       2.889   2.113  20.361  0.00  0.00    +0.000 C 
BRANCH  20  21
ATOM     21  O   UNL     1       1.954   2.001  19.277  0.00  0.00    +0.000 OA
ATOM     22  H   UNL     1       1.314   1.304  19.509  0.00  0.00    +0.000 HD
ENDBRANCH  20  21
BRANCH  20  23
ATOM     23  C   UNL     1       4.275   2.405  19.790  0.00  0.00    +0.000 C 
BRANCH  23  24
ATOM     24  O   UNL     1       5.265   1.635  20.467  0.00  0.00    +0.000 OA
ATOM     25  H   UNL     1       5.520   0.910  19.870  0.00  0.00    +0.000 HD
ENDBRANCH  23  24
ENDBRANCH  20  23
ENDBRANCH  19  20
ENDBRANCH  18  19
ENDBRANCH  17  18
ENDBRANCH   1  17
BRANCH   1  26
ATOM     26  O   UNL     1       2.343   6.480  18.217  0.00  0.00    +0.000 OA
BRANCH  26  27
ATOM     27  C   UNL     1       3.479   6.104  17.539  0.00  0.00    +0.000 A 
ATOM     28  C   UNL     1       4.489   6.965  17.107  0.00  0.00    +0.000 A 
ATOM     29  C   UNL     1       5.611   6.474  16.425  0.00  0.00    +0.000 A 
ATOM     30  C   UNL     1       5.730   5.110  16.180  0.00  0.00    +0.000 A 
ATOM     31 CL   UNL     1       7.108   4.514  15.342  0.00  0.00    +0.000 Cl
ATOM     32  C   UNL     1       4.736   4.239  16.609  0.00  0.00    +0.000 A 
ATOM     33  C   UNL     1       3.616   4.734  17.292  0.00  0.00    +0.000 A 
ENDBRANCH  26  27
ENDBRANCH   1  26
TORSDOF 12
ENDMDL
MODEL 7
REMARK VINA RESULT:      -7.3      4.393      7.943
REMARK  Name = 
REMARK  12 active torsions:
REMARK  status: ('A' for Active; 'I' for Inactive)
REMARK    1  A    between atoms: C_2  and  O_3
REMARK    2  A    between atoms: C_2  and  C_9
REMARK    3  A    between atoms: O_3  and  C_4
REMARK    4  A    between atoms: C_4  and  C_5
REMARK    5  A    between atoms: C_5  and  O_6
REMARK    6  A    between atoms: C_5  and  C_7
REMARK    7  A    between atoms: C_7  and  O_8
REMARK    8  A    between atoms: C_9  and  O_10
REMARK    9  A    between atoms: C_9  and  C_18
REMARK   10  A    between atoms: O_10  and  C_11
REMARK   11  A    between atoms: C_21  and  O_22
REMARK   12  A    between atoms: O_22  and  C_23
REMARK                            x       y       z     vdW  Elec       q    Type
REMARK                         _______ _______ _______ _____ _____    ______ ____
ROOT
ATOM      1  C   UNL     1      -0.482  11.077  20.186  0.00  0.00    +0.000 C 
ENDROOT
BRANCH   1   2
ATOM      2  C   UNL     1       0.374   9.949  19.596  0.00  0.00    +0.000 A 
ATOM      3  C   UNL     1       0.952   8.993  20.448  0.00  0.00    +0.000 A 
ATOM      4  C   UNL     1       1.904   8.090  19.964  0.00  0.00    +0.000 A 
ATOM      5  C   UNL     1       2.289   8.121  18.624  0.00  0.00    +0.000 A 
ATOM      6  C   UNL     1       1.690   9.041  17.761  0.00  0.00    +0.000 A 
ATOM      7  C   UNL     1       0.702   9.910  18.233  0.00  0.00    +0.000 A 
BRANCH   5   8
ATOM      8  O   UNL     1       3.310   7.264  18.270  0.00  0.00    +0.000 OA
BRANCH   8   9
ATOM      9  C   UNL     1       3.123   5.908  18.390  0.00  0.00    +0.000 A 
ATOM     10  C   UNL     1       4.060   5.198  19.145  0.00  0.00    +0.000 A 
ATOM     11  C   UNL     1       3.940   3.812  19.281  0.00  0.00    +0.000 A 
ATOM     12  C   UNL     1       2.882   3.146  18.664  0.00  0.00    +0.000 A 
ATOM     13 CL   UNL     1       2.761   1.432  18.779  0.00  0.00    +0.000 Cl
ATOM     14  C   UNL     1       1.918   3.856  17.953  0.00  0.00    +0.000 A 
ATOM     15  C   UNL     1       2.028   5.242  17.844  0.00  0.00    +0.000 A 
ENDBRANCH   8   9
ENDBRANCH   5   8
ENDBRANCH   1   2
BRANCH   1  17
ATOM     16  O   UNL     1       1.525  12.244  21.074  0.00  0.00    +0.000 OA
ATOM     17  C   UNL     1       0.359  11.893  21.208  0.00  0.00    +0.000 C 
BRANCH  17  18
ATOM     18  O   UNL     1      -0.379  12.122  22.337  0.00  0.00    +0.000 OA
BRANCH  18  19
ATOM     19  C   UNL     1      -0.854  13.467  22.527  0.00  0.00    +0.000 C 
BRANCH  19  20
ATOM     20  C   UNL     1      -2.124  13.389  23.385  0.00  0.00    +0.000 C 
BRANCH  20  21
ATOM     21  O   UNL     1      -3.093  14.350  22.938  0.00  0.00    +0.000 OA
ATOM     22  H   UNL     1      -3.113  15.074  23.589  0.00  0.00    +0.000 HD
ENDBRANCH  20  21
BRANCH  20  23
ATOM     23  C   UNL     1      -2.755  11.999  23.353  0.00  0.00    +0.000 C 
BRANCH  23  24
ATOM     24  O   UNL     1      -3.969  11.985  24.101  0.00  0.00    +0.000 OA
ATOM     25  H   UNL     1      -4.691  11.819  23.470  0.00  0.00    +0.000 HD
ENDBRANCH  23  24
ENDBRANCH  20  23
ENDBRANCH  19  20
ENDBRANCH  18  19
ENDBRANCH  17  18
ENDBRANCH   1  17
BRANCH   1  26
ATOM     26  O   UNL     1      -1.056  11.847  19.129  0.00  0.00    +0.000 OA
BRANCH  26  27
ATOM     27  C   UNL     1      -2.418  11.766  18.967  0.00  0.00    +0.000 A 
ATOM     28  C   UNL     1      -3.370  12.429  19.744  0.00  0.00    +0.000 A 
ATOM     29  C   UNL     1      -4.739  12.278  19.491  0.00  0.00    +0.000 A 
ATOM     30  C   UNL     1      -5.164  11.466  18.444  0.00  0.00    +0.000 A 
ATOM     31 CL   UNL     1      -6.846  11.284  18.139  0.00  0.00    +0.000 Cl
ATOM     32  C   UNL     1      -4.230  10.803  17.657  0.00  0.00    +0.000 A 
ATOM     33  C   UNL     1      -2.860  10.958  17.914  0.00  0.00    +0.000 A 
ENDBRANCH  26  27
ENDBRANCH   1  26
TORSDOF 12
ENDMDL
MODEL 8
REMARK VINA RESULT:      -7.2      2.306      7.990
REMARK  Name = 
REMARK  12 active torsions:
REMARK  status: ('A' for Active; 'I' for Inactive)
REMARK    1  A    between atoms: C_2  and  O_3
REMARK    2  A    between atoms: C_2  and  C_9
REMARK    3  A    between atoms: O_3  and  C_4
REMARK    4  A    between atoms: C_4  and  C_5
REMARK    5  A    between atoms: C_5  and  O_6
REMARK    6  A    between atoms: C_5  and  C_7
REMARK    7  A    between atoms: C_7  and  O_8
REMARK    8  A    between atoms: C_9  and  O_10
REMARK    9  A    between atoms: C_9  and  C_18
REMARK   10  A    between atoms: O_10  and  C_11
REMARK   11  A    between atoms: C_21  and  O_22
REMARK   12  A    between atoms: O_22  and  C_23
REMARK                            x       y       z     vdW  Elec       q    Type
REMARK                         _______ _______ _______ _____ _____    ______ ____
ROOT
ATOM      1  C   UNL     1       2.871   5.903  19.269  0.00  0.00    +0.000 C 
ENDROOT
BRANCH   1   2
ATOM      2  C   UNL     1       2.293   7.307  19.487  0.00  0.00    +0.000 A 
ATOM      3  C   UNL     1       1.651   7.619  20.697  0.00  0.00    +0.000 A 
ATOM      4  C   UNL     1       0.932   8.810  20.837  0.00  0.00    +0.000 A 
ATOM      5  C   UNL     1       0.849   9.712  19.776  0.00  0.00    +0.000 A 
ATOM      6  C   UNL     1       1.519   9.430  18.583  0.00  0.00    +0.000 A 
ATOM      7  C   UNL     1       2.278   8.263  18.461  0.00  0.00    +0.000 A 
BRANCH   5   8
ATOM      8  O   UNL     1       0.030  10.804  19.976  0.00  0.00    +0.000 OA
BRANCH   8   9
ATOM      9  C   UNL     1      -1.125  10.924  19.241  0.00  0.00    +0.000 A 
ATOM     10  C   UNL     1      -1.287  10.054  18.160  0.00  0.00    +0.000 A 
ATOM     11  C   UNL     1      -2.428  10.145  17.358  0.00  0.00    +0.000 A 
ATOM     12  C   UNL     1      -3.401  11.102  17.645  0.00  0.00    +0.000 A 
ATOM     13 CL   UNL     1      -4.780  11.257  16.626  0.00  0.00    +0.000 Cl
ATOM     14  C   UNL     1      -3.267  11.936  18.752  0.00  0.00    +0.000 A 
ATOM     15  C   UNL     1      -2.139  11.822  19.565  0.00  0.00    +0.000 A 
ENDBRANCH   8   9
ENDBRANCH   5   8
ENDBRANCH   1   2
BRANCH   1  17
ATOM     16  O   UNL     1       2.248   4.961  21.484  0.00  0.00    +0.000 OA
ATOM     17  C   UNL     1       2.208   4.905  20.261  0.00  0.00    +0.000 C 
BRANCH  17  18
ATOM     18  O   UNL     1       1.608   3.891  19.566  0.00  0.00    +0.000 OA
BRANCH  18  19
ATOM     19  C   UNL     1       1.759   2.567  20.112  0.00  0.00    +0.000 C 
BRANCH  19  20
ATOM     20  C   UNL     1       2.734   1.805  19.204  0.00  0.00    +0.000 C 
BRANCH  20  21
ATOM     21  O   UNL     1       2.272   1.819  17.845  0.00  0.00    +0.000 OA
ATOM     22  H   UNL     1       1.605   2.525  17.767  0.00  0.00    +0.000 HD
ENDBRANCH  20  21
BRANCH  20  23
ATOM     23  C   UNL     1       4.143   2.390  19.253  0.00  0.00    +0.000 C 
BRANCH  23  24
ATOM     24  O   UNL     1       4.993   1.578  20.061  0.00  0.00    +0.000 OA
ATOM     25  H   UNL     1       5.747   1.314  19.505  0.00  0.00    +0.000 HD
ENDBRANCH  23  24
ENDBRANCH  20  23
ENDBRANCH  19  20
ENDBRANCH  18  19
ENDBRANCH  17  18
ENDBRANCH   1  17
BRANCH   1  26
ATOM     26  O   UNL     1       2.758   5.545  17.892  0.00  0.00    +0.000 OA
BRANCH  26  27
ATOM     27  C   UNL     1       3.925   5.482  17.167  0.00  0.00    +0.000 A 
ATOM     28  C   UNL     1       4.923   6.458  17.148  0.00  0.00    +0.000 A 
ATOM     29  C   UNL     1       6.079   6.291  16.374  0.00  0.00    +0.000 A 
ATOM     30  C   UNL     1       6.246   5.134  15.620  0.00  0.00    +0.000 A 
ATOM     31 CL   UNL     1       7.666   4.936  14.671  0.00  0.00    +0.000 Cl
ATOM     32  C   UNL     1       5.264   4.150  15.632  0.00  0.00    +0.000 A 
ATOM     33  C   UNL     1       4.110   4.321  16.410  0.00  0.00    +0.000 A 
ENDBRANCH  26  27
ENDBRANCH   1  26
TORSDOF 12
ENDMDL
MODEL 9
REMARK VINA RESULT:      -7.1      4.488      8.278
REMARK  Name = 
REMARK  12 active torsions:
REMARK  status: ('A' for Active; 'I' for Inactive)
REMARK    1  A    between atoms: C_2  and  O_3
REMARK    2  A    between atoms: C_2  and  C_9
REMARK    3  A    between atoms: O_3  and  C_4
REMARK    4  A    between atoms: C_4  and  C_5
REMARK    5  A    between atoms: C_5  and  O_6
REMARK    6  A    between atoms: C_5  and  C_7
REMARK    7  A    between atoms: C_7  and  O_8
REMARK    8  A    between atoms: C_9  and  O_10
REMARK    9  A    between atoms: C_9  and  C_18
REMARK   10  A    between atoms: O_10  and  C_11
REMARK   11  A    between atoms: C_21  and  O_22
REMARK   12  A    between atoms: O_22  and  C_23
REMARK                            x       y       z     vdW  Elec       q    Type
REMARK                         _______ _______ _______ _____ _____    ______ ____
ROOT
ATOM      1  C   UNL     1      -0.978  11.513  20.888  0.00  0.00    +0.000 C 
ENDROOT
BRANCH   1   2
ATOM      2  C   UNL     1      -0.162  10.272  20.504  0.00  0.00    +0.000 A 
ATOM      3  C   UNL     1       0.131   9.300  21.476  0.00  0.00    +0.000 A 
ATOM      4  C   UNL     1       1.046   8.277  21.208  0.00  0.00    +0.000 A 
ATOM      5  C   UNL     1       1.676   8.202  19.966  0.00  0.00    +0.000 A 
ATOM      6  C   UNL     1       1.359   9.138  18.980  0.00  0.00    +0.000 A 
ATOM      7  C   UNL     1       0.408  10.131  19.231  0.00  0.00    +0.000 A 
BRANCH   5   8
ATOM      8  O   UNL     1       2.640   7.223  19.837  0.00  0.00    +0.000 OA
BRANCH   8   9
ATOM      9  C   UNL     1       2.255   5.926  19.597  0.00  0.00    +0.000 A 
ATOM     10  C   UNL     1       2.256   5.495  18.267  0.00  0.00    +0.000 A 
ATOM     11  C   UNL     1       1.849   4.195  17.956  0.00  0.00    +0.000 A 
ATOM     12  C   UNL     1       1.447   3.333  18.975  0.00  0.00    +0.000 A 
ATOM     13 CL   UNL     1       0.888   1.751  18.592  0.00  0.00    +0.000 Cl
ATOM     14  C   UNL     1       1.493   3.742  20.306  0.00  0.00    +0.000 A 
ATOM     15  C   UNL     1       1.927   5.032  20.613  0.00  0.00    +0.000 A 
ENDBRANCH   8   9
ENDBRANCH   5   8
ENDBRANCH   1   2
BRANCH   1  17
ATOM     16  O   UNL     1      -0.515  12.563  23.093  0.00  0.00    +0.000 OA
ATOM     17  C   UNL     1      -0.189  12.355  21.931  0.00  0.00    +0.000 C 
BRANCH  17  18
ATOM     18  O   UNL     1       0.919  12.900  21.343  0.00  0.00    +0.000 OA
BRANCH  18  19
ATOM     19  C   UNL     1       1.064  14.328  21.456  0.00  0.00    +0.000 C 
BRANCH  19  20
ATOM     20  C   UNL     1       2.214  14.747  20.530  0.00  0.00    +0.000 C 
BRANCH  20  21
ATOM     21  O   UNL     1       3.301  13.815  20.624  0.00  0.00    +0.000 OA
ATOM     22  H   UNL     1       3.551  13.559  19.718  0.00  0.00    +0.000 HD
ENDBRANCH  20  21
BRANCH  20  23
ATOM     23  C   UNL     1       1.772  14.846  19.072  0.00  0.00    +0.000 C 
BRANCH  23  24
ATOM     24  O   UNL     1       0.567  14.113  18.865  0.00  0.00    +0.000 OA
ATOM     25  H   UNL     1       0.343  14.194  17.921  0.00  0.00    +0.000 HD
ENDBRANCH  23  24
ENDBRANCH  20  23
ENDBRANCH  19  20
ENDBRANCH  18  19
ENDBRANCH  17  18
ENDBRANCH   1  17
BRANCH   1  26
ATOM     26  O   UNL     1      -1.359  12.221  19.709  0.00  0.00    +0.000 OA
BRANCH  26  27
ATOM     27  C   UNL     1      -2.683  12.157  19.343  0.00  0.00    +0.000 A 
ATOM     28  C   UNL     1      -3.754  12.667  20.079  0.00  0.00    +0.000 A 
ATOM     29  C   UNL     1      -5.069  12.550  19.612  0.00  0.00    +0.000 A 
ATOM     30  C   UNL     1      -5.318  11.927  18.393  0.00  0.00    +0.000 A 
ATOM     31 CL   UNL     1      -6.935  11.787  17.826  0.00  0.00    +0.000 Cl
ATOM     32  C   UNL     1      -4.263  11.419  17.646  0.00  0.00    +0.000 A 
ATOM     33  C   UNL     1      -2.948  11.539  18.117  0.00  0.00    +0.000 A 
ENDBRANCH  26  27
ENDBRANCH   1  26
TORSDOF 12
ENDMDL
