MODEL 1
REMARK VINA RESULT:      -7.7      0.000      0.000
REMARK  Name = 
REMARK  6 active torsions:
REMARK  status: ('A' for Active; 'I' for Inactive)
REMARK    1  A    between atoms: C_1  and  S_2
REMARK    2  A    between atoms: S_2  and  C_5
REMARK    3  A    between atoms: C_8  and  C_9
REMARK    4  A    between atoms: C_10  and  C_11
REMARK    5  A    between atoms: C_14  and  S_15
REMARK    6  A    between atoms: S_15  and  N_16
REMARK                            x       y       z     vdW  Elec       q    Type
REMARK                         _______ _______ _______ _____ _____    ______ ____
ROOT
ATOM      1  C   UNL     1       2.723   4.522  20.515  0.00  0.00    +0.000 C 
ATOM      2  C   UNL     1       3.620   3.731  19.923  0.00  0.00    +0.000 C 
ATOM      3  C   UNL     1       3.687   2.501  20.731  0.00  0.00    +0.000 C 
ATOM      4  O   UNL     1       4.382   1.529  20.498  0.00  0.00    +0.000 OA
ATOM      5  O   UNL     1       2.832   2.620  21.786  0.00  0.00    +0.000 OA
ATOM      6  C   UNL     1       2.179   3.890  21.731  0.00  0.00    +0.000 C 
ENDROOT
BRANCH   1  10
ATOM      7  C   UNL     1       1.610   8.399  19.167  0.00  0.00    +0.000 A 
ATOM      8  C   UNL     1       2.180   7.490  18.273  0.00  0.00    +0.000 A 
ATOM      9  C   UNL     1       2.504   6.203  18.713  0.00  0.00    +0.000 A 
ATOM     10  C   UNL     1       2.275   5.828  20.043  0.00  0.00    +0.000 A 
ATOM     11  C   UNL     1       1.703   6.748  20.930  0.00  0.00    +0.000 A 
ATOM     12  C   UNL     1       1.370   8.035  20.495  0.00  0.00    +0.000 A 
BRANCH   7  14
ATOM     13  C   UNL     1      -0.359   9.982  17.974  0.00  0.00    +0.000 C 
ATOM     14  S   UNL     1       1.284  10.063  18.632  0.00  0.00    +0.000 S 
ATOM     15  O   UNL     1       2.192  10.355  17.538  0.00  0.00    +0.000 OA
ATOM     16  O   UNL     1       1.253  10.903  19.815  0.00  0.00    +0.000 OA
ENDBRANCH   7  14
ENDBRANCH   1  10
BRANCH   2  17
ATOM     17  C   UNL     1       4.369   3.985  18.701  0.00  0.00    +0.000 A 
ATOM     18  C   UNL     1       5.608   4.635  18.756  0.00  0.00    +0.000 A 
ATOM     19  C   UNL     1       6.306   4.916  17.583  0.00  0.00    +0.000 A 
ATOM     20  C   UNL     1       5.763   4.534  16.353  0.00  0.00    +0.000 A 
ATOM     21  C   UNL     1       4.519   3.901  16.283  0.00  0.00    +0.000 A 
ATOM     22  C   UNL     1       3.826   3.622  17.461  0.00  0.00    +0.000 A 
BRANCH  20  23
ATOM     23  S   UNL     1       6.656   4.873  14.866  0.00  0.00    +0.000 S 
ATOM     24  O   UNL     1       6.043   5.988  14.184  0.00  0.00    +0.000 OA
ATOM     25  O   UNL     1       8.073   4.808  15.136  0.00  0.00    +0.000 OA
BRANCH  23  26
ATOM     26  N   UNL     1       6.293   3.511  13.955  0.00  0.00    +0.000 NA
ATOM     27  H   UNL     1       5.655   3.755  13.198  0.00  0.00    +0.000 HD
ATOM     28  H   UNL     1       7.151   3.051  13.652  0.00  0.00    +0.000 HD
ENDBRANCH  23  26
ENDBRANCH  20  23
ENDBRANCH   2  17
TORSDOF 5
ENDMDL
MODEL 2
REMARK VINA RESULT:      -7.6      0.780      1.592
REMARK  Name = 
REMARK  6 active torsions:
REMARK  status: ('A' for Active; 'I' for Inactive)
REMARK    1  A    between atoms: C_1  and  S_2
REMARK    2  A    between atoms: S_2  and  C_5
REMARK    3  A    between atoms: C_8  and  C_9
REMARK    4  A    between atoms: C_10  and  C_11
REMARK    5  A    between atoms: C_14  and  S_15
REMARK    6  A    between atoms: S_15  and  N_16
REMARK                            x       y       z     vdW  Elec       q    Type
REMARK                         _______ _______ _______ _____ _____    ______ ____
ROOT
ATOM      1  C   UNL     1       2.701   4.726  20.331  0.00  0.00    +0.000 C 
ATOM      2  C   UNL     1       3.514   3.889  19.683  0.00  0.00    +0.000 C 
ATOM      3  C   UNL     1       3.462   2.611  20.415  0.00  0.00    +0.000 C 
ATOM      4  O   UNL     1       4.056   1.591  20.118  0.00  0.00    +0.000 OA
ATOM      5  O   UNL     1       2.626   2.748  21.484  0.00  0.00    +0.000 OA
ATOM      6  C   UNL     1       2.101   4.077  21.512  0.00  0.00    +0.000 C 
ENDROOT
BRANCH   1  10
ATOM      7  C   UNL     1       1.576   8.660  19.173  0.00  0.00    +0.000 A 
ATOM      8  C   UNL     1       1.404   8.250  20.497  0.00  0.00    +0.000 A 
ATOM      9  C   UNL     1       1.815   6.971  20.880  0.00  0.00    +0.000 A 
ATOM     10  C   UNL     1       2.382   6.097  19.943  0.00  0.00    +0.000 A 
ATOM     11  C   UNL     1       2.550   6.519  18.619  0.00  0.00    +0.000 A 
ATOM     12  C   UNL     1       2.146   7.800  18.230  0.00  0.00    +0.000 A 
BRANCH   7  14
ATOM     13  C   UNL     1       0.555  11.054  20.190  0.00  0.00    +0.000 C 
ATOM     14  S   UNL     1       0.968  10.252  18.665  0.00  0.00    +0.000 S 
ATOM     15  O   UNL     1      -0.262  10.034  17.926  0.00  0.00    +0.000 OA
ATOM     16  O   UNL     1       2.076  10.972  18.066  0.00  0.00    +0.000 OA
ENDBRANCH   7  14
ENDBRANCH   1  10
BRANCH   2  17
ATOM     17  C   UNL     1       4.279   4.142  18.472  0.00  0.00    +0.000 A 
ATOM     18  C   UNL     1       3.751   3.799  17.221  0.00  0.00    +0.000 A 
ATOM     19  C   UNL     1       4.501   4.002  16.063  0.00  0.00    +0.000 A 
ATOM     20  C   UNL     1       5.778   4.558  16.162  0.00  0.00    +0.000 A 
ATOM     21  C   UNL     1       6.324   4.888  17.406  0.00  0.00    +0.000 A 
ATOM     22  C   UNL     1       5.568   4.683  18.560  0.00  0.00    +0.000 A 
BRANCH  20  23
ATOM     23  S   UNL     1       6.722   4.833  14.693  0.00  0.00    +0.000 S 
ATOM     24  O   UNL     1       6.149   5.934  13.956  0.00  0.00    +0.000 OA
ATOM     25  O   UNL     1       8.129   4.755  15.009  0.00  0.00    +0.000 OA
BRANCH  23  26
ATOM     26  N   UNL     1       6.365   3.447  13.817  0.00  0.00    +0.000 NA
ATOM     27  H   UNL     1       7.196   3.116  13.328  0.00  0.00    +0.000 HD
ATOM     28  H   UNL     1       5.926   2.752  14.420  0.00  0.00    +0.000 HD
ENDBRANCH  23  26
ENDBRANCH  20  23
ENDBRANCH   2  17
TORSDOF 5
ENDMDL
MODEL 3
REMARK VINA RESULT:      -7.3      1.358      1.793
REMARK  Name = 
REMARK  6 active torsions:
REMARK  status: ('A' for Active; 'I' for Inactive)
REMARK    1  A    between atoms: C_1  and  S_2
REMARK    2  A    between atoms: S_2  and  C_5
REMARK    3  A    between atoms: C_8  and  C_9
REMARK    4  A    between atoms: C_10  and  C_11
REMARK    5  A    between atoms: C_14  and  S_15
REMARK    6  A    between atoms: S_15  and  N_16
REMARK                            x       y       z     vdW  Elec       q    Type
REMARK                         _______ _______ _______ _____ _____    ______ ____
ROOT
ATOM      1  C   UNL     1       1.737   4.746  20.013  0.00  0.00    +0.000 C 
ATOM      2  C   UNL     1       2.603   3.906  19.443  0.00  0.00    +0.000 C 
ATOM      3  C   UNL     1       2.187   2.549  19.838  0.00  0.00    +0.000 C 
ATOM      4  O   UNL     1       2.720   1.509  19.498  0.00  0.00    +0.000 OA
ATOM      5  O   UNL     1       1.091   2.641  20.645  0.00  0.00    +0.000 OA
ATOM      6  C   UNL     1       0.740   4.016  20.818  0.00  0.00    +0.000 C 
ENDROOT
BRANCH   1  10
ATOM      7  C   UNL     1       1.459   8.962  19.530  0.00  0.00    +0.000 A 
ATOM      8  C   UNL     1       1.156   8.383  20.764  0.00  0.00    +0.000 A 
ATOM      9  C   UNL     1       1.291   7.002  20.928  0.00  0.00    +0.000 A 
ATOM     10  C   UNL     1       1.711   6.197  19.861  0.00  0.00    +0.000 A 
ATOM     11  C   UNL     1       2.012   6.789  18.627  0.00  0.00    +0.000 A 
ATOM     12  C   UNL     1       1.885   8.172  18.458  0.00  0.00    +0.000 A 
BRANCH   7  14
ATOM     13  C   UNL     1      -0.463  10.806  18.686  0.00  0.00    +0.000 C 
ATOM     14  S   UNL     1       1.198  10.705  19.295  0.00  0.00    +0.000 S 
ATOM     15  O   UNL     1       2.090  11.141  18.237  0.00  0.00    +0.000 OA
ATOM     16  O   UNL     1       1.234  11.333  20.603  0.00  0.00    +0.000 OA
ENDBRANCH   7  14
ENDBRANCH   1  10
BRANCH   2  17
ATOM     17  C   UNL     1       3.720   4.228  18.568  0.00  0.00    +0.000 A 
ATOM     18  C   UNL     1       4.886   4.798  19.096  0.00  0.00    +0.000 A 
ATOM     19  C   UNL     1       5.941   5.146  18.252  0.00  0.00    +0.000 A 
ATOM     20  C   UNL     1       5.827   4.913  16.879  0.00  0.00    +0.000 A 
ATOM     21  C   UNL     1       4.662   4.362  16.339  0.00  0.00    +0.000 A 
ATOM     22  C   UNL     1       3.611   4.015  17.188  0.00  0.00    +0.000 A 
BRANCH  20  23
ATOM     23  S   UNL     1       7.170   5.337  15.812  0.00  0.00    +0.000 S 
ATOM     24  O   UNL     1       8.247   4.395  16.002  0.00  0.00    +0.000 OA
ATOM     25  O   UNL     1       6.653   5.678  14.508  0.00  0.00    +0.000 OA
BRANCH  23  26
ATOM     26  N   UNL     1       7.686   6.779  16.500  0.00  0.00    +0.000 NA
ATOM     27  H   UNL     1       8.173   7.345  15.806  0.00  0.00    +0.000 HD
ATOM     28  H   UNL     1       6.904   7.251  16.955  0.00  0.00    +0.000 HD
ENDBRANCH  23  26
ENDBRANCH  20  23
ENDBRANCH   2  17
TORSDOF 5
ENDMDL
MODEL 4
REMARK VINA RESULT:      -7.3      0.751      1.355
REMARK  Name = 
REMARK  6 active torsions:
REMARK  status: ('A' for Active; 'I' for Inactive)
REMARK    1  A    between atoms: C_1  and  S_2
REMARK    2  A    between atoms: S_2  and  C_5
REMARK    3  A    between atoms: C_8  and  C_9
REMARK    4  A    between atoms: C_10  and  C_11
REMARK    5  A    between atoms: C_14  and  S_15
REMARK    6  A    between atoms: S_15  and  N_16
REMARK                            x       y       z     vdW  Elec       q    Type
REMARK                         _______ _______ _______ _____ _____    ______ ____
ROOT
ATOM      1  C   UNL     1       2.675   4.629  20.465  0.00  0.00    +0.000 C 
ATOM      2  C   UNL     1       3.499   3.790  19.833  0.00  0.00    +0.000 C 
ATOM      3  C   UNL     1       3.448   2.519  20.577  0.00  0.00    +0.000 C 
ATOM      4  O   UNL     1       4.052   1.501  20.295  0.00  0.00    +0.000 OA
ATOM      5  O   UNL     1       2.602   2.661  21.636  0.00  0.00    +0.000 OA
ATOM      6  C   UNL     1       2.068   3.987  21.646  0.00  0.00    +0.000 C 
ENDROOT
BRANCH   1  10
ATOM      7  C   UNL     1       1.535   8.545  19.263  0.00  0.00    +0.000 A 
ATOM      8  C   UNL     1       1.383   8.156  20.596  0.00  0.00    +0.000 A 
ATOM      9  C   UNL     1       1.799   6.882  20.992  0.00  0.00    +0.000 A 
ATOM     10  C   UNL     1       2.351   5.993  20.061  0.00  0.00    +0.000 A 
ATOM     11  C   UNL     1       2.498   6.394  18.727  0.00  0.00    +0.000 A 
ATOM     12  C   UNL     1       2.089   7.670  18.325  0.00  0.00    +0.000 A 
BRANCH   7  14
ATOM     13  C   UNL     1       2.302  10.868  17.913  0.00  0.00    +0.000 C 
ATOM     14  S   UNL     1       0.920  10.130  18.740  0.00  0.00    +0.000 S 
ATOM     15  O   UNL     1       0.644  10.906  19.934  0.00  0.00    +0.000 OA
ATOM     16  O   UNL     1      -0.117   9.891  17.754  0.00  0.00    +0.000 OA
ENDBRANCH   7  14
ENDBRANCH   1  10
BRANCH   2  17
ATOM     17  C   UNL     1       4.275   4.036  18.627  0.00  0.00    +0.000 A 
ATOM     18  C   UNL     1       5.521   4.669  18.709  0.00  0.00    +0.000 A 
ATOM     19  C   UNL     1       6.247   4.943  17.549  0.00  0.00    +0.000 A 
ATOM     20  C   UNL     1       5.722   4.573  16.308  0.00  0.00    +0.000 A 
ATOM     21  C   UNL     1       4.471   3.957  16.213  0.00  0.00    +0.000 A 
ATOM     22  C   UNL     1       3.751   3.685  17.376  0.00  0.00    +0.000 A 
BRANCH  20  23
ATOM     23  S   UNL     1       6.648   4.903  14.840  0.00  0.00    +0.000 S 
ATOM     24  O   UNL     1       6.035   5.996  14.124  0.00  0.00    +0.000 OA
ATOM     25  O   UNL     1       8.059   4.866  15.148  0.00  0.00    +0.000 OA
BRANCH  23  26
ATOM     26  N   UNL     1       6.331   3.521  13.942  0.00  0.00    +0.000 NA
ATOM     27  H   UNL     1       5.383   3.553  13.570  0.00  0.00    +0.000 HD
ATOM     28  H   UNL     1       7.056   3.385  13.237  0.00  0.00    +0.000 HD
ENDBRANCH  23  26
ENDBRANCH  20  23
ENDBRANCH   2  17
TORSDOF 5
ENDMDL
MODEL 5
REMARK VINA RESULT:      -7.3      0.775      1.339
REMARK  Name = 
REMARK  6 active torsions:
REMARK  status: ('A' for Active; 'I' for Inactive)
REMARK    1  A    between atoms: C_1  and  S_2
REMARK    2  A    between atoms: S_2  and  C_5
REMARK    3  A    between atoms: C_8  and  C_9
REMARK    4  A    between atoms: C_10  and  C_11
REMARK    5  A    between atoms: C_14  and  S_15
REMARK    6  A    between atoms: S_15  and  N_16
REMARK                            x       y       z     vdW  Elec       q    Type
REMARK                         _______ _______ _______ _____ _____    ______ ____
ROOT
ATOM      1  C   UNL     1       2.686   4.570  20.578  0.00  0.00    +0.000 C 
ATOM      2  C   UNL     1       3.576   3.826  19.918  0.00  0.00    +0.000 C 
ATOM      3  C   UNL     1       3.707   2.568  20.675  0.00  0.00    +0.000 C 
ATOM      4  O   UNL     1       4.414   1.623  20.376  0.00  0.00    +0.000 OA
ATOM      5  O   UNL     1       2.894   2.624  21.768  0.00  0.00    +0.000 OA
ATOM      6  C   UNL     1       2.209   3.878  21.790  0.00  0.00    +0.000 C 
ENDROOT
BRANCH   1  10
ATOM      7  C   UNL     1       1.416   8.470  19.453  0.00  0.00    +0.000 A 
ATOM      8  C   UNL     1       2.107   7.673  18.537  0.00  0.00    +0.000 A 
ATOM      9  C   UNL     1       2.483   6.377  18.899  0.00  0.00    +0.000 A 
ATOM     10  C   UNL     1       2.187   5.881  20.175  0.00  0.00    +0.000 A 
ATOM     11  C   UNL     1       1.494   6.690  21.085  0.00  0.00    +0.000 A 
ATOM     12  C   UNL     1       1.109   7.986  20.727  0.00  0.00    +0.000 A 
BRANCH   7  14
ATOM     13  C   UNL     1       2.336  10.631  17.940  0.00  0.00    +0.000 C 
ATOM     14  S   UNL     1       1.020  10.150  19.025  0.00  0.00    +0.000 S 
ATOM     15  O   UNL     1       1.124  10.944  20.235  0.00  0.00    +0.000 OA
ATOM     16  O   UNL     1      -0.209  10.126  18.255  0.00  0.00    +0.000 OA
ENDBRANCH   7  14
ENDBRANCH   1  10
BRANCH   2  17
ATOM     17  C   UNL     1       4.266   4.144  18.677  0.00  0.00    +0.000 A 
ATOM     18  C   UNL     1       3.753   3.699  17.452  0.00  0.00    +0.000 A 
ATOM     19  C   UNL     1       4.435   3.968  16.266  0.00  0.00    +0.000 A 
ATOM     20  C   UNL     1       5.629   4.692  16.311  0.00  0.00    +0.000 A 
ATOM     21  C   UNL     1       6.161   5.125  17.529  0.00  0.00    +0.000 A 
ATOM     22  C   UNL     1       5.473   4.854  18.711  0.00  0.00    +0.000 A 
BRANCH  20  23
ATOM     23  S   UNL     1       6.486   5.048  14.807  0.00  0.00    +0.000 S 
ATOM     24  O   UNL     1       5.725   6.006  14.039  0.00  0.00    +0.000 OA
ATOM     25  O   UNL     1       7.892   5.215  15.087  0.00  0.00    +0.000 OA
BRANCH  23  26
ATOM     26  N   UNL     1       6.343   3.584  14.000  0.00  0.00    +0.000 NA
ATOM     27  H   UNL     1       6.535   2.811  14.636  0.00  0.00    +0.000 HD
ATOM     28  H   UNL     1       5.439   3.528  13.530  0.00  0.00    +0.000 HD
ENDBRANCH  23  26
ENDBRANCH  20  23
ENDBRANCH   2  17
TORSDOF 5
ENDMDL
MODEL 6
REMARK VINA RESULT:      -7.2      1.033      1.249
REMARK  Name = 
REMARK  6 active torsions:
REMARK  status: ('A' for Active; 'I' for Inactive)
REMARK    1  A    between atoms: C_1  and  S_2
REMARK    2  A    between atoms: S_2  and  C_5
REMARK    3  A    between atoms: C_8  and  C_9
REMARK    4  A    between atoms: C_10  and  C_11
REMARK    5  A    between atoms: C_14  and  S_15
REMARK    6  A    between atoms: S_15  and  N_16
REMARK                            x       y       z     vdW  Elec       q    Type
REMARK                         _______ _______ _______ _____ _____    ______ ____
ROOT
ATOM      1  C   UNL     1       2.690   4.627  20.528  0.00  0.00    +0.000 C 
ATOM      2  C   UNL     1       3.556   3.834  19.893  0.00  0.00    +0.000 C 
ATOM      3  C   UNL     1       3.671   2.610  20.705  0.00  0.00    +0.000 C 
ATOM      4  O   UNL     1       4.354   1.638  20.442  0.00  0.00    +0.000 OA
ATOM      5  O   UNL     1       2.873   2.733  21.804  0.00  0.00    +0.000 OA
ATOM      6  C   UNL     1       2.214   4.001  21.776  0.00  0.00    +0.000 C 
ENDROOT
BRANCH   1  10
ATOM      7  C   UNL     1       1.487   8.498  19.244  0.00  0.00    +0.000 A 
ATOM      8  C   UNL     1       2.169   7.656  18.364  0.00  0.00    +0.000 A 
ATOM      9  C   UNL     1       2.524   6.369  18.779  0.00  0.00    +0.000 A 
ATOM     10  C   UNL     1       2.214   5.929  20.072  0.00  0.00    +0.000 A 
ATOM     11  C   UNL     1       1.530   6.783  20.946  0.00  0.00    +0.000 A 
ATOM     12  C   UNL     1       1.167   8.070  20.536  0.00  0.00    +0.000 A 
BRANCH   7  14
ATOM     13  C   UNL     1       1.034  11.053  20.281  0.00  0.00    +0.000 C 
ATOM     14  S   UNL     1       1.120  10.166  18.749  0.00  0.00    +0.000 S 
ATOM     15  O   UNL     1      -0.206  10.163  18.158  0.00  0.00    +0.000 OA
ATOM     16  O   UNL     1       2.263  10.663  18.007  0.00  0.00    +0.000 OA
ENDBRANCH   7  14
ENDBRANCH   1  10
BRANCH   2  17
ATOM     17  C   UNL     1       4.237   4.081  18.631  0.00  0.00    +0.000 A 
ATOM     18  C   UNL     1       5.451   4.780  18.611  0.00  0.00    +0.000 A 
ATOM     19  C   UNL     1       6.083   5.053  17.398  0.00  0.00    +0.000 A 
ATOM     20  C   UNL     1       5.499   4.616  16.206  0.00  0.00    +0.000 A 
ATOM     21  C   UNL     1       4.279   3.935  16.212  0.00  0.00    +0.000 A 
ATOM     22  C   UNL     1       3.652   3.663  17.429  0.00  0.00    +0.000 A 
BRANCH  20  23
ATOM     23  S   UNL     1       6.308   4.947  14.671  0.00  0.00    +0.000 S 
ATOM     24  O   UNL     1       6.419   3.721  13.915  0.00  0.00    +0.000 OA
ATOM     25  O   UNL     1       5.779   6.166  14.105  0.00  0.00    +0.000 OA
BRANCH  23  26
ATOM     26  N   UNL     1       7.860   5.312  15.196  0.00  0.00    +0.000 NA
ATOM     27  H   UNL     1       7.955   6.317  15.340  0.00  0.00    +0.000 HD
ATOM     28  H   UNL     1       8.099   4.746  16.010  0.00  0.00    +0.000 HD
ENDBRANCH  23  26
ENDBRANCH  20  23
ENDBRANCH   2  17
TORSDOF 5
ENDMDL
MODEL 7
REMARK VINA RESULT:      -7.2      1.438      2.068
REMARK  Name = 
REMARK  6 active torsions:
REMARK  status: ('A' for Active; 'I' for Inactive)
REMARK    1  A    between atoms: C_1  and  S_2
REMARK    2  A    between atoms: S_2  and  C_5
REMARK    3  A    between atoms: C_8  and  C_9
REMARK    4  A    between atoms: C_10  and  C_11
REMARK    5  A    between atoms: C_14  and  S_15
REMARK    6  A    between atoms: S_15  and  N_16
REMARK                            x       y       z     vdW  Elec       q    Type
REMARK                         _______ _______ _______ _____ _____    ______ ____
ROOT
ATOM      1  C   UNL     1       1.726   5.133  20.097  0.00  0.00    +0.000 C 
ATOM      2  C   UNL     1       2.613   4.268  19.601  0.00  0.00    +0.000 C 
ATOM      3  C   UNL     1       2.201   2.934  20.072  0.00  0.00    +0.000 C 
ATOM      4  O   UNL     1       2.751   1.881  19.811  0.00  0.00    +0.000 OA
ATOM      5  O   UNL     1       1.087   3.065  20.847  0.00  0.00    +0.000 OA
ATOM      6  C   UNL     1       0.719   4.444  20.925  0.00  0.00    +0.000 C 
ENDROOT
BRANCH   1  10
ATOM      7  C   UNL     1       1.416   9.307  19.345  0.00  0.00    +0.000 A 
ATOM      8  C   UNL     1       1.118   8.806  20.615  0.00  0.00    +0.000 A 
ATOM      9  C   UNL     1       1.263   7.439  20.866  0.00  0.00    +0.000 A 
ATOM     10  C   UNL     1       1.689   6.571  19.852  0.00  0.00    +0.000 A 
ATOM     11  C   UNL     1       1.985   7.085  18.584  0.00  0.00    +0.000 A 
ATOM     12  C   UNL     1       1.848   8.453  18.327  0.00  0.00    +0.000 A 
BRANCH   7  14
ATOM     13  C   UNL     1       1.177  11.793  20.598  0.00  0.00    +0.000 C 
ATOM     14  S   UNL     1       1.142  11.030  19.000  0.00  0.00    +0.000 S 
ATOM     15  O   UNL     1      -0.204  11.159  18.471  0.00  0.00    +0.000 OA
ATOM     16  O   UNL     1       2.285  11.511  18.247  0.00  0.00    +0.000 OA
ENDBRANCH   7  14
ENDBRANCH   1  10
BRANCH   2  17
ATOM     17  C   UNL     1       3.746   4.547  18.731  0.00  0.00    +0.000 A 
ATOM     18  C   UNL     1       3.680   4.235  17.367  0.00  0.00    +0.000 A 
ATOM     19  C   UNL     1       4.780   4.463  16.541  0.00  0.00    +0.000 A 
ATOM     20  C   UNL     1       5.944   5.014  17.085  0.00  0.00    +0.000 A 
ATOM     21  C   UNL     1       6.028   5.312  18.448  0.00  0.00    +0.000 A 
ATOM     22  C   UNL     1       4.924   5.082  19.268  0.00  0.00    +0.000 A 
BRANCH  20  23
ATOM     23  S   UNL     1       7.332   5.320  16.036  0.00  0.00    +0.000 S 
ATOM     24  O   UNL     1       7.817   6.661  16.263  0.00  0.00    +0.000 OA
ATOM     25  O   UNL     1       8.200   4.166  16.043  0.00  0.00    +0.000 OA
BRANCH  23  26
ATOM     26  N   UNL     1       6.597   5.340  14.527  0.00  0.00    +0.000 NA
ATOM     27  H   UNL     1       7.187   5.829  13.855  0.00  0.00    +0.000 HD
ATOM     28  H   UNL     1       6.338   4.393  14.249  0.00  0.00    +0.000 HD
ENDBRANCH  23  26
ENDBRANCH  20  23
ENDBRANCH   2  17
TORSDOF 5
ENDMDL
MODEL 8
REMARK VINA RESULT:      -7.2      0.742      1.612
REMARK  Name = 
REMARK  6 active torsions:
REMARK  status: ('A' for Active; 'I' for Inactive)
REMARK    1  A    between atoms: C_1  and  S_2
REMARK    2  A    between atoms: S_2  and  C_5
REMARK    3  A    between atoms: C_8  and  C_9
REMARK    4  A    between atoms: C_10  and  C_11
REMARK    5  A    between atoms: C_14  and  S_15
REMARK    6  A    between atoms: S_15  and  N_16
REMARK                            x       y       z     vdW  Elec       q    Type
REMARK                         _______ _______ _______ _____ _____    ______ ____
ROOT
ATOM      1  C   UNL     1       2.629   4.703  20.488  0.00  0.00    +0.000 C 
ATOM      2  C   UNL     1       3.412   3.820  19.863  0.00  0.00    +0.000 C 
ATOM      3  C   UNL     1       3.315   2.565  20.630  0.00  0.00    +0.000 C 
ATOM      4  O   UNL     1       3.873   1.517  20.361  0.00  0.00    +0.000 OA
ATOM      5  O   UNL     1       2.486   2.761  21.694  0.00  0.00    +0.000 OA
ATOM      6  C   UNL     1       2.008   4.108  21.686  0.00  0.00    +0.000 C 
ENDROOT
BRANCH   1  10
ATOM      7  C   UNL     1       1.644   8.639  19.215  0.00  0.00    +0.000 A 
ATOM      8  C   UNL     1       1.424   8.263  20.542  0.00  0.00    +0.000 A 
ATOM      9  C   UNL     1       1.790   6.981  20.964  0.00  0.00    +0.000 A 
ATOM     10  C   UNL     1       2.359   6.072  20.062  0.00  0.00    +0.000 A 
ATOM     11  C   UNL     1       2.573   6.461  18.734  0.00  0.00    +0.000 A 
ATOM     12  C   UNL     1       2.216   7.744  18.307  0.00  0.00    +0.000 A 
BRANCH   7  14
ATOM     13  C   UNL     1      -0.472   9.900  17.896  0.00  0.00    +0.000 C 
ATOM     14  S   UNL     1       1.093  10.235  18.657  0.00  0.00    +0.000 S 
ATOM     15  O   UNL     1       2.010  10.675  17.622  0.00  0.00    +0.000 OA
ATOM     16  O   UNL     1       0.854  11.050  19.833  0.00  0.00    +0.000 OA
ENDBRANCH   7  14
ENDBRANCH   1  10
BRANCH   2  17
ATOM     17  C   UNL     1       4.185   4.012  18.646  0.00  0.00    +0.000 A 
ATOM     18  C   UNL     1       3.645   3.650  17.405  0.00  0.00    +0.000 A 
ATOM     19  C   UNL     1       4.400   3.795  16.242  0.00  0.00    +0.000 A 
ATOM     20  C   UNL     1       5.696   4.312  16.325  0.00  0.00    +0.000 A 
ATOM     21  C   UNL     1       6.252   4.659  17.559  0.00  0.00    +0.000 A 
ATOM     22  C   UNL     1       5.491   4.513  18.719  0.00  0.00    +0.000 A 
BRANCH  20  23
ATOM     23  S   UNL     1       6.648   4.513  14.850  0.00  0.00    +0.000 S 
ATOM     24  O   UNL     1       8.010   4.840  15.201  0.00  0.00    +0.000 OA
ATOM     25  O   UNL     1       6.313   3.460  13.920  0.00  0.00    +0.000 OA
BRANCH  23  26
ATOM     26  N   UNL     1       5.977   5.918  14.223  0.00  0.00    +0.000 NA
ATOM     27  H   UNL     1       5.019   5.747  13.923  0.00  0.00    +0.000 HD
ATOM     28  H   UNL     1       6.081   6.685  14.888  0.00  0.00    +0.000 HD
ENDBRANCH  23  26
ENDBRANCH  20  23
ENDBRANCH   2  17
TORSDOF 5
ENDMDL
MODEL 9
REMARK VINA RESULT:      -7.1      1.020      1.253
REMARK  Name = 
REMARK  6 active torsions:
REMARK  status: ('A' for Active; 'I' for Inactive)
REMARK    1  A    between atoms: C_1  and  S_2
REMARK    2  A    between atoms: S_2  and  C_5
REMARK    3  A    between atoms: C_8  and  C_9
REMARK    4  A    between atoms: C_10  and  C_11
REMARK    5  A    between atoms: C_14  and  S_15
REMARK    6  A    between atoms: S_15  and  N_16
REMARK                            x       y       z     vdW  Elec       q    Type
REMARK                         _______ _______ _______ _____ _____    ______ ____
ROOT
ATOM      1  C   UNL     1       2.712   4.421  20.591  0.00  0.00    +0.000 C 
ATOM      2  C   UNL     1       3.620   3.667  19.966  0.00  0.00    +0.000 C 
ATOM      3  C   UNL     1       3.739   2.426  20.751  0.00  0.00    +0.000 C 
ATOM      4  O   UNL     1       4.457   1.478  20.488  0.00  0.00    +0.000 OA
ATOM      5  O   UNL     1       2.903   2.501  21.825  0.00  0.00    +0.000 OA
ATOM      6  C   UNL     1       2.212   3.752  21.806  0.00  0.00    +0.000 C 
ENDROOT
BRANCH   1  10
ATOM      7  C   UNL     1       1.461   8.282  19.324  0.00  0.00    +0.000 A 
ATOM      8  C   UNL     1       1.982   7.381  18.392  0.00  0.00    +0.000 A 
ATOM      9  C   UNL     1       2.351   6.099  18.809  0.00  0.00    +0.000 A 
ATOM     10  C   UNL     1       2.217   5.721  20.151  0.00  0.00    +0.000 A 
ATOM     11  C   UNL     1       1.694   6.634  21.075  0.00  0.00    +0.000 A 
ATOM     12  C   UNL     1       1.316   7.916  20.665  0.00  0.00    +0.000 A 
BRANCH   7  14
ATOM     13  C   UNL     1       2.509  10.442  17.894  0.00  0.00    +0.000 C 
ATOM     14  S   UNL     1       1.079   9.942  18.813  0.00  0.00    +0.000 S 
ATOM     15  O   UNL     1       1.007  10.761  20.010  0.00  0.00    +0.000 OA
ATOM     16  O   UNL     1      -0.041   9.870  17.894  0.00  0.00    +0.000 OA
ENDBRANCH   7  14
ENDBRANCH   1  10
BRANCH   2  17
ATOM     17  C   UNL     1       4.335   3.963  18.734  0.00  0.00    +0.000 A 
ATOM     18  C   UNL     1       5.464   4.792  18.757  0.00  0.00    +0.000 A 
ATOM     19  C   UNL     1       6.125   5.110  17.572  0.00  0.00    +0.000 A 
ATOM     20  C   UNL     1       5.657   4.587  16.363  0.00  0.00    +0.000 A 
ATOM     21  C   UNL     1       4.521   3.774  16.325  0.00  0.00    +0.000 A 
ATOM     22  C   UNL     1       3.864   3.459  17.515  0.00  0.00    +0.000 A 
BRANCH  20  23
ATOM     23  S   UNL     1       6.505   4.975  14.862  0.00  0.00    +0.000 S 
ATOM     24  O   UNL     1       7.792   5.550  15.175  0.00  0.00    +0.000 OA
ATOM     25  O   UNL     1       6.344   3.886  13.928  0.00  0.00    +0.000 OA
BRANCH  23  26
ATOM     26  N   UNL     1       5.562   6.234  14.276  0.00  0.00    +0.000 NA
ATOM     27  H   UNL     1       5.093   5.950  13.416  0.00  0.00    +0.000 HD
ATOM     28  H   UNL     1       4.937   6.575  15.005  0.00  0.00    +0.000 HD
ENDBRANCH  23  26
ENDBRANCH  20  23
ENDBRANCH   2  17
TORSDOF 5
ENDMDL
