MODEL 1
REMARK VINA RESULT:      -7.7      0.000      0.000
REMARK  Name = 
REMARK  10 active torsions:
REMARK  status: ('A' for Active; 'I' for Inactive)
REMARK    1  A    between atoms: C_1  and  C_2
REMARK    2  A    between atoms: C_2  and  C_3
REMARK    3  A    between atoms: C_3  and  C_4
REMARK    4  A    between atoms: C_3  and  C_6
REMARK    5  A    between atoms: C_6  and  N_7
REMARK    6  A    between atoms: C_9  and  N_10
REMARK    7  A    between atoms: C_14  and  C_15
REMARK    8  A    between atoms: C_19  and  N_20
REMARK    9  A    between atoms: N_20  and  C_21
REMARK   10  A    between atoms: C_23  and  C_24
REMARK                            x       y       z     vdW  Elec       q    Type
REMARK                         _______ _______ _______ _____ _____    ______ ____
ROOT
ATOM      1  N   UNL     1       4.881   6.083  16.793  0.00  0.00    +0.000 N 
ATOM      2  C   UNL     1       4.097   5.533  17.812  0.00  0.00    +0.000 A 
ATOM      3  N   UNL     1       3.049   6.270  18.189  0.00  0.00    +0.000 NA
ATOM      4  C   UNL     1       2.198   5.686  19.047  0.00  0.00    +0.000 A 
ATOM      5  C   UNL     1       2.352   4.416  19.575  0.00  0.00    +0.000 A 
ATOM      6  C   UNL     1       3.485   3.746  19.178  0.00  0.00    +0.000 A 
ATOM      7  N   UNL     1       4.343   4.314  18.309  0.00  0.00    +0.000 NA
ATOM      8  H   UNL     1       4.460   6.973  16.555  0.00  0.00    +0.000 HD
ENDROOT
BRANCH   1  11
ATOM      9  N   UNL     1       6.523   4.586  14.090  0.00  0.00    +0.000 N 
ATOM     10  C   UNL     1       5.452   5.274  14.563  0.00  0.00    +0.000 A 
ATOM     11  C   UNL     1       5.667   5.436  15.907  0.00  0.00    +0.000 A 
ATOM     12  C   UNL     1       6.907   4.794  16.159  0.00  0.00    +0.000 A 
ATOM     13  C   UNL     1       7.641   4.641  17.437  0.00  0.00    +0.000 C 
ATOM     14  N   UNL     1       7.436   4.291  15.032  0.00  0.00    +0.000 NA
BRANCH   9  15
ATOM     15  C   UNL     1       6.673   4.054  12.753  0.00  0.00    +0.000 C 
BRANCH  15  16
ATOM     16  C   UNL     1       5.491   3.160  12.352  0.00  0.00    +0.000 C 
BRANCH  16  18
ATOM     17  C   UNL     1       3.470   3.015  10.790  0.00  0.00    +0.000 C 
ATOM     18  C   UNL     1       4.475   3.926  11.480  0.00  0.00    +0.000 C 
ENDBRANCH  16  18
BRANCH  16  19
ATOM     19  C   UNL     1       6.031   2.010  11.629  0.00  0.00    +0.000 C 
ATOM     20  N   UNL     1       6.456   1.103  11.042  0.00  0.00    +0.000 NA
ENDBRANCH  16  19
ENDBRANCH  15  16
ENDBRANCH   9  15
ENDBRANCH   1  11
BRANCH   5  21
ATOM     21  C   UNL     1       1.289   3.877  20.455  0.00  0.00    +0.000 C 
ATOM     22  F   UNL     1       1.758   3.487  21.681  0.00  0.00    +0.000 F 
ATOM     23  F   UNL     1       0.291   4.761  20.726  0.00  0.00    +0.000 F 
ATOM     24  F   UNL     1       0.691   2.758  19.953  0.00  0.00    +0.000 F 
ENDBRANCH   5  21
BRANCH   6  25
ATOM     25  N   UNL     1       3.833   2.446  19.430  0.00  0.00    +0.000 N 
ATOM     26  C   UNL     1       3.610   1.295  18.584  0.00  0.00    +0.000 C 
ATOM     27  H   UNL     1       3.547   2.266  20.394  0.00  0.00    +0.000 HD
ENDBRANCH   6  25
TORSDOF 7
ENDMDL
MODEL 2
REMARK VINA RESULT:      -7.3      0.678      1.061
REMARK  Name = 
REMARK  10 active torsions:
REMARK  status: ('A' for Active; 'I' for Inactive)
REMARK    1  A    between atoms: C_1  and  C_2
REMARK    2  A    between atoms: C_2  and  C_3
REMARK    3  A    between atoms: C_3  and  C_4
REMARK    4  A    between atoms: C_3  and  C_6
REMARK    5  A    between atoms: C_6  and  N_7
REMARK    6  A    between atoms: C_9  and  N_10
REMARK    7  A    between atoms: C_14  and  C_15
REMARK    8  A    between atoms: C_19  and  N_20
REMARK    9  A    between atoms: N_20  and  C_21
REMARK   10  A    between atoms: C_23  and  C_24
REMARK                            x       y       z     vdW  Elec       q    Type
REMARK                         _______ _______ _______ _____ _____    ______ ____
ROOT
ATOM      1  N   UNL     1       5.080   5.946  17.312  0.00  0.00    +0.000 N 
ATOM      2  C   UNL     1       4.332   5.262  18.276  0.00  0.00    +0.000 A 
ATOM      3  N   UNL     1       3.264   5.914  18.741  0.00  0.00    +0.000 NA
ATOM      4  C   UNL     1       2.448   5.211  19.542  0.00  0.00    +0.000 A 
ATOM      5  C   UNL     1       2.657   3.899  19.930  0.00  0.00    +0.000 A 
ATOM      6  C   UNL     1       3.808   3.319  19.451  0.00  0.00    +0.000 A 
ATOM      7  N   UNL     1       4.631   4.008  18.638  0.00  0.00    +0.000 NA
ATOM      8  H   UNL     1       4.623   6.839  17.175  0.00  0.00    +0.000 HD
ENDROOT
BRANCH   1  11
ATOM      9  N   UNL     1       6.742   4.820  14.447  0.00  0.00    +0.000 N 
ATOM     10  C   UNL     1       5.659   5.423  15.001  0.00  0.00    +0.000 A 
ATOM     11  C   UNL     1       5.876   5.427  16.354  0.00  0.00    +0.000 A 
ATOM     12  C   UNL     1       7.131   4.786  16.525  0.00  0.00    +0.000 A 
ATOM     13  C   UNL     1       7.873   4.496  17.774  0.00  0.00    +0.000 C 
ATOM     14  N   UNL     1       7.665   4.433  15.345  0.00  0.00    +0.000 NA
BRANCH   9  15
ATOM     15  C   UNL     1       6.898   4.455  13.055  0.00  0.00    +0.000 C 
BRANCH  15  16
ATOM     16  C   UNL     1       5.928   3.340  12.640  0.00  0.00    +0.000 C 
BRANCH  16  18
ATOM     17  C   UNL     1       3.927   2.871  11.114  0.00  0.00    +0.000 C 
ATOM     18  C   UNL     1       4.683   3.911  11.929  0.00  0.00    +0.000 C 
ENDBRANCH  16  18
BRANCH  16  19
ATOM     19  C   UNL     1       6.653   2.427  11.758  0.00  0.00    +0.000 C 
ATOM     20  N   UNL     1       7.242   1.709  11.060  0.00  0.00    +0.000 NA
ENDBRANCH  16  19
ENDBRANCH  15  16
ENDBRANCH   9  15
ENDBRANCH   1  11
BRANCH   5  21
ATOM     21  C   UNL     1       1.628   3.230  20.760  0.00  0.00    +0.000 C 
ATOM     22  F   UNL     1       0.351   3.564  20.398  0.00  0.00    +0.000 F 
ATOM     23  F   UNL     1       1.664   1.870  20.700  0.00  0.00    +0.000 F 
ATOM     24  F   UNL     1       1.702   3.563  22.080  0.00  0.00    +0.000 F 
ENDBRANCH   5  21
BRANCH   6  25
ATOM     25  N   UNL     1       4.207   2.014  19.560  0.00  0.00    +0.000 N 
ATOM     26  C   UNL     1       3.934   0.930  18.643  0.00  0.00    +0.000 C 
ATOM     27  H   UNL     1       4.015   1.746  20.527  0.00  0.00    +0.000 HD
ENDBRANCH   6  25
TORSDOF 7
ENDMDL
MODEL 3
REMARK VINA RESULT:      -7.1      1.438      2.043
REMARK  Name = 
REMARK  10 active torsions:
REMARK  status: ('A' for Active; 'I' for Inactive)
REMARK    1  A    between atoms: C_1  and  C_2
REMARK    2  A    between atoms: C_2  and  C_3
REMARK    3  A    between atoms: C_3  and  C_4
REMARK    4  A    between atoms: C_3  and  C_6
REMARK    5  A    between atoms: C_6  and  N_7
REMARK    6  A    between atoms: C_9  and  N_10
REMARK    7  A    between atoms: C_14  and  C_15
REMARK    8  A    between atoms: C_19  and  N_20
REMARK    9  A    between atoms: N_20  and  C_21
REMARK   10  A    between atoms: C_23  and  C_24
REMARK                            x       y       z     vdW  Elec       q    Type
REMARK                         _______ _______ _______ _____ _____    ______ ____
ROOT
ATOM      1  N   UNL     1       6.189   3.878  17.569  0.00  0.00    +0.000 N 
ATOM      2  C   UNL     1       5.092   3.642  18.403  0.00  0.00    +0.000 A 
ATOM      3  N   UNL     1       5.324   3.785  19.710  0.00  0.00    +0.000 NA
ATOM      4  C   UNL     1       4.248   3.723  20.510  0.00  0.00    +0.000 A 
ATOM      5  C   UNL     1       2.953   3.493  20.078  0.00  0.00    +0.000 A 
ATOM      6  C   UNL     1       2.808   3.302  18.725  0.00  0.00    +0.000 A 
ATOM      7  N   UNL     1       3.877   3.374  17.908  0.00  0.00    +0.000 NA
ATOM      8  H   UNL     1       6.965   4.114  18.175  0.00  0.00    +0.000 HD
ENDROOT
BRANCH   1  11
ATOM      9  N   UNL     1       6.224   4.309  14.097  0.00  0.00    +0.000 N 
ATOM     10  C   UNL     1       6.328   3.478  15.167  0.00  0.00    +0.000 A 
ATOM     11  C   UNL     1       6.183   4.268  16.277  0.00  0.00    +0.000 A 
ATOM     12  C   UNL     1       6.003   5.582  15.771  0.00  0.00    +0.000 A 
ATOM     13  C   UNL     1       5.807   6.852  16.508  0.00  0.00    +0.000 C 
ATOM     14  N   UNL     1       6.011   5.594  14.429  0.00  0.00    +0.000 NA
BRANCH   9  15
ATOM     15  C   UNL     1       6.458   3.953  12.714  0.00  0.00    +0.000 C 
BRANCH  15  16
ATOM     16  C   UNL     1       5.328   3.084  12.143  0.00  0.00    +0.000 C 
BRANCH  16  18
ATOM     17  C   UNL     1       3.319   3.054  10.558  0.00  0.00    +0.000 C 
ATOM     18  C   UNL     1       4.439   3.885  11.169  0.00  0.00    +0.000 C 
ENDBRANCH  16  18
BRANCH  16  19
ATOM     19  C   UNL     1       5.944   1.945  11.464  0.00  0.00    +0.000 C 
ATOM     20  N   UNL     1       6.431   1.033  10.937  0.00  0.00    +0.000 NA
ENDBRANCH  16  19
ENDBRANCH  15  16
ENDBRANCH   9  15
ENDBRANCH   1  11
BRANCH   5  21
ATOM     21  C   UNL     1       1.856   3.525  21.073  0.00  0.00    +0.000 C 
ATOM     22  F   UNL     1       1.009   4.587  20.899  0.00  0.00    +0.000 F 
ATOM     23  F   UNL     1       1.051   2.427  21.048  0.00  0.00    +0.000 F 
ATOM     24  F   UNL     1       2.297   3.654  22.357  0.00  0.00    +0.000 F 
ENDBRANCH   5  21
BRANCH   6  25
ATOM     25  N   UNL     1       1.649   3.186  18.006  0.00  0.00    +0.000 N 
ATOM     26  C   UNL     1       0.900   4.245  17.365  0.00  0.00    +0.000 C 
ATOM     27  H   UNL     1       1.042   2.576  18.555  0.00  0.00    +0.000 HD
ENDBRANCH   6  25
TORSDOF 7
ENDMDL
MODEL 4
REMARK VINA RESULT:      -7.0      4.244      7.001
REMARK  Name = 
REMARK  10 active torsions:
REMARK  status: ('A' for Active; 'I' for Inactive)
REMARK    1  A    between atoms: C_1  and  C_2
REMARK    2  A    between atoms: C_2  and  C_3
REMARK    3  A    between atoms: C_3  and  C_4
REMARK    4  A    between atoms: C_3  and  C_6
REMARK    5  A    between atoms: C_6  and  N_7
REMARK    6  A    between atoms: C_9  and  N_10
REMARK    7  A    between atoms: C_14  and  C_15
REMARK    8  A    between atoms: C_19  and  N_20
REMARK    9  A    between atoms: N_20  and  C_21
REMARK   10  A    between atoms: C_23  and  C_24
REMARK                            x       y       z     vdW  Elec       q    Type
REMARK                         _______ _______ _______ _____ _____    ______ ____
ROOT
ATOM      1  N   UNL     1       6.506   6.416  16.684  0.00  0.00    +0.000 N 
ATOM      2  C   UNL     1       5.338   5.756  17.080  0.00  0.00    +0.000 A 
ATOM      3  N   UNL     1       5.090   4.605  16.451  0.00  0.00    +0.000 NA
ATOM      4  C   UNL     1       4.066   3.881  16.930  0.00  0.00    +0.000 A 
ATOM      5  C   UNL     1       3.254   4.260  17.986  0.00  0.00    +0.000 A 
ATOM      6  C   UNL     1       3.543   5.484  18.542  0.00  0.00    +0.000 A 
ATOM      7  N   UNL     1       4.575   6.216  18.079  0.00  0.00    +0.000 NA
ATOM      8  H   UNL     1       6.928   5.845  15.962  0.00  0.00    +0.000 HD
ENDROOT
BRANCH   1  11
ATOM      9  N   UNL     1       8.220   9.081  18.168  0.00  0.00    +0.000 N 
ATOM     10  C   UNL     1       7.402   8.630  17.182  0.00  0.00    +0.000 A 
ATOM     11  C   UNL     1       7.253   7.284  17.397  0.00  0.00    +0.000 A 
ATOM     12  C   UNL     1       8.038   7.009  18.548  0.00  0.00    +0.000 A 
ATOM     13  C   UNL     1       8.266   5.720  19.241  0.00  0.00    +0.000 C 
ATOM     14  N   UNL     1       8.614   8.123  19.025  0.00  0.00    +0.000 NA
BRANCH   9  15
ATOM     15  C   UNL     1       8.781  10.411  18.269  0.00  0.00    +0.000 C 
BRANCH  15  16
ATOM     16  C   UNL     1       9.904  10.486  19.313  0.00  0.00    +0.000 C 
BRANCH  16  18
ATOM     17  C   UNL     1      11.962  11.876  19.929  0.00  0.00    +0.000 C 
ATOM     18  C   UNL     1      11.091  11.331  18.806  0.00  0.00    +0.000 C 
ENDBRANCH  16  18
BRANCH  16  19
ATOM     19  C   UNL     1       9.339  11.066  20.531  0.00  0.00    +0.000 C 
ATOM     20  N   UNL     1       8.878  11.528  21.491  0.00  0.00    +0.000 NA
ENDBRANCH  16  19
ENDBRANCH  15  16
ENDBRANCH   9  15
ENDBRANCH   1  11
BRANCH   5  21
ATOM     21  C   UNL     1       2.207   3.322  18.451  0.00  0.00    +0.000 C 
ATOM     22  F   UNL     1       0.957   3.880  18.463  0.00  0.00    +0.000 F 
ATOM     23  F   UNL     1       2.083   2.203  17.685  0.00  0.00    +0.000 F 
ATOM     24  F   UNL     1       2.397   2.895  19.733  0.00  0.00    +0.000 F 
ENDBRANCH   5  21
BRANCH   6  25
ATOM     25  N   UNL     1       3.003   6.053  19.663  0.00  0.00    +0.000 N 
ATOM     26  C   UNL     1       2.236   7.276  19.748  0.00  0.00    +0.000 C 
ATOM     27  H   UNL     1       3.737   6.020  20.372  0.00  0.00    +0.000 HD
ENDBRANCH   6  25
TORSDOF 7
ENDMDL
MODEL 5
REMARK VINA RESULT:      -6.8      4.439      6.285
REMARK  Name = 
REMARK  10 active torsions:
REMARK  status: ('A' for Active; 'I' for Inactive)
REMARK    1  A    between atoms: C_1  and  C_2
REMARK    2  A    between atoms: C_2  and  C_3
REMARK    3  A    between atoms: C_3  and  C_4
REMARK    4  A    between atoms: C_3  and  C_6
REMARK    5  A    between atoms: C_6  and  N_7
REMARK    6  A    between atoms: C_9  and  N_10
REMARK    7  A    between atoms: C_14  and  C_15
REMARK    8  A    between atoms: C_19  and  N_20
REMARK    9  A    between atoms: N_20  and  C_21
REMARK   10  A    between atoms: C_23  and  C_24
REMARK                            x       y       z     vdW  Elec       q    Type
REMARK                         _______ _______ _______ _____ _____    ______ ____
ROOT
ATOM      1  N   UNL     1       3.970   6.647  17.517  0.00  0.00    +0.000 N 
ATOM      2  C   UNL     1       3.111   7.599  18.075  0.00  0.00    +0.000 A 
ATOM      3  N   UNL     1       2.662   8.531  17.230  0.00  0.00    +0.000 NA
ATOM      4  C   UNL     1       1.713   9.351  17.708  0.00  0.00    +0.000 A 
ATOM      5  C   UNL     1       1.209   9.313  18.997  0.00  0.00    +0.000 A 
ATOM      6  C   UNL     1       1.764   8.360  19.818  0.00  0.00    +0.000 A 
ATOM      7  N   UNL     1       2.708   7.523  19.350  0.00  0.00    +0.000 NA
ATOM      8  H   UNL     1       4.073   6.891  16.540  0.00  0.00    +0.000 HD
ENDROOT
BRANCH   1  11
ATOM      9  N   UNL     1       4.070   3.241  18.313  0.00  0.00    +0.000 N 
ATOM     10  C   UNL     1       3.417   4.281  17.732  0.00  0.00    +0.000 A 
ATOM     11  C   UNL     1       4.200   5.386  17.938  0.00  0.00    +0.000 A 
ATOM     12  C   UNL     1       5.318   4.911  18.673  0.00  0.00    +0.000 A 
ATOM     13  C   UNL     1       6.489   5.658  19.187  0.00  0.00    +0.000 C 
ATOM     14  N   UNL     1       5.238   3.587  18.883  0.00  0.00    +0.000 NA
BRANCH   9  15
ATOM     15  C   UNL     1       3.559   1.898  18.480  0.00  0.00    +0.000 C 
BRANCH  15  16
ATOM     16  C   UNL     1       2.479   1.823  19.568  0.00  0.00    +0.000 C 
BRANCH  16  18
ATOM     17  C   UNL     1       1.682   2.844  21.776  0.00  0.00    +0.000 C 
ATOM     18  C   UNL     1       2.805   2.758  20.751  0.00  0.00    +0.000 C 
ENDBRANCH  16  18
BRANCH  16  19
ATOM     19  C   UNL     1       1.204   2.191  18.955  0.00  0.00    +0.000 C 
ATOM     20  N   UNL     1       0.185   2.480  18.479  0.00  0.00    +0.000 NA
ENDBRANCH  16  19
ENDBRANCH  15  16
ENDBRANCH   9  15
ENDBRANCH   1  11
BRANCH   5  21
ATOM     21  C   UNL     1       0.109  10.237  19.358  0.00  0.00    +0.000 C 
ATOM     22  F   UNL     1       0.497  11.207  20.243  0.00  0.00    +0.000 F 
ATOM     23  F   UNL     1      -0.416  10.916  18.302  0.00  0.00    +0.000 F 
ATOM     24  F   UNL     1      -0.934   9.615  19.979  0.00  0.00    +0.000 F 
ENDBRANCH   5  21
BRANCH   6  25
ATOM     25  N   UNL     1       1.380   8.007  21.084  0.00  0.00    +0.000 N 
ATOM     26  C   UNL     1       1.372   8.840  22.266  0.00  0.00    +0.000 C 
ATOM     27  H   UNL     1       1.819   7.103  21.265  0.00  0.00    +0.000 HD
ENDBRANCH   6  25
TORSDOF 7
ENDMDL
MODEL 6
REMARK VINA RESULT:      -6.6      4.135      6.339
REMARK  Name = 
REMARK  10 active torsions:
REMARK  status: ('A' for Active; 'I' for Inactive)
REMARK    1  A    between atoms: C_1  and  C_2
REMARK    2  A    between atoms: C_2  and  C_3
REMARK    3  A    between atoms: C_3  and  C_4
REMARK    4  A    between atoms: C_3  and  C_6
REMARK    5  A    between atoms: C_6  and  N_7
REMARK    6  A    between atoms: C_9  and  N_10
REMARK    7  A    between atoms: C_14  and  C_15
REMARK    8  A    between atoms: C_19  and  N_20
REMARK    9  A    between atoms: N_20  and  C_21
REMARK   10  A    between atoms: C_23  and  C_24
REMARK                            x       y       z     vdW  Elec       q    Type
REMARK                         _______ _______ _______ _____ _____    ______ ____
ROOT
ATOM      1  N   UNL     1       2.144   6.786  20.489  0.00  0.00    +0.000 N 
ATOM      2  C   UNL     1       1.480   8.012  20.592  0.00  0.00    +0.000 A 
ATOM      3  N   UNL     1       1.474   8.559  21.810  0.00  0.00    +0.000 NA
ATOM      4  C   UNL     1       0.986   9.807  21.892  0.00  0.00    +0.000 A 
ATOM      5  C   UNL     1       0.473  10.528  20.827  0.00  0.00    +0.000 A 
ATOM      6  C   UNL     1       0.467   9.872  19.619  0.00  0.00    +0.000 A 
ATOM      7  N   UNL     1       0.964   8.625  19.519  0.00  0.00    +0.000 NA
ATOM      8  H   UNL     1       2.489   6.567  21.416  0.00  0.00    +0.000 HD
ENDROOT
BRANCH   1  11
ATOM      9  N   UNL     1       3.983   5.843  17.665  0.00  0.00    +0.000 N 
ATOM     10  C   UNL     1       3.724   6.764  18.630  0.00  0.00    +0.000 A 
ATOM     11  C   UNL     1       2.716   6.238  19.396  0.00  0.00    +0.000 A 
ATOM     12  C   UNL     1       2.422   4.983  18.803  0.00  0.00    +0.000 A 
ATOM     13  C   UNL     1       1.412   3.973  19.197  0.00  0.00    +0.000 C 
ATOM     14  N   UNL     1       3.219   4.740  17.750  0.00  0.00    +0.000 NA
BRANCH   9  15
ATOM     15  C   UNL     1       4.869   6.018  16.534  0.00  0.00    +0.000 C 
BRANCH  15  16
ATOM     16  C   UNL     1       5.391   4.678  15.998  0.00  0.00    +0.000 C 
BRANCH  16  18
ATOM     17  C   UNL     1       6.417   3.776  13.834  0.00  0.00    +0.000 C 
ATOM     18  C   UNL     1       5.312   4.618  14.459  0.00  0.00    +0.000 C 
ENDBRANCH  16  18
BRANCH  16  19
ATOM     19  C   UNL     1       6.773   4.528  16.451  0.00  0.00    +0.000 C 
ATOM     20  N   UNL     1       7.873   4.421  16.807  0.00  0.00    +0.000 NA
ENDBRANCH  16  19
ENDBRANCH  15  16
ENDBRANCH   9  15
ENDBRANCH   1  11
BRANCH   5  21
ATOM     21  C   UNL     1       0.038  11.925  21.059  0.00  0.00    +0.000 C 
ATOM     22  F   UNL     1      -1.130  12.233  20.414  0.00  0.00    +0.000 F 
ATOM     23  F   UNL     1      -0.194  12.226  22.365  0.00  0.00    +0.000 F 
ATOM     24  F   UNL     1       0.929  12.850  20.599  0.00  0.00    +0.000 F 
ENDBRANCH   5  21
BRANCH   6  25
ATOM     25  N   UNL     1       0.146  10.372  18.386  0.00  0.00    +0.000 N 
ATOM     26  C   UNL     1      -1.076  10.162  17.642  0.00  0.00    +0.000 C 
ATOM     27  H   UNL     1       0.971  10.224  17.804  0.00  0.00    +0.000 HD
ENDBRANCH   6  25
TORSDOF 7
ENDMDL
MODEL 7
REMARK VINA RESULT:      -6.6      4.345      6.852
REMARK  Name = 
REMARK  10 active torsions:
REMARK  status: ('A' for Active; 'I' for Inactive)
REMARK    1  A    between atoms: C_1  and  C_2
REMARK    2  A    between atoms: C_2  and  C_3
REMARK    3  A    between atoms: C_3  and  C_4
REMARK    4  A    between atoms: C_3  and  C_6
REMARK    5  A    between atoms: C_6  and  N_7
REMARK    6  A    between atoms: C_9  and  N_10
REMARK    7  A    between atoms: C_14  and  C_15
REMARK    8  A    between atoms: C_19  and  N_20
REMARK    9  A    between atoms: N_20  and  C_21
REMARK   10  A    between atoms: C_23  and  C_24
REMARK                            x       y       z     vdW  Elec       q    Type
REMARK                         _______ _______ _______ _____ _____    ______ ____
ROOT
ATOM      1  N   UNL     1       1.879   6.958  20.866  0.00  0.00    +0.000 N 
ATOM      2  C   UNL     1       1.312   8.232  20.761  0.00  0.00    +0.000 A 
ATOM      3  N   UNL     1       1.389   8.987  21.860  0.00  0.00    +0.000 NA
ATOM      4  C   UNL     1       0.997  10.263  21.725  0.00  0.00    +0.000 A 
ATOM      5  C   UNL     1       0.501  10.821  20.559  0.00  0.00    +0.000 A 
ATOM      6  C   UNL     1       0.404   9.962  19.490  0.00  0.00    +0.000 A 
ATOM      7  N   UNL     1       0.804   8.682  19.606  0.00  0.00    +0.000 NA
ATOM      8  H   UNL     1       2.240   6.882  21.810  0.00  0.00    +0.000 HD
ENDROOT
BRANCH   1  11
ATOM      9  N   UNL     1       3.524   5.398  18.201  0.00  0.00    +0.000 N 
ATOM     10  C   UNL     1       3.349   6.501  18.974  0.00  0.00    +0.000 A 
ATOM     11  C   UNL     1       2.371   6.182  19.878  0.00  0.00    +0.000 A 
ATOM     12  C   UNL     1       2.003   4.847  19.564  0.00  0.00    +0.000 A 
ATOM     13  C   UNL     1       0.985   3.980  20.201  0.00  0.00    +0.000 C 
ATOM     14  N   UNL     1       2.730   4.367  18.543  0.00  0.00    +0.000 NA
BRANCH   9  15
ATOM     15  C   UNL     1       4.349   5.307  17.016  0.00  0.00    +0.000 C 
BRANCH  15  16
ATOM     16  C   UNL     1       5.482   4.284  17.179  0.00  0.00    +0.000 C 
BRANCH  16  18
ATOM     17  C   UNL     1       5.504   4.442  14.625  0.00  0.00    +0.000 C 
ATOM     18  C   UNL     1       6.308   4.146  15.883  0.00  0.00    +0.000 C 
ENDBRANCH  16  18
BRANCH  16  19
ATOM     19  C   UNL     1       6.327   4.732  18.285  0.00  0.00    +0.000 C 
ATOM     20  N   UNL     1       7.002   5.098  19.156  0.00  0.00    +0.000 NA
ENDBRANCH  16  19
ENDBRANCH  15  16
ENDBRANCH   9  15
ENDBRANCH   1  11
BRANCH   5  21
ATOM     21  C   UNL     1       0.178  12.267  20.544  0.00  0.00    +0.000 C 
ATOM     22  F   UNL     1      -1.114  12.520  20.168  0.00  0.00    +0.000 F 
ATOM     23  F   UNL     1       0.319  12.881  21.750  0.00  0.00    +0.000 F 
ATOM     24  F   UNL     1       0.931  12.977  19.655  0.00  0.00    +0.000 F 
ENDBRANCH   5  21
BRANCH   6  25
ATOM     25  N   UNL     1       0.077  10.258  18.194  0.00  0.00    +0.000 N 
ATOM     26  C   UNL     1      -1.221  10.147  17.566  0.00  0.00    +0.000 C 
ATOM     27  H   UNL     1       0.809   9.837  17.621  0.00  0.00    +0.000 HD
ENDBRANCH   6  25
TORSDOF 7
ENDMDL
MODEL 8
REMARK VINA RESULT:      -6.6      4.230      6.643
REMARK  Name = 
REMARK  10 active torsions:
REMARK  status: ('A' for Active; 'I' for Inactive)
REMARK    1  A    between atoms: C_1  and  C_2
REMARK    2  A    between atoms: C_2  and  C_3
REMARK    3  A    between atoms: C_3  and  C_4
REMARK    4  A    between atoms: C_3  and  C_6
REMARK    5  A    between atoms: C_6  and  N_7
REMARK    6  A    between atoms: C_9  and  N_10
REMARK    7  A    between atoms: C_14  and  C_15
REMARK    8  A    between atoms: C_19  and  N_20
REMARK    9  A    between atoms: N_20  and  C_21
REMARK   10  A    between atoms: C_23  and  C_24
REMARK                            x       y       z     vdW  Elec       q    Type
REMARK                         _______ _______ _______ _____ _____    ______ ____
ROOT
ATOM      1  N   UNL     1       2.174   6.892  20.394  0.00  0.00    +0.000 N 
ATOM      2  C   UNL     1       1.471   8.098  20.474  0.00  0.00    +0.000 A 
ATOM      3  N   UNL     1       1.467   8.680  21.676  0.00  0.00    +0.000 NA
ATOM      4  C   UNL     1       0.938   9.913  21.730  0.00  0.00    +0.000 A 
ATOM      5  C   UNL     1       0.383  10.585  20.655  0.00  0.00    +0.000 A 
ATOM      6  C   UNL     1       0.378   9.893  19.467  0.00  0.00    +0.000 A 
ATOM      7  N   UNL     1       0.915   8.661  19.394  0.00  0.00    +0.000 NA
ATOM      8  H   UNL     1       2.542   6.712  21.321  0.00  0.00    +0.000 HD
ENDROOT
BRANCH   1  11
ATOM      9  N   UNL     1       4.014   5.916  17.583  0.00  0.00    +0.000 N 
ATOM     10  C   UNL     1       3.757   6.847  18.538  0.00  0.00    +0.000 A 
ATOM     11  C   UNL     1       2.746   6.333  19.308  0.00  0.00    +0.000 A 
ATOM     12  C   UNL     1       2.447   5.073  18.725  0.00  0.00    +0.000 A 
ATOM     13  C   UNL     1       1.432   4.071  19.127  0.00  0.00    +0.000 C 
ATOM     14  N   UNL     1       3.245   4.817  17.676  0.00  0.00    +0.000 NA
BRANCH   9  15
ATOM     15  C   UNL     1       4.903   6.077  16.452  0.00  0.00    +0.000 C 
BRANCH  15  16
ATOM     16  C   UNL     1       6.341   5.654  16.784  0.00  0.00    +0.000 C 
BRANCH  16  18
ATOM     17  C   UNL     1       5.961   4.042  14.832  0.00  0.00    +0.000 C 
ATOM     18  C   UNL     1       6.975   4.854  15.626  0.00  0.00    +0.000 C 
ENDBRANCH  16  18
BRANCH  16  19
ATOM     19  C   UNL     1       7.109   6.868  17.055  0.00  0.00    +0.000 C 
ATOM     20  N   UNL     1       7.714   7.832  17.284  0.00  0.00    +0.000 NA
ENDBRANCH  16  19
ENDBRANCH  15  16
ENDBRANCH   9  15
ENDBRANCH   1  11
BRANCH   5  21
ATOM     21  C   UNL     1      -0.096  11.972  20.854  0.00  0.00    +0.000 C 
ATOM     22  F   UNL     1      -1.403  12.144  20.481  0.00  0.00    +0.000 F 
ATOM     23  F   UNL     1      -0.042  12.400  22.145  0.00  0.00    +0.000 F 
ATOM     24  F   UNL     1       0.588  12.890  20.111  0.00  0.00    +0.000 F 
ENDBRANCH   5  21
BRANCH   6  25
ATOM     25  N   UNL     1       0.019  10.346  18.226  0.00  0.00    +0.000 N 
ATOM     26  C   UNL     1      -1.289  10.287  17.611  0.00  0.00    +0.000 C 
ATOM     27  H   UNL     1       0.748  10.019  17.590  0.00  0.00    +0.000 HD
ENDBRANCH   6  25
TORSDOF 7
ENDMDL
MODEL 9
REMARK VINA RESULT:      -6.6      1.237      1.920
REMARK  Name = 
REMARK  10 active torsions:
REMARK  status: ('A' for Active; 'I' for Inactive)
REMARK    1  A    between atoms: C_1  and  C_2
REMARK    2  A    between atoms: C_2  and  C_3
REMARK    3  A    between atoms: C_3  and  C_4
REMARK    4  A    between atoms: C_3  and  C_6
REMARK    5  A    between atoms: C_6  and  N_7
REMARK    6  A    between atoms: C_9  and  N_10
REMARK    7  A    between atoms: C_14  and  C_15
REMARK    8  A    between atoms: C_19  and  N_20
REMARK    9  A    between atoms: N_20  and  C_21
REMARK   10  A    between atoms: C_23  and  C_24
REMARK                            x       y       z     vdW  Elec       q    Type
REMARK                         _______ _______ _______ _____ _____    ______ ____
ROOT
ATOM      1  N   UNL     1       4.473   6.271  17.301  0.00  0.00    +0.000 N 
ATOM      2  C   UNL     1       3.854   5.545  18.323  0.00  0.00    +0.000 A 
ATOM      3  N   UNL     1       2.594   5.898  18.594  0.00  0.00    +0.000 NA
ATOM      4  C   UNL     1       1.934   5.107  19.454  0.00  0.00    +0.000 A 
ATOM      5  C   UNL     1       2.473   3.999  20.085  0.00  0.00    +0.000 A 
ATOM      6  C   UNL     1       3.791   3.737  19.793  0.00  0.00    +0.000 A 
ATOM      7  N   UNL     1       4.463   4.515  18.923  0.00  0.00    +0.000 NA
ATOM      8  H   UNL     1       3.793   6.948  16.977  0.00  0.00    +0.000 HD
ENDROOT
BRANCH   1  11
ATOM      9  N   UNL     1       6.695   4.979  14.927  0.00  0.00    +0.000 N 
ATOM     10  C   UNL     1       5.433   5.043  15.424  0.00  0.00    +0.000 A 
ATOM     11  C   UNL     1       5.491   5.884  16.505  0.00  0.00    +0.000 A 
ATOM     12  C   UNL     1       6.853   6.277  16.589  0.00  0.00    +0.000 A 
ATOM     13  C   UNL     1       7.512   7.173  17.567  0.00  0.00    +0.000 C 
ATOM     14  N   UNL     1       7.582   5.730  15.603  0.00  0.00    +0.000 NA
BRANCH   9  15
ATOM     15  C   UNL     1       7.154   4.099  13.874  0.00  0.00    +0.000 C 
BRANCH  15  16
ATOM     16  C   UNL     1       6.432   4.364  12.545  0.00  0.00    +0.000 C 
BRANCH  16  18
ATOM     17  C   UNL     1       8.333   6.033  12.156  0.00  0.00    +0.000 C 
ATOM     18  C   UNL     1       7.365   5.043  11.522  0.00  0.00    +0.000 C 
ENDBRANCH  16  18
BRANCH  16  19
ATOM     19  C   UNL     1       5.954   3.079  12.037  0.00  0.00    +0.000 C 
ATOM     20  N   UNL     1       5.573   2.055  11.646  0.00  0.00    +0.000 NA
ENDBRANCH  16  19
ENDBRANCH  15  16
ENDBRANCH   9  15
ENDBRANCH   1  11
BRANCH   5  21
ATOM     21  C   UNL     1       1.598   3.179  20.954  0.00  0.00    +0.000 C 
ATOM     22  F   UNL     1       0.281   3.548  20.885  0.00  0.00    +0.000 F 
ATOM     23  F   UNL     1       1.606   1.851  20.657  0.00  0.00    +0.000 F 
ATOM     24  F   UNL     1       1.906   3.283  22.279  0.00  0.00    +0.000 F 
ENDBRANCH   5  21
BRANCH   6  25
ATOM     25  N   UNL     1       4.540   2.652  20.160  0.00  0.00    +0.000 N 
ATOM     26  C   UNL     1       4.607   1.366  19.504  0.00  0.00    +0.000 C 
ATOM     27  H   UNL     1       4.410   2.554  21.168  0.00  0.00    +0.000 HD
ENDBRANCH   6  25
TORSDOF 7
ENDMDL
