MODEL 1
REMARK VINA RESULT:      -5.3      0.000      0.000
REMARK  Name = 
REMARK  1 active torsions:
REMARK  status: ('A' for Active; 'I' for Inactive)
REMARK    1  A    between atoms: C_2  and  C_3
REMARK                            x       y       z     vdW  Elec       q    Type
REMARK                         _______ _______ _______ _____ _____    ______ ____
ROOT
ATOM      1  C   UNL     1       6.508   4.295  15.729  0.00  0.00    +0.000 A 
ATOM      2  C   UNL     1       5.661   4.606  16.768  0.00  0.00    +0.000 A 
ATOM      3  C   UNL     1       6.532   4.850  17.849  0.00  0.00    +0.000 A 
ATOM      4  N   UNL     1       6.219   5.217  19.208  0.00  0.00    +0.000 N 
ATOM      5  O   UNL     1       5.014   5.331  19.474  0.00  0.00    +0.000 OA
ATOM      6  O   UNL     1       7.149   5.387  20.007  0.00  0.00    +0.000 OA
ATOM      7  N   UNL     1       7.820   4.705  17.507  0.00  0.00    +0.000 NA
ATOM      8  O   UNL     1       7.798   4.353  16.165  0.00  0.00    +0.000 OA
ENDROOT
BRANCH   1  10
ATOM      9  O   UNL     1       6.801   4.502  13.402  0.00  0.00    +0.000 OA
ATOM     10  C   UNL     1       6.274   3.944  14.359  0.00  0.00    +0.000 C 
ENDBRANCH   1  10
TORSDOF 1
ENDMDL
MODEL 2
REMARK VINA RESULT:      -5.3      2.272      4.835
REMARK  Name = 
REMARK  1 active torsions:
REMARK  status: ('A' for Active; 'I' for Inactive)
REMARK    1  A    between atoms: C_2  and  C_3
REMARK                            x       y       z     vdW  Elec       q    Type
REMARK                         _______ _______ _______ _____ _____    ______ ____
ROOT
ATOM      1  C   UNL     1       6.583   4.672  16.237  0.00  0.00    +0.000 A 
ATOM      2  C   UNL     1       6.055   3.919  15.213  0.00  0.00    +0.000 A 
ATOM      3  C   UNL     1       6.739   4.380  14.071  0.00  0.00    +0.000 A 
ATOM      4  N   UNL     1       6.605   3.963  12.696  0.00  0.00    +0.000 N 
ATOM      5  O   UNL     1       5.767   3.076  12.479  0.00  0.00    +0.000 OA
ATOM      6  O   UNL     1       7.315   4.504  11.839  0.00  0.00    +0.000 OA
ATOM      7  N   UNL     1       7.626   5.342  14.362  0.00  0.00    +0.000 NA
ATOM      8  O   UNL     1       7.521   5.523  15.734  0.00  0.00    +0.000 OA
ENDROOT
BRANCH   1  10
ATOM      9  O   UNL     1       7.173   4.500  18.509  0.00  0.00    +0.000 OA
ATOM     10  C   UNL     1       6.326   4.707  17.647  0.00  0.00    +0.000 C 
ENDBRANCH   1  10
TORSDOF 1
ENDMDL
MODEL 3
REMARK VINA RESULT:      -5.2      1.361      1.516
REMARK  Name = 
REMARK  1 active torsions:
REMARK  status: ('A' for Active; 'I' for Inactive)
REMARK    1  A    between atoms: C_2  and  C_3
REMARK                            x       y       z     vdW  Elec       q    Type
REMARK                         _______ _______ _______ _____ _____    ______ ____
ROOT
ATOM      1  C   UNL     1       6.450   4.397  14.679  0.00  0.00    +0.000 A 
ATOM      2  C   UNL     1       6.230   4.054  15.994  0.00  0.00    +0.000 A 
ATOM      3  C   UNL     1       6.972   5.008  16.718  0.00  0.00    +0.000 A 
ATOM      4  N   UNL     1       7.129   5.150  18.145  0.00  0.00    +0.000 N 
ATOM      5  O   UNL     1       6.532   4.317  18.841  0.00  0.00    +0.000 OA
ATOM      6  O   UNL     1       7.834   6.071  18.576  0.00  0.00    +0.000 OA
ATOM      7  N   UNL     1       7.602   5.877  15.917  0.00  0.00    +0.000 NA
ATOM      8  O   UNL     1       7.268   5.485  14.628  0.00  0.00    +0.000 OA
ENDROOT
BRANCH   1  10
ATOM      9  O   UNL     1       6.714   3.617  12.474  0.00  0.00    +0.000 OA
ATOM     10  C   UNL     1       5.993   3.837  13.441  0.00  0.00    +0.000 C 
ENDBRANCH   1  10
TORSDOF 1
ENDMDL
MODEL 4
REMARK VINA RESULT:      -5.1      2.148      3.754
REMARK  Name = 
REMARK  1 active torsions:
REMARK  status: ('A' for Active; 'I' for Inactive)
REMARK    1  A    between atoms: C_2  and  C_3
REMARK                            x       y       z     vdW  Elec       q    Type
REMARK                         _______ _______ _______ _____ _____    ______ ____
ROOT
ATOM      1  C   UNL     1       3.734   4.436  17.935  0.00  0.00    +0.000 A 
ATOM      2  C   UNL     1       4.743   4.567  17.007  0.00  0.00    +0.000 A 
ATOM      3  C   UNL     1       5.920   4.455  17.773  0.00  0.00    +0.000 A 
ATOM      4  N   UNL     1       7.296   4.518  17.346  0.00  0.00    +0.000 N 
ATOM      5  O   UNL     1       7.479   4.701  16.134  0.00  0.00    +0.000 OA
ATOM      6  O   UNL     1       8.188   4.390  18.195  0.00  0.00    +0.000 OA
ATOM      7  N   UNL     1       5.664   4.265  19.075  0.00  0.00    +0.000 NA
ATOM      8  O   UNL     1       4.279   4.255  19.171  0.00  0.00    +0.000 OA
ENDROOT
BRANCH   1  10
ATOM      9  O   UNL     1       1.645   3.609  17.234  0.00  0.00    +0.000 OA
ATOM     10  C   UNL     1       2.305   4.458  17.824  0.00  0.00    +0.000 C 
ENDBRANCH   1  10
TORSDOF 1
ENDMDL
MODEL 5
REMARK VINA RESULT:      -5.1      1.813      4.301
REMARK  Name = 
REMARK  1 active torsions:
REMARK  status: ('A' for Active; 'I' for Inactive)
REMARK    1  A    between atoms: C_2  and  C_3
REMARK                            x       y       z     vdW  Elec       q    Type
REMARK                         _______ _______ _______ _____ _____    ______ ____
ROOT
ATOM      1  C   UNL     1       5.977   4.858  17.610  0.00  0.00    +0.000 A 
ATOM      2  C   UNL     1       5.854   4.285  16.365  0.00  0.00    +0.000 A 
ATOM      3  C   UNL     1       6.777   4.999  15.575  0.00  0.00    +0.000 A 
ATOM      4  N   UNL     1       7.089   4.846  14.175  0.00  0.00    +0.000 N 
ATOM      5  O   UNL     1       6.458   3.968  13.572  0.00  0.00    +0.000 OA
ATOM      6  O   UNL     1       7.946   5.586  13.674  0.00  0.00    +0.000 OA
ATOM      7  N   UNL     1       7.425   5.940  16.275  0.00  0.00    +0.000 NA
ATOM      8  O   UNL     1       6.914   5.847  17.562  0.00  0.00    +0.000 OA
ENDROOT
BRANCH   1  10
ATOM      9  O   UNL     1       5.391   3.543  19.473  0.00  0.00    +0.000 OA
ATOM     10  C   UNL     1       5.327   4.605  18.863  0.00  0.00    +0.000 C 
ENDBRANCH   1  10
TORSDOF 1
ENDMDL
MODEL 6
REMARK VINA RESULT:      -5.0      1.854      2.510
REMARK  Name = 
REMARK  1 active torsions:
REMARK  status: ('A' for Active; 'I' for Inactive)
REMARK    1  A    between atoms: C_2  and  C_3
REMARK                            x       y       z     vdW  Elec       q    Type
REMARK                         _______ _______ _______ _____ _____    ______ ____
ROOT
ATOM      1  C   UNL     1       6.491   4.073  13.491  0.00  0.00    +0.000 A 
ATOM      2  C   UNL     1       6.128   3.862  14.801  0.00  0.00    +0.000 A 
ATOM      3  C   UNL     1       6.893   4.805  15.517  0.00  0.00    +0.000 A 
ATOM      4  N   UNL     1       6.939   5.052  16.938  0.00  0.00    +0.000 N 
ATOM      5  O   UNL     1       6.209   4.336  17.636  0.00  0.00    +0.000 OA
ATOM      6  O   UNL     1       7.690   5.941  17.361  0.00  0.00    +0.000 OA
ATOM      7  N   UNL     1       7.669   5.545  14.714  0.00  0.00    +0.000 NA
ATOM      8  O   UNL     1       7.411   5.077  13.433  0.00  0.00    +0.000 OA
ENDROOT
BRANCH   1  10
ATOM      9  O   UNL     1       4.929   3.205  11.959  0.00  0.00    +0.000 OA
ATOM     10  C   UNL     1       6.091   3.454  12.261  0.00  0.00    +0.000 C 
ENDBRANCH   1  10
TORSDOF 1
ENDMDL
MODEL 7
REMARK VINA RESULT:      -5.0      1.895      4.515
REMARK  Name = 
REMARK  1 active torsions:
REMARK  status: ('A' for Active; 'I' for Inactive)
REMARK    1  A    between atoms: C_2  and  C_3
REMARK                            x       y       z     vdW  Elec       q    Type
REMARK                         _______ _______ _______ _____ _____    ______ ____
ROOT
ATOM      1  C   UNL     1       6.279   4.955  17.897  0.00  0.00    +0.000 A 
ATOM      2  C   UNL     1       7.040   5.411  16.845  0.00  0.00    +0.000 A 
ATOM      3  C   UNL     1       6.555   4.685  15.740  0.00  0.00    +0.000 A 
ATOM      4  N   UNL     1       6.974   4.733  14.360  0.00  0.00    +0.000 N 
ATOM      5  O   UNL     1       7.895   5.521  14.102  0.00  0.00    +0.000 OA
ATOM      6  O   UNL     1       6.405   4.002  13.541  0.00  0.00    +0.000 OA
ATOM      7  N   UNL     1       5.567   3.844  16.077  0.00  0.00    +0.000 NA
ATOM      8  O   UNL     1       5.398   4.019  17.444  0.00  0.00    +0.000 OA
ENDROOT
BRANCH   1  10
ATOM      9  O   UNL     1       7.266   5.412  19.985  0.00  0.00    +0.000 OA
ATOM     10  C   UNL     1       6.262   5.278  19.293  0.00  0.00    +0.000 C 
ENDBRANCH   1  10
TORSDOF 1
ENDMDL
MODEL 8
REMARK VINA RESULT:      -5.0      1.332      1.419
REMARK  Name = 
REMARK  1 active torsions:
REMARK  status: ('A' for Active; 'I' for Inactive)
REMARK    1  A    between atoms: C_2  and  C_3
REMARK                            x       y       z     vdW  Elec       q    Type
REMARK                         _______ _______ _______ _____ _____    ______ ____
ROOT
ATOM      1  C   UNL     1       6.837   4.667  15.458  0.00  0.00    +0.000 A 
ATOM      2  C   UNL     1       5.616   4.461  16.057  0.00  0.00    +0.000 A 
ATOM      3  C   UNL     1       5.935   4.289  17.419  0.00  0.00    +0.000 A 
ATOM      4  N   UNL     1       5.058   4.035  18.536  0.00  0.00    +0.000 N 
ATOM      5  O   UNL     1       3.852   3.950  18.269  0.00  0.00    +0.000 OA
ATOM      6  O   UNL     1       5.554   3.918  19.664  0.00  0.00    +0.000 OA
ATOM      7  N   UNL     1       7.252   4.383  17.649  0.00  0.00    +0.000 NA
ATOM      8  O   UNL     1       7.818   4.621  16.404  0.00  0.00    +0.000 OA
ENDROOT
BRANCH   1  10
ATOM      9  O   UNL     1       8.124   5.662  13.757  0.00  0.00    +0.000 OA
ATOM     10  C   UNL     1       7.223   4.903  14.098  0.00  0.00    +0.000 C 
ENDBRANCH   1  10
TORSDOF 1
ENDMDL
MODEL 9
REMARK VINA RESULT:      -4.9      1.775      4.077
REMARK  Name = 
REMARK  1 active torsions:
REMARK  status: ('A' for Active; 'I' for Inactive)
REMARK    1  A    between atoms: C_2  and  C_3
REMARK                            x       y       z     vdW  Elec       q    Type
REMARK                         _______ _______ _______ _____ _____    ______ ____
ROOT
ATOM      1  C   UNL     1       4.190   5.488  18.308  0.00  0.00    +0.000 A 
ATOM      2  C   UNL     1       5.022   5.363  17.218  0.00  0.00    +0.000 A 
ATOM      3  C   UNL     1       6.217   4.855  17.766  0.00  0.00    +0.000 A 
ATOM      4  N   UNL     1       7.456   4.525  17.103  0.00  0.00    +0.000 N 
ATOM      5  O   UNL     1       7.483   4.715  15.880  0.00  0.00    +0.000 OA
ATOM      6  O   UNL     1       8.393   4.085  17.782  0.00  0.00    +0.000 OA
ATOM      7  N   UNL     1       6.134   4.676  19.091  0.00  0.00    +0.000 NA
ATOM      8  O   UNL     1       4.850   5.079  19.428  0.00  0.00    +0.000 OA
ENDROOT
BRANCH   1  10
ATOM      9  O   UNL     1       2.415   6.554  19.426  0.00  0.00    +0.000 OA
ATOM     10  C   UNL     1       2.840   5.947  18.449  0.00  0.00    +0.000 C 
ENDBRANCH   1  10
TORSDOF 1
ENDMDL
