MODEL 1
REMARK VINA RESULT:      -5.9      0.000      0.000
REMARK  Name = 
REMARK  18 active torsions:
REMARK  status: ('A' for Active; 'I' for Inactive)
REMARK    1  A    between atoms: C_1  and  C_2
REMARK    2  A    between atoms: C_2  and  C_3
REMARK    3  A    between atoms: C_3  and  C_4
REMARK    4  A    between atoms: C_4  and  C_5
REMARK    5  A    between atoms: C_5  and  C_6
REMARK    6  A    between atoms: C_6  and  C_7
REMARK    7  A    between atoms: C_7  and  C_8
REMARK    8  A    between atoms: C_8  and  C_9
REMARK    9  A    between atoms: C_10  and  C_11
REMARK   10  A    between atoms: C_11  and  C_12
REMARK   11  A    between atoms: C_12  and  C_13
REMARK   12  A    between atoms: C_13  and  C_14
REMARK   13  A    between atoms: C_14  and  C_15
REMARK   14  A    between atoms: C_15  and  C_16
REMARK   15  A    between atoms: C_16  and  C_17
REMARK   16  A    between atoms: C_17  and  C_18
REMARK   17  A    between atoms: C_17  and  C_19
REMARK   18  A    between atoms: C_17  and  C_20
REMARK                            x       y       z     vdW  Elec       q    Type
REMARK                         _______ _______ _______ _____ _____    ______ ____
ROOT
ATOM      1  C   UNL     1       2.416   3.256  20.367  0.00  0.00    +0.000 C 
ENDROOT
BRANCH   1   2
ATOM      2  C   UNL     1       1.820   4.636  20.555  0.00  0.00    +0.000 C 
BRANCH   2   4
ATOM      3  C   UNL     1       2.132   6.852  19.473  0.00  0.00    +0.000 C 
ATOM      4  C   UNL     1       2.280   5.522  19.443  0.00  0.00    +0.000 C 
BRANCH   3   5
ATOM      5  C   UNL     1       2.597   7.736  18.363  0.00  0.00    +0.000 C 
BRANCH   5   6
ATOM      6  C   UNL     1       1.465   8.632  17.879  0.00  0.00    +0.000 C 
BRANCH   6   7
ATOM      7  C   UNL     1       1.604  10.021  18.488  0.00  0.00    +0.000 C 
BRANCH   7   8
ATOM      8  C   UNL     1       0.475  10.282  19.474  0.00  0.00    +0.000 C 
BRANCH   8   9
ATOM      9  C   UNL     1       0.938   9.996  20.897  0.00  0.00    +0.000 C 
BRANCH   9  10
ATOM     10  C   UNL     1      -0.108   9.175  21.639  0.00  0.00    +0.000 C 
BRANCH  10  12
ATOM     11  C   UNL     1      -1.201  10.916  23.070  0.00  0.00    +0.000 C 
ATOM     12  C   UNL     1      -0.300   9.694  23.060  0.00  0.00    +0.000 C 
ENDBRANCH  10  12
ENDBRANCH   9  10
ENDBRANCH   8   9
ENDBRANCH   7   8
ENDBRANCH   6   7
ENDBRANCH   5   6
ENDBRANCH   3   5
ENDBRANCH   2   4
ENDBRANCH   1   2
BRANCH   1  13
ATOM     13  C   UNL     1       1.905   2.600  19.088  0.00  0.00    +0.000 C 
BRANCH  13  14
ATOM     14  C   UNL     1       3.055   2.072  18.231  0.00  0.00    +0.000 C 
BRANCH  14  15
ATOM     15  C   UNL     1       4.222   3.053  18.243  0.00  0.00    +0.000 C 
BRANCH  15  16
ATOM     16  C   UNL     1       4.213   4.009  17.056  0.00  0.00    +0.000 C 
BRANCH  16  17
ATOM     17  C   UNL     1       5.449   4.946  17.026  0.00  0.00    +0.000 C 
ATOM     18  C   UNL     1       5.146   6.253  16.266  0.00  0.00    +0.000 C 
ATOM     19  C   UNL     1       5.889   5.294  18.462  0.00  0.00    +0.000 C 
BRANCH  17  20
ATOM     20  C   UNL     1       6.615   4.220  16.321  0.00  0.00    +0.000 C 
ATOM     21  N   UNL     1       6.310   3.417  15.275  0.00  0.00    +0.000 N 
ATOM     22  O   UNL     1       7.788   4.354  16.655  0.00  0.00    +0.000 OA
ATOM     23  H   UNL     1       5.375   3.268  14.925  0.00  0.00    +0.000 HD
ATOM     24  H   UNL     1       7.086   2.972  14.800  0.00  0.00    +0.000 HD
ENDBRANCH  17  20
ENDBRANCH  16  17
ENDBRANCH  15  16
ENDBRANCH  14  15
ENDBRANCH  13  14
ENDBRANCH   1  13
TORSDOF 15
ENDMDL
MODEL 2
REMARK VINA RESULT:      -5.8      5.449      7.478
REMARK  Name = 
REMARK  18 active torsions:
REMARK  status: ('A' for Active; 'I' for Inactive)
REMARK    1  A    between atoms: C_1  and  C_2
REMARK    2  A    between atoms: C_2  and  C_3
REMARK    3  A    between atoms: C_3  and  C_4
REMARK    4  A    between atoms: C_4  and  C_5
REMARK    5  A    between atoms: C_5  and  C_6
REMARK    6  A    between atoms: C_6  and  C_7
REMARK    7  A    between atoms: C_7  and  C_8
REMARK    8  A    between atoms: C_8  and  C_9
REMARK    9  A    between atoms: C_10  and  C_11
REMARK   10  A    between atoms: C_11  and  C_12
REMARK   11  A    between atoms: C_12  and  C_13
REMARK   12  A    between atoms: C_13  and  C_14
REMARK   13  A    between atoms: C_14  and  C_15
REMARK   14  A    between atoms: C_15  and  C_16
REMARK   15  A    between atoms: C_16  and  C_17
REMARK   16  A    between atoms: C_17  and  C_18
REMARK   17  A    between atoms: C_17  and  C_19
REMARK   18  A    between atoms: C_17  and  C_20
REMARK                            x       y       z     vdW  Elec       q    Type
REMARK                         _______ _______ _______ _____ _____    ______ ____
ROOT
ATOM      1  C   UNL     1       6.194   5.422  18.857  0.00  0.00    +0.000 C 
ENDROOT
BRANCH   1   2
ATOM      2  C   UNL     1       7.586   5.594  18.286  0.00  0.00    +0.000 C 
BRANCH   2   4
ATOM      3  C   UNL     1       7.728   7.982  17.610  0.00  0.00    +0.000 C 
ATOM      4  C   UNL     1       8.023   7.009  18.481  0.00  0.00    +0.000 C 
BRANCH   3   5
ATOM      5  C   UNL     1       8.162   9.397  17.810  0.00  0.00    +0.000 C 
BRANCH   5   6
ATOM      6  C   UNL     1       9.065   9.515  19.030  0.00  0.00    +0.000 C 
BRANCH   6   7
ATOM      7  C   UNL     1       9.548  10.951  19.183  0.00  0.00    +0.000 C 
BRANCH   7   8
ATOM      8  C   UNL     1      10.359  11.370  17.967  0.00  0.00    +0.000 C 
BRANCH   8   9
ATOM      9  C   UNL     1      10.794  12.825  18.096  0.00  0.00    +0.000 C 
BRANCH   9  10
ATOM     10  C   UNL     1      11.190  13.134  19.533  0.00  0.00    +0.000 C 
BRANCH  10  12
ATOM     11  C   UNL     1      10.992  15.336  20.710  0.00  0.00    +0.000 C 
ATOM     12  C   UNL     1      11.745  14.549  19.652  0.00  0.00    +0.000 C 
ENDBRANCH  10  12
ENDBRANCH   9  10
ENDBRANCH   8   9
ENDBRANCH   7   8
ENDBRANCH   6   7
ENDBRANCH   5   6
ENDBRANCH   3   5
ENDBRANCH   2   4
ENDBRANCH   1   2
BRANCH   1  13
ATOM     13  C   UNL     1       5.136   5.453  17.757  0.00  0.00    +0.000 C 
BRANCH  13  14
ATOM     14  C   UNL     1       3.910   6.261  18.181  0.00  0.00    +0.000 C 
BRANCH  14  15
ATOM     15  C   UNL     1       2.740   5.333  18.488  0.00  0.00    +0.000 C 
BRANCH  15  16
ATOM     16  C   UNL     1       2.962   4.482  19.733  0.00  0.00    +0.000 C 
BRANCH  16  17
ATOM     17  C   UNL     1       2.457   3.024  19.567  0.00  0.00    +0.000 C 
ATOM     18  C   UNL     1       1.763   2.520  20.847  0.00  0.00    +0.000 C 
ATOM     19  C   UNL     1       1.463   2.936  18.391  0.00  0.00    +0.000 C 
BRANCH  17  20
ATOM     20  C   UNL     1       3.660   2.106  19.258  0.00  0.00    +0.000 C 
ATOM     21  N   UNL     1       4.815   2.344  19.924  0.00  0.00    +0.000 N 
ATOM     22  O   UNL     1       3.606   1.177  18.460  0.00  0.00    +0.000 OA
ATOM     23  H   UNL     1       4.937   3.075  20.609  0.00  0.00    +0.000 HD
ATOM     24  H   UNL     1       5.586   1.716  19.737  0.00  0.00    +0.000 HD
ENDBRANCH  17  20
ENDBRANCH  16  17
ENDBRANCH  15  16
ENDBRANCH  14  15
ENDBRANCH  13  14
ENDBRANCH   1  13
TORSDOF 15
ENDMDL
MODEL 3
REMARK VINA RESULT:      -5.7      5.425      7.354
REMARK  Name = 
REMARK  18 active torsions:
REMARK  status: ('A' for Active; 'I' for Inactive)
REMARK    1  A    between atoms: C_1  and  C_2
REMARK    2  A    between atoms: C_2  and  C_3
REMARK    3  A    between atoms: C_3  and  C_4
REMARK    4  A    between atoms: C_4  and  C_5
REMARK    5  A    between atoms: C_5  and  C_6
REMARK    6  A    between atoms: C_6  and  C_7
REMARK    7  A    between atoms: C_7  and  C_8
REMARK    8  A    between atoms: C_8  and  C_9
REMARK    9  A    between atoms: C_10  and  C_11
REMARK   10  A    between atoms: C_11  and  C_12
REMARK   11  A    between atoms: C_12  and  C_13
REMARK   12  A    between atoms: C_13  and  C_14
REMARK   13  A    between atoms: C_14  and  C_15
REMARK   14  A    between atoms: C_15  and  C_16
REMARK   15  A    between atoms: C_16  and  C_17
REMARK   16  A    between atoms: C_17  and  C_18
REMARK   17  A    between atoms: C_17  and  C_19
REMARK   18  A    between atoms: C_17  and  C_20
REMARK                            x       y       z     vdW  Elec       q    Type
REMARK                         _______ _______ _______ _____ _____    ______ ____
ROOT
ATOM      1  C   UNL     1       5.843   5.270  18.338  0.00  0.00    +0.000 C 
ENDROOT
BRANCH   1   2
ATOM      2  C   UNL     1       7.312   5.560  18.108  0.00  0.00    +0.000 C 
BRANCH   2   4
ATOM      3  C   UNL     1       8.116   7.907  18.273  0.00  0.00    +0.000 C 
ATOM      4  C   UNL     1       7.460   6.956  17.596  0.00  0.00    +0.000 C 
BRANCH   3   5
ATOM      5  C   UNL     1       8.268   9.299  17.758  0.00  0.00    +0.000 C 
BRANCH   5   6
ATOM      6  C   UNL     1       8.969  10.179  18.783  0.00  0.00    +0.000 C 
BRANCH   6   7
ATOM      7  C   UNL     1       9.316  11.526  18.164  0.00  0.00    +0.000 C 
BRANCH   7   8
ATOM      8  C   UNL     1      10.783  11.565  17.767  0.00  0.00    +0.000 C 
BRANCH   8   9
ATOM      9  C   UNL     1      11.468  12.777  18.387  0.00  0.00    +0.000 C 
BRANCH   9  10
ATOM     10  C   UNL     1      11.552  12.623  19.899  0.00  0.00    +0.000 C 
BRANCH  10  12
ATOM     11  C   UNL     1       9.760  13.230  21.540  0.00  0.00    +0.000 C 
ATOM     12  C   UNL     1      10.828  13.765  20.603  0.00  0.00    +0.000 C 
ENDBRANCH  10  12
ENDBRANCH   9  10
ENDBRANCH   8   9
ENDBRANCH   7   8
ENDBRANCH   6   7
ENDBRANCH   5   6
ENDBRANCH   3   5
ENDBRANCH   2   4
ENDBRANCH   1   2
BRANCH   1  13
ATOM     13  C   UNL     1       5.027   5.501  17.069  0.00  0.00    +0.000 C 
BRANCH  13  14
ATOM     14  C   UNL     1       4.317   4.224  16.619  0.00  0.00    +0.000 C 
BRANCH  14  15
ATOM     15  C   UNL     1       2.985   4.071  17.344  0.00  0.00    +0.000 C 
BRANCH  15  16
ATOM     16  C   UNL     1       2.991   2.950  18.377  0.00  0.00    +0.000 C 
BRANCH  16  17
ATOM     17  C   UNL     1       2.263   3.335  19.691  0.00  0.00    +0.000 C 
ATOM     18  C   UNL     1       2.206   4.865  19.876  0.00  0.00    +0.000 C 
ATOM     19  C   UNL     1       0.824   2.779  19.686  0.00  0.00    +0.000 C 
BRANCH  17  20
ATOM     20  C   UNL     1       3.020   2.718  20.888  0.00  0.00    +0.000 C 
ATOM     21  N   UNL     1       4.213   2.129  20.635  0.00  0.00    +0.000 N 
ATOM     22  O   UNL     1       2.599   2.754  22.038  0.00  0.00    +0.000 OA
ATOM     23  H   UNL     1       4.639   2.074  19.721  0.00  0.00    +0.000 HD
ATOM     24  H   UNL     1       4.715   1.757  21.431  0.00  0.00    +0.000 HD
ENDBRANCH  17  20
ENDBRANCH  16  17
ENDBRANCH  15  16
ENDBRANCH  14  15
ENDBRANCH  13  14
ENDBRANCH   1  13
TORSDOF 15
ENDMDL
MODEL 4
REMARK VINA RESULT:      -5.6      4.595      6.824
REMARK  Name = 
REMARK  18 active torsions:
REMARK  status: ('A' for Active; 'I' for Inactive)
REMARK    1  A    between atoms: C_1  and  C_2
REMARK    2  A    between atoms: C_2  and  C_3
REMARK    3  A    between atoms: C_3  and  C_4
REMARK    4  A    between atoms: C_4  and  C_5
REMARK    5  A    between atoms: C_5  and  C_6
REMARK    6  A    between atoms: C_6  and  C_7
REMARK    7  A    between atoms: C_7  and  C_8
REMARK    8  A    between atoms: C_8  and  C_9
REMARK    9  A    between atoms: C_10  and  C_11
REMARK   10  A    between atoms: C_11  and  C_12
REMARK   11  A    between atoms: C_12  and  C_13
REMARK   12  A    between atoms: C_13  and  C_14
REMARK   13  A    between atoms: C_14  and  C_15
REMARK   14  A    between atoms: C_15  and  C_16
REMARK   15  A    between atoms: C_16  and  C_17
REMARK   16  A    between atoms: C_17  and  C_18
REMARK   17  A    between atoms: C_17  and  C_19
REMARK   18  A    between atoms: C_17  and  C_20
REMARK                            x       y       z     vdW  Elec       q    Type
REMARK                         _______ _______ _______ _____ _____    ______ ____
ROOT
ATOM      1  C   UNL     1       7.083   5.707  19.001  0.00  0.00    +0.000 C 
ENDROOT
BRANCH   1   2
ATOM      2  C   UNL     1       5.870   5.562  18.105  0.00  0.00    +0.000 C 
BRANCH   2   4
ATOM      3  C   UNL     1       4.326   3.700  17.529  0.00  0.00    +0.000 C 
ATOM      4  C   UNL     1       5.231   4.236  18.359  0.00  0.00    +0.000 C 
BRANCH   3   5
ATOM      5  C   UNL     1       3.693   2.372  17.782  0.00  0.00    +0.000 C 
BRANCH   5   6
ATOM      6  C   UNL     1       2.191   2.521  17.979  0.00  0.00    +0.000 C 
BRANCH   6   7
ATOM      7  C   UNL     1       1.882   2.803  19.443  0.00  0.00    +0.000 C 
BRANCH   7   8
ATOM      8  C   UNL     1       1.288   4.194  19.601  0.00  0.00    +0.000 C 
BRANCH   8   9
ATOM      9  C   UNL     1       2.200   5.066  20.457  0.00  0.00    +0.000 C 
BRANCH   9  10
ATOM     10  C   UNL     1       2.251   6.483  19.903  0.00  0.00    +0.000 C 
BRANCH  10  12
ATOM     11  C   UNL     1       2.923   7.741  17.844  0.00  0.00    +0.000 C 
ATOM     12  C   UNL     1       2.287   6.470  18.379  0.00  0.00    +0.000 C 
ENDBRANCH  10  12
ENDBRANCH   9  10
ENDBRANCH   8   9
ENDBRANCH   7   8
ENDBRANCH   6   7
ENDBRANCH   5   6
ENDBRANCH   3   5
ENDBRANCH   2   4
ENDBRANCH   1   2
BRANCH   1  13
ATOM     13  C   UNL     1       8.031   6.783  18.479  0.00  0.00    +0.000 C 
BRANCH  13  14
ATOM     14  C   UNL     1       7.279   7.871  17.713  0.00  0.00    +0.000 C 
BRANCH  14  15
ATOM     15  C   UNL     1       8.163   9.098  17.525  0.00  0.00    +0.000 C 
BRANCH  15  16
ATOM     16  C   UNL     1       8.851   9.543  18.811  0.00  0.00    +0.000 C 
BRANCH  16  17
ATOM     17  C   UNL     1       9.376  11.001  18.742  0.00  0.00    +0.000 C 
ATOM     18  C   UNL     1      10.827  11.053  18.224  0.00  0.00    +0.000 C 
ATOM     19  C   UNL     1       8.482  11.846  17.811  0.00  0.00    +0.000 C 
BRANCH  17  20
ATOM     20  C   UNL     1       9.330  11.622  20.155  0.00  0.00    +0.000 C 
ATOM     21  N   UNL     1       9.303  12.973  20.244  0.00  0.00    +0.000 N 
ATOM     22  O   UNL     1       9.299  10.951  21.181  0.00  0.00    +0.000 OA
ATOM     23  H   UNL     1       9.305  13.596  19.449  0.00  0.00    +0.000 HD
ATOM     24  H   UNL     1       9.240  13.368  21.174  0.00  0.00    +0.000 HD
ENDBRANCH  17  20
ENDBRANCH  16  17
ENDBRANCH  15  16
ENDBRANCH  14  15
ENDBRANCH  13  14
ENDBRANCH   1  13
TORSDOF 15
ENDMDL
MODEL 5
REMARK VINA RESULT:      -5.6      5.203      6.872
REMARK  Name = 
REMARK  18 active torsions:
REMARK  status: ('A' for Active; 'I' for Inactive)
REMARK    1  A    between atoms: C_1  and  C_2
REMARK    2  A    between atoms: C_2  and  C_3
REMARK    3  A    between atoms: C_3  and  C_4
REMARK    4  A    between atoms: C_4  and  C_5
REMARK    5  A    between atoms: C_5  and  C_6
REMARK    6  A    between atoms: C_6  and  C_7
REMARK    7  A    between atoms: C_7  and  C_8
REMARK    8  A    between atoms: C_8  and  C_9
REMARK    9  A    between atoms: C_10  and  C_11
REMARK   10  A    between atoms: C_11  and  C_12
REMARK   11  A    between atoms: C_12  and  C_13
REMARK   12  A    between atoms: C_13  and  C_14
REMARK   13  A    between atoms: C_14  and  C_15
REMARK   14  A    between atoms: C_15  and  C_16
REMARK   15  A    between atoms: C_16  and  C_17
REMARK   16  A    between atoms: C_17  and  C_18
REMARK   17  A    between atoms: C_17  and  C_19
REMARK   18  A    between atoms: C_17  and  C_20
REMARK                            x       y       z     vdW  Elec       q    Type
REMARK                         _______ _______ _______ _____ _____    ______ ____
ROOT
ATOM      1  C   UNL     1       7.299   5.941  18.953  0.00  0.00    +0.000 C 
ENDROOT
BRANCH   1   2
ATOM      2  C   UNL     1       7.642   6.814  17.763  0.00  0.00    +0.000 C 
BRANCH   2   4
ATOM      3  C   UNL     1       7.967   9.278  17.763  0.00  0.00    +0.000 C 
ATOM      4  C   UNL     1       8.285   8.071  18.249  0.00  0.00    +0.000 C 
BRANCH   3   5
ATOM      5  C   UNL     1       8.607  10.534  18.254  0.00  0.00    +0.000 C 
BRANCH   5   6
ATOM      6  C   UNL     1       9.869  10.221  19.046  0.00  0.00    +0.000 C 
BRANCH   6   7
ATOM      7  C   UNL     1      10.658  11.499  19.296  0.00  0.00    +0.000 C 
BRANCH   7   8
ATOM      8  C   UNL     1      10.588  11.886  20.765  0.00  0.00    +0.000 C 
BRANCH   8   9
ATOM      9  C   UNL     1       9.920  13.246  20.924  0.00  0.00    +0.000 C 
BRANCH   9  10
ATOM     10  C   UNL     1       8.551  13.091  21.574  0.00  0.00    +0.000 C 
BRANCH  10  12
ATOM     11  C   UNL     1       8.015  11.885  23.702  0.00  0.00    +0.000 C 
ATOM     12  C   UNL     1       8.420  11.730  22.247  0.00  0.00    +0.000 C 
ENDBRANCH  10  12
ENDBRANCH   9  10
ENDBRANCH   8   9
ENDBRANCH   7   8
ENDBRANCH   6   7
ENDBRANCH   5   6
ENDBRANCH   3   5
ENDBRANCH   2   4
ENDBRANCH   1   2
BRANCH   1  13
ATOM     13  C   UNL     1       5.947   5.257  18.768  0.00  0.00    +0.000 C 
BRANCH  13  14
ATOM     14  C   UNL     1       5.086   5.987  17.738  0.00  0.00    +0.000 C 
BRANCH  14  15
ATOM     15  C   UNL     1       3.615   5.635  17.927  0.00  0.00    +0.000 C 
BRANCH  15  16
ATOM     16  C   UNL     1       3.308   5.072  19.311  0.00  0.00    +0.000 C 
BRANCH  16  17
ATOM     17  C   UNL     1       2.322   3.875  19.270  0.00  0.00    +0.000 C 
ATOM     18  C   UNL     1       1.279   3.967  20.402  0.00  0.00    +0.000 C 
ATOM     19  C   UNL     1       1.587   3.835  17.915  0.00  0.00    +0.000 C 
BRANCH  17  20
ATOM     20  C   UNL     1       3.117   2.561  19.432  0.00  0.00    +0.000 C 
ATOM     21  N   UNL     1       2.827   1.547  18.582  0.00  0.00    +0.000 N 
ATOM     22  O   UNL     1       3.996   2.408  20.273  0.00  0.00    +0.000 OA
ATOM     23  H   UNL     1       2.133   1.598  17.851  0.00  0.00    +0.000 HD
ATOM     24  H   UNL     1       3.377   0.702  18.676  0.00  0.00    +0.000 HD
ENDBRANCH  17  20
ENDBRANCH  16  17
ENDBRANCH  15  16
ENDBRANCH  14  15
ENDBRANCH  13  14
ENDBRANCH   1  13
TORSDOF 15
ENDMDL
MODEL 6
REMARK VINA RESULT:      -5.6      6.113      7.964
REMARK  Name = 
REMARK  18 active torsions:
REMARK  status: ('A' for Active; 'I' for Inactive)
REMARK    1  A    between atoms: C_1  and  C_2
REMARK    2  A    between atoms: C_2  and  C_3
REMARK    3  A    between atoms: C_3  and  C_4
REMARK    4  A    between atoms: C_4  and  C_5
REMARK    5  A    between atoms: C_5  and  C_6
REMARK    6  A    between atoms: C_6  and  C_7
REMARK    7  A    between atoms: C_7  and  C_8
REMARK    8  A    between atoms: C_8  and  C_9
REMARK    9  A    between atoms: C_10  and  C_11
REMARK   10  A    between atoms: C_11  and  C_12
REMARK   11  A    between atoms: C_12  and  C_13
REMARK   12  A    between atoms: C_13  and  C_14
REMARK   13  A    between atoms: C_14  and  C_15
REMARK   14  A    between atoms: C_15  and  C_16
REMARK   15  A    between atoms: C_16  and  C_17
REMARK   16  A    between atoms: C_17  and  C_18
REMARK   17  A    between atoms: C_17  and  C_19
REMARK   18  A    between atoms: C_17  and  C_20
REMARK                            x       y       z     vdW  Elec       q    Type
REMARK                         _______ _______ _______ _____ _____    ______ ____
ROOT
ATOM      1  C   UNL     1       7.541   6.094  18.398  0.00  0.00    +0.000 C 
ENDROOT
BRANCH   1   2
ATOM      2  C   UNL     1       7.205   7.146  17.361  0.00  0.00    +0.000 C 
BRANCH   2   4
ATOM      3  C   UNL     1       8.505   8.686  18.818  0.00  0.00    +0.000 C 
ATOM      4  C   UNL     1       8.046   8.357  17.604  0.00  0.00    +0.000 C 
BRANCH   3   5
ATOM      5  C   UNL     1       9.349   9.893  19.057  0.00  0.00    +0.000 C 
BRANCH   5   6
ATOM      6  C   UNL     1       9.034  10.980  18.038  0.00  0.00    +0.000 C 
BRANCH   6   7
ATOM      7  C   UNL     1      10.054  12.105  18.144  0.00  0.00    +0.000 C 
BRANCH   7   8
ATOM      8  C   UNL     1      11.451  11.538  18.342  0.00  0.00    +0.000 C 
BRANCH   8   9
ATOM      9  C   UNL     1      12.282  12.469  19.218  0.00  0.00    +0.000 C 
BRANCH   9  10
ATOM     10  C   UNL     1      12.163  13.905  18.726  0.00  0.00    +0.000 C 
BRANCH  10  12
ATOM     11  C   UNL     1      11.510  16.238  19.360  0.00  0.00    +0.000 C 
ATOM     12  C   UNL     1      11.835  14.849  19.878  0.00  0.00    +0.000 C 
ENDBRANCH  10  12
ENDBRANCH   9  10
ENDBRANCH   8   9
ENDBRANCH   7   8
ENDBRANCH   6   7
ENDBRANCH   5   6
ENDBRANCH   3   5
ENDBRANCH   2   4
ENDBRANCH   1   2
BRANCH   1  13
ATOM     13  C   UNL     1       7.600   4.702  17.777  0.00  0.00    +0.000 C 
BRANCH  13  14
ATOM     14  C   UNL     1       6.545   4.531  16.684  0.00  0.00    +0.000 C 
BRANCH  14  15
ATOM     15  C   UNL     1       5.282   3.897  17.257  0.00  0.00    +0.000 C 
BRANCH  15  16
ATOM     16  C   UNL     1       4.017   4.682  16.928  0.00  0.00    +0.000 C 
BRANCH  16  17
ATOM     17  C   UNL     1       3.310   5.243  18.190  0.00  0.00    +0.000 C 
ATOM     18  C   UNL     1       4.172   5.045  19.453  0.00  0.00    +0.000 C 
ATOM     19  C   UNL     1       3.020   6.747  18.013  0.00  0.00    +0.000 C 
BRANCH  17  20
ATOM     20  C   UNL     1       1.967   4.507  18.384  0.00  0.00    +0.000 C 
ATOM     21  N   UNL     1       1.624   4.157  19.647  0.00  0.00    +0.000 N 
ATOM     22  O   UNL     1       1.204   4.248  17.460  0.00  0.00    +0.000 OA
ATOM     23  H   UNL     1       2.184   4.350  20.464  0.00  0.00    +0.000 HD
ATOM     24  H   UNL     1       0.726   3.704  19.766  0.00  0.00    +0.000 HD
ENDBRANCH  17  20
ENDBRANCH  16  17
ENDBRANCH  15  16
ENDBRANCH  14  15
ENDBRANCH  13  14
ENDBRANCH   1  13
TORSDOF 15
ENDMDL
MODEL 7
REMARK VINA RESULT:      -5.6      4.896      7.284
REMARK  Name = 
REMARK  18 active torsions:
REMARK  status: ('A' for Active; 'I' for Inactive)
REMARK    1  A    between atoms: C_1  and  C_2
REMARK    2  A    between atoms: C_2  and  C_3
REMARK    3  A    between atoms: C_3  and  C_4
REMARK    4  A    between atoms: C_4  and  C_5
REMARK    5  A    between atoms: C_5  and  C_6
REMARK    6  A    between atoms: C_6  and  C_7
REMARK    7  A    between atoms: C_7  and  C_8
REMARK    8  A    between atoms: C_8  and  C_9
REMARK    9  A    between atoms: C_10  and  C_11
REMARK   10  A    between atoms: C_11  and  C_12
REMARK   11  A    between atoms: C_12  and  C_13
REMARK   12  A    between atoms: C_13  and  C_14
REMARK   13  A    between atoms: C_14  and  C_15
REMARK   14  A    between atoms: C_15  and  C_16
REMARK   15  A    between atoms: C_16  and  C_17
REMARK   16  A    between atoms: C_17  and  C_18
REMARK   17  A    between atoms: C_17  and  C_19
REMARK   18  A    between atoms: C_17  and  C_20
REMARK                            x       y       z     vdW  Elec       q    Type
REMARK                         _______ _______ _______ _____ _____    ______ ____
ROOT
ATOM      1  C   UNL     1       6.676   6.309  17.310  0.00  0.00    +0.000 C 
ENDROOT
BRANCH   1   2
ATOM      2  C   UNL     1       5.621   6.158  16.233  0.00  0.00    +0.000 C 
BRANCH   2   4
ATOM      3  C   UNL     1       3.675   6.961  17.556  0.00  0.00    +0.000 C 
ATOM      4  C   UNL     1       4.286   5.980  16.879  0.00  0.00    +0.000 C 
BRANCH   3   5
ATOM      5  C   UNL     1       2.339   6.782  18.196  0.00  0.00    +0.000 C 
BRANCH   5   6
ATOM      6  C   UNL     1       2.479   6.642  19.706  0.00  0.00    +0.000 C 
BRANCH   6   7
ATOM      7  C   UNL     1       2.626   5.174  20.082  0.00  0.00    +0.000 C 
BRANCH   7   8
ATOM      8  C   UNL     1       1.361   4.672  20.761  0.00  0.00    +0.000 C 
BRANCH   8   9
ATOM      9  C   UNL     1       0.868   3.396  20.088  0.00  0.00    +0.000 C 
BRANCH   9  10
ATOM     10  C   UNL     1       1.512   3.238  18.717  0.00  0.00    +0.000 C 
BRANCH  10  12
ATOM     11  C   UNL     1       3.636   2.218  17.870  0.00  0.00    +0.000 C 
ATOM     12  C   UNL     1       2.362   1.974  18.657  0.00  0.00    +0.000 C 
ENDBRANCH  10  12
ENDBRANCH   9  10
ENDBRANCH   8   9
ENDBRANCH   7   8
ENDBRANCH   6   7
ENDBRANCH   5   6
ENDBRANCH   3   5
ENDBRANCH   2   4
ENDBRANCH   1   2
BRANCH   1  13
ATOM     13  C   UNL     1       6.816   7.764  17.749  0.00  0.00    +0.000 C 
BRANCH  13  14
ATOM     14  C   UNL     1       8.282   8.190  17.817  0.00  0.00    +0.000 C 
BRANCH  14  15
ATOM     15  C   UNL     1       8.390   9.686  18.091  0.00  0.00    +0.000 C 
BRANCH  15  16
ATOM     16  C   UNL     1       9.346  10.017  19.232  0.00  0.00    +0.000 C 
BRANCH  16  17
ATOM     17  C   UNL     1       9.813  11.497  19.217  0.00  0.00    +0.000 C 
ATOM     18  C   UNL     1       9.260  12.249  17.991  0.00  0.00    +0.000 C 
ATOM     19  C   UNL     1       9.344  12.216  20.499  0.00  0.00    +0.000 C 
BRANCH  17  20
ATOM     20  C   UNL     1      11.356  11.538  19.173  0.00  0.00    +0.000 C 
ATOM     21  N   UNL     1      11.944  11.595  17.954  0.00  0.00    +0.000 N 
ATOM     22  O   UNL     1      12.056  11.539  20.179  0.00  0.00    +0.000 OA
ATOM     23  H   UNL     1      11.441  11.618  17.079  0.00  0.00    +0.000 HD
ATOM     24  H   UNL     1      12.954  11.655  17.938  0.00  0.00    +0.000 HD
ENDBRANCH  17  20
ENDBRANCH  16  17
ENDBRANCH  15  16
ENDBRANCH  14  15
ENDBRANCH  13  14
ENDBRANCH   1  13
TORSDOF 15
ENDMDL
MODEL 8
REMARK VINA RESULT:      -5.6      1.897      2.597
REMARK  Name = 
REMARK  18 active torsions:
REMARK  status: ('A' for Active; 'I' for Inactive)
REMARK    1  A    between atoms: C_1  and  C_2
REMARK    2  A    between atoms: C_2  and  C_3
REMARK    3  A    between atoms: C_3  and  C_4
REMARK    4  A    between atoms: C_4  and  C_5
REMARK    5  A    between atoms: C_5  and  C_6
REMARK    6  A    between atoms: C_6  and  C_7
REMARK    7  A    between atoms: C_7  and  C_8
REMARK    8  A    between atoms: C_8  and  C_9
REMARK    9  A    between atoms: C_10  and  C_11
REMARK   10  A    between atoms: C_11  and  C_12
REMARK   11  A    between atoms: C_12  and  C_13
REMARK   12  A    between atoms: C_13  and  C_14
REMARK   13  A    between atoms: C_14  and  C_15
REMARK   14  A    between atoms: C_15  and  C_16
REMARK   15  A    between atoms: C_16  and  C_17
REMARK   16  A    between atoms: C_17  and  C_18
REMARK   17  A    between atoms: C_17  and  C_19
REMARK   18  A    between atoms: C_17  and  C_20
REMARK                            x       y       z     vdW  Elec       q    Type
REMARK                         _______ _______ _______ _____ _____    ______ ____
ROOT
ATOM      1  C   UNL     1       4.028   2.163  20.419  0.00  0.00    +0.000 C 
ENDROOT
BRANCH   1   2
ATOM      2  C   UNL     1       2.800   2.853  20.977  0.00  0.00    +0.000 C 
BRANCH   2   4
ATOM      3  C   UNL     1       1.946   5.187  20.920  0.00  0.00    +0.000 C 
ATOM      4  C   UNL     1       2.689   4.215  20.374  0.00  0.00    +0.000 C 
BRANCH   3   5
ATOM      5  C   UNL     1       1.841   6.549  20.319  0.00  0.00    +0.000 C 
BRANCH   5   6
ATOM      6  C   UNL     1       2.107   6.499  18.821  0.00  0.00    +0.000 C 
BRANCH   6   7
ATOM      7  C   UNL     1       2.818   7.769  18.374  0.00  0.00    +0.000 C 
BRANCH   7   8
ATOM      8  C   UNL     1       1.840   8.712  17.693  0.00  0.00    +0.000 C 
BRANCH   8   9
ATOM      9  C   UNL     1       1.215   9.656  18.714  0.00  0.00    +0.000 C 
BRANCH   9  10
ATOM     10  C   UNL     1       0.058  10.424  18.088  0.00  0.00    +0.000 C 
BRANCH  10  12
ATOM     11  C   UNL     1      -2.424  10.112  17.982  0.00  0.00    +0.000 C 
ATOM     12  C   UNL     1      -1.220  10.237  18.897  0.00  0.00    +0.000 C 
ENDBRANCH  10  12
ENDBRANCH   9  10
ENDBRANCH   8   9
ENDBRANCH   7   8
ENDBRANCH   6   7
ENDBRANCH   5   6
ENDBRANCH   3   5
ENDBRANCH   2   4
ENDBRANCH   1   2
BRANCH   1  13
ATOM     13  C   UNL     1       4.553   2.882  19.179  0.00  0.00    +0.000 C 
BRANCH  13  14
ATOM     14  C   UNL     1       3.751   2.508  17.933  0.00  0.00    +0.000 C 
BRANCH  14  15
ATOM     15  C   UNL     1       3.808   3.633  16.906  0.00  0.00    +0.000 C 
BRANCH  15  16
ATOM     16  C   UNL     1       4.766   4.753  17.297  0.00  0.00    +0.000 C 
BRANCH  16  17
ATOM     17  C   UNL     1       5.632   5.249  16.109  0.00  0.00    +0.000 C 
ATOM     18  C   UNL     1       5.635   4.232  14.951  0.00  0.00    +0.000 C 
ATOM     19  C   UNL     1       5.097   6.599  15.588  0.00  0.00    +0.000 C 
BRANCH  17  20
ATOM     20  C   UNL     1       7.083   5.455  16.594  0.00  0.00    +0.000 C 
ATOM     21  N   UNL     1       7.777   4.356  16.975  0.00  0.00    +0.000 N 
ATOM     22  O   UNL     1       7.629   6.553  16.631  0.00  0.00    +0.000 OA
ATOM     23  H   UNL     1       7.409   3.416  16.956  0.00  0.00    +0.000 HD
ATOM     24  H   UNL     1       8.738   4.499  17.259  0.00  0.00    +0.000 HD
ENDBRANCH  17  20
ENDBRANCH  16  17
ENDBRANCH  15  16
ENDBRANCH  14  15
ENDBRANCH  13  14
ENDBRANCH   1  13
TORSDOF 15
ENDMDL
MODEL 9
REMARK VINA RESULT:      -5.5      5.558      7.398
REMARK  Name = 
REMARK  18 active torsions:
REMARK  status: ('A' for Active; 'I' for Inactive)
REMARK    1  A    between atoms: C_1  and  C_2
REMARK    2  A    between atoms: C_2  and  C_3
REMARK    3  A    between atoms: C_3  and  C_4
REMARK    4  A    between atoms: C_4  and  C_5
REMARK    5  A    between atoms: C_5  and  C_6
REMARK    6  A    between atoms: C_6  and  C_7
REMARK    7  A    between atoms: C_7  and  C_8
REMARK    8  A    between atoms: C_8  and  C_9
REMARK    9  A    between atoms: C_10  and  C_11
REMARK   10  A    between atoms: C_11  and  C_12
REMARK   11  A    between atoms: C_12  and  C_13
REMARK   12  A    between atoms: C_13  and  C_14
REMARK   13  A    between atoms: C_14  and  C_15
REMARK   14  A    between atoms: C_15  and  C_16
REMARK   15  A    between atoms: C_16  and  C_17
REMARK   16  A    between atoms: C_17  and  C_18
REMARK   17  A    between atoms: C_17  and  C_19
REMARK   18  A    between atoms: C_17  and  C_20
REMARK                            x       y       z     vdW  Elec       q    Type
REMARK                         _______ _______ _______ _____ _____    ______ ____
ROOT
ATOM      1  C   UNL     1       5.976   5.726  18.047  0.00  0.00    +0.000 C 
ENDROOT
BRANCH   1   2
ATOM      2  C   UNL     1       7.265   6.145  17.368  0.00  0.00    +0.000 C 
BRANCH   2   4
ATOM      3  C   UNL     1       7.984   8.482  17.814  0.00  0.00    +0.000 C 
ATOM      4  C   UNL     1       7.931   7.198  18.191  0.00  0.00    +0.000 C 
BRANCH   3   5
ATOM      5  C   UNL     1       8.646   9.534  18.641  0.00  0.00    +0.000 C 
BRANCH   5   6
ATOM      6  C   UNL     1       9.171  10.659  17.760  0.00  0.00    +0.000 C 
BRANCH   6   7
ATOM      7  C   UNL     1       9.542  11.862  18.617  0.00  0.00    +0.000 C 
BRANCH   7   8
ATOM      8  C   UNL     1      10.983  11.753  19.089  0.00  0.00    +0.000 C 
BRANCH   8   9
ATOM      9  C   UNL     1      11.068  11.996  20.591  0.00  0.00    +0.000 C 
BRANCH   9  10
ATOM     10  C   UNL     1       9.674  12.177  21.179  0.00  0.00    +0.000 C 
BRANCH  10  12
ATOM     11  C   UNL     1      10.263  14.609  21.268  0.00  0.00    +0.000 C 
ATOM     12  C   UNL     1       9.592  13.460  21.997  0.00  0.00    +0.000 C 
ENDBRANCH  10  12
ENDBRANCH   9  10
ENDBRANCH   8   9
ENDBRANCH   7   8
ENDBRANCH   6   7
ENDBRANCH   5   6
ENDBRANCH   3   5
ENDBRANCH   2   4
ENDBRANCH   1   2
BRANCH   1  13
ATOM     13  C   UNL     1       4.764   6.374  17.384  0.00  0.00    +0.000 C 
BRANCH  13  14
ATOM     14  C   UNL     1       3.541   6.343  18.300  0.00  0.00    +0.000 C 
BRANCH  14  15
ATOM     15  C   UNL     1       2.783   5.031  18.133  0.00  0.00    +0.000 C 
BRANCH  15  16
ATOM     16  C   UNL     1       3.162   3.985  19.175  0.00  0.00    +0.000 C 
BRANCH  16  17
ATOM     17  C   UNL     1       1.934   3.427  19.943  0.00  0.00    +0.000 C 
ATOM     18  C   UNL     1       0.957   4.553  20.336  0.00  0.00    +0.000 C 
ATOM     19  C   UNL     1       1.186   2.396  19.075  0.00  0.00    +0.000 C 
BRANCH  17  20
ATOM     20  C   UNL     1       2.421   2.720  21.227  0.00  0.00    +0.000 C 
ATOM     21  N   UNL     1       1.504   2.481  22.195  0.00  0.00    +0.000 N 
ATOM     22  O   UNL     1       3.580   2.359  21.395  0.00  0.00    +0.000 OA
ATOM     23  H   UNL     1       0.528   2.729  22.127  0.00  0.00    +0.000 HD
ATOM     24  H   UNL     1       1.827   1.988  23.017  0.00  0.00    +0.000 HD
ENDBRANCH  17  20
ENDBRANCH  16  17
ENDBRANCH  15  16
ENDBRANCH  14  15
ENDBRANCH  13  14
ENDBRANCH   1  13
TORSDOF 15
ENDMDL
