MODEL 1
REMARK VINA RESULT:      -7.6      0.000      0.000
REMARK  Name = 
REMARK  9 active torsions:
REMARK  status: ('A' for Active; 'I' for Inactive)
REMARK    1  A    between atoms: C_1  and  O_2
REMARK    2  A    between atoms: O_2  and  C_3
REMARK    3  A    between atoms: C_8  and  N_9
REMARK    4  A    between atoms: C_10  and  C_12
REMARK    5  A    between atoms: C_12  and  S_13
REMARK    6  A    between atoms: S_13  and  C_14
REMARK    7  A    between atoms: C_16  and  O_17
REMARK    8  A    between atoms: C_19  and  C_20
REMARK    9  A    between atoms: C_22  and  C_23
REMARK                            x       y       z     vdW  Elec       q    Type
REMARK                         _______ _______ _______ _____ _____    ______ ____
ROOT
ATOM      1  S   UNL     1       2.684   2.208  20.588  0.00  0.00    +0.000 S 
ENDROOT
BRANCH   1   2
ATOM      2  C   UNL     1       3.640   3.029  19.333  0.00  0.00    +0.000 A 
ATOM      3  N   UNL     1       3.202   2.914  18.077  0.00  0.00    +0.000 NA
ATOM      4  C   UNL     1       3.879   3.637  17.178  0.00  0.00    +0.000 A 
ATOM      5  C   UNL     1       4.977   4.459  17.434  0.00  0.00    +0.000 A 
ATOM      6  C   UNL     1       5.751   5.247  16.516  0.00  0.00    +0.000 A 
ATOM      7  C   UNL     1       5.528   5.331  15.031  0.00  0.00    +0.000 C 
ATOM      8  C   UNL     1       6.826   5.981  17.014  0.00  0.00    +0.000 A 
ATOM      9  C   UNL     1       7.102   5.938  18.364  0.00  0.00    +0.000 A 
ATOM     10  C   UNL     1       8.263   6.705  18.926  0.00  0.00    +0.000 C 
ATOM     11  N   UNL     1       6.357   5.205  19.227  0.00  0.00    +0.000 NA
ATOM     12  C   UNL     1       5.337   4.475  18.785  0.00  0.00    +0.000 A 
ATOM     13  N   UNL     1       4.673   3.779  19.708  0.00  0.00    +0.000 NA
BRANCH   4  14
ATOM     14  O   UNL     1       3.346   3.514  15.934  0.00  0.00    +0.000 OA
ATOM     15  H   UNL     1       2.404   3.384  16.142  0.00  0.00    +0.000 HD
ENDBRANCH   4  14
ENDBRANCH   1   2
BRANCH   1  16
ATOM     16  C   UNL     1       2.224   3.619  21.660  0.00  0.00    +0.000 C 
BRANCH  16  18
ATOM     17  N   UNL     1       2.535   5.855  20.644  0.00  0.00    +0.000 N 
ATOM     18  C   UNL     1       1.688   4.748  20.778  0.00  0.00    +0.000 C 
ATOM     19  O   UNL     1       0.568   4.625  20.250  0.00  0.00    +0.000 OA
ATOM     20  H   UNL     1       3.507   5.711  20.907  0.00  0.00    +0.000 HD
BRANCH  17  26
ATOM     21  C   UNL     1       1.559   8.166  20.402  0.00  0.00    +0.000 A 
ATOM     22  C   UNL     1       1.308   9.244  19.541  0.00  0.00    +0.000 A 
ATOM     23  C   UNL     1       1.676   9.247  18.224  0.00  0.00    +0.000 A 
ATOM     24  C   UNL     1       2.331   8.133  17.700  0.00  0.00    +0.000 A 
ATOM     25  C   UNL     1       2.586   7.046  18.521  0.00  0.00    +0.000 A 
ATOM     26  C   UNL     1       2.225   7.008  19.872  0.00  0.00    +0.000 A 
BRANCH  21  28
ATOM     27  C   UNL     1       0.613   9.548  22.051  0.00  0.00    +0.000 C 
ATOM     28  O   UNL     1       1.166   8.255  21.716  0.00  0.00    +0.000 OA
ENDBRANCH  21  28
ENDBRANCH  17  26
ENDBRANCH  16  18
ENDBRANCH   1  16
TORSDOF 6
ENDMDL
MODEL 2
REMARK VINA RESULT:      -7.5      1.402      2.381
REMARK  Name = 
REMARK  9 active torsions:
REMARK  status: ('A' for Active; 'I' for Inactive)
REMARK    1  A    between atoms: C_1  and  O_2
REMARK    2  A    between atoms: O_2  and  C_3
REMARK    3  A    between atoms: C_8  and  N_9
REMARK    4  A    between atoms: C_10  and  C_12
REMARK    5  A    between atoms: C_12  and  S_13
REMARK    6  A    between atoms: S_13  and  C_14
REMARK    7  A    between atoms: C_16  and  O_17
REMARK    8  A    between atoms: C_19  and  C_20
REMARK    9  A    between atoms: C_22  and  C_23
REMARK                            x       y       z     vdW  Elec       q    Type
REMARK                         _______ _______ _______ _____ _____    ______ ____
ROOT
ATOM      1  S   UNL     1       2.981   2.402  20.150  0.00  0.00    +0.000 S 
ENDROOT
BRANCH   1   2
ATOM      2  C   UNL     1       4.048   3.412  19.148  0.00  0.00    +0.000 A 
ATOM      3  N   UNL     1       4.835   4.274  19.794  0.00  0.00    +0.000 NA
ATOM      4  C   UNL     1       5.703   4.933  19.019  0.00  0.00    +0.000 A 
ATOM      5  C   UNL     1       5.836   4.810  17.635  0.00  0.00    +0.000 A 
ATOM      6  C   UNL     1       6.734   5.494  16.748  0.00  0.00    +0.000 A 
ATOM      7  C   UNL     1       7.741   6.535  17.153  0.00  0.00    +0.000 C 
ATOM      8  C   UNL     1       6.664   5.211  15.385  0.00  0.00    +0.000 A 
ATOM      9  C   UNL     1       5.753   4.280  14.937  0.00  0.00    +0.000 A 
ATOM     10  C   UNL     1       5.644   3.966  13.474  0.00  0.00    +0.000 C 
ATOM     11  N   UNL     1       4.919   3.625  15.783  0.00  0.00    +0.000 NA
ATOM     12  C   UNL     1       4.942   3.885  17.087  0.00  0.00    +0.000 A 
ATOM     13  N   UNL     1       4.076   3.200  17.834  0.00  0.00    +0.000 NA
BRANCH   4  14
ATOM     14  O   UNL     1       6.506   5.751  19.749  0.00  0.00    +0.000 OA
ATOM     15  H   UNL     1       6.624   6.498  19.136  0.00  0.00    +0.000 HD
ENDBRANCH   4  14
ENDBRANCH   1   2
BRANCH   1  16
ATOM     16  C   UNL     1       2.381   3.628  21.372  0.00  0.00    +0.000 C 
BRANCH  16  18
ATOM     17  N   UNL     1       2.562   5.938  20.501  0.00  0.00    +0.000 N 
ATOM     18  C   UNL     1       1.753   4.801  20.618  0.00  0.00    +0.000 C 
ATOM     19  O   UNL     1       0.598   4.684  20.171  0.00  0.00    +0.000 OA
ATOM     20  H   UNL     1       3.554   5.803  20.677  0.00  0.00    +0.000 HD
BRANCH  17  26
ATOM     21  C   UNL     1       1.420   8.185  20.477  0.00  0.00    +0.000 A 
ATOM     22  C   UNL     1       1.088   9.319  19.723  0.00  0.00    +0.000 A 
ATOM     23  C   UNL     1       1.450   9.474  18.413  0.00  0.00    +0.000 A 
ATOM     24  C   UNL     1       2.182   8.465  17.787  0.00  0.00    +0.000 A 
ATOM     25  C   UNL     1       2.519   7.326  18.502  0.00  0.00    +0.000 A 
ATOM     26  C   UNL     1       2.167   7.134  19.842  0.00  0.00    +0.000 A 
BRANCH  21  28
ATOM     27  C   UNL     1       0.783   9.421  22.372  0.00  0.00    +0.000 C 
ATOM     28  O   UNL     1       1.026   8.119  21.793  0.00  0.00    +0.000 OA
ENDBRANCH  21  28
ENDBRANCH  17  26
ENDBRANCH  16  18
ENDBRANCH   1  16
TORSDOF 6
ENDMDL
MODEL 3
REMARK VINA RESULT:      -7.5      1.682      2.976
REMARK  Name = 
REMARK  9 active torsions:
REMARK  status: ('A' for Active; 'I' for Inactive)
REMARK    1  A    between atoms: C_1  and  O_2
REMARK    2  A    between atoms: O_2  and  C_3
REMARK    3  A    between atoms: C_8  and  N_9
REMARK    4  A    between atoms: C_10  and  C_12
REMARK    5  A    between atoms: C_12  and  S_13
REMARK    6  A    between atoms: S_13  and  C_14
REMARK    7  A    between atoms: C_16  and  O_17
REMARK    8  A    between atoms: C_19  and  C_20
REMARK    9  A    between atoms: C_22  and  C_23
REMARK                            x       y       z     vdW  Elec       q    Type
REMARK                         _______ _______ _______ _____ _____    ______ ____
ROOT
ATOM      1  S   UNL     1       2.826   2.168  19.782  0.00  0.00    +0.000 S 
ENDROOT
BRANCH   1   2
ATOM      2  C   UNL     1       3.955   3.214  18.891  0.00  0.00    +0.000 A 
ATOM      3  N   UNL     1       4.655   4.091  19.614  0.00  0.00    +0.000 NA
ATOM      4  C   UNL     1       5.574   4.779  18.927  0.00  0.00    +0.000 A 
ATOM      5  C   UNL     1       5.841   4.670  17.562  0.00  0.00    +0.000 A 
ATOM      6  C   UNL     1       6.799   5.385  16.768  0.00  0.00    +0.000 A 
ATOM      7  C   UNL     1       7.735   6.448  17.272  0.00  0.00    +0.000 C 
ATOM      8  C   UNL     1       6.867   5.110  15.402  0.00  0.00    +0.000 A 
ATOM      9  C   UNL     1       6.027   4.159  14.866  0.00  0.00    +0.000 A 
ATOM     10  C   UNL     1       6.066   3.854  13.396  0.00  0.00    +0.000 C 
ATOM     11  N   UNL     1       5.134   3.476  15.625  0.00  0.00    +0.000 NA
ATOM     12  C   UNL     1       5.027   3.727  16.926  0.00  0.00    +0.000 A 
ATOM     13  N   UNL     1       4.113   3.014  17.584  0.00  0.00    +0.000 NA
BRANCH   4  14
ATOM     14  O   UNL     1       6.282   5.611  19.734  0.00  0.00    +0.000 OA
ATOM     15  H   UNL     1       6.068   6.479  19.347  0.00  0.00    +0.000 HD
ENDBRANCH   4  14
ENDBRANCH   1   2
BRANCH   1  16
ATOM     16  C   UNL     1       2.369   3.257  21.183  0.00  0.00    +0.000 C 
BRANCH  16  18
ATOM     17  N   UNL     1       2.407   5.700  20.788  0.00  0.00    +0.000 N 
ATOM     18  C   UNL     1       1.689   4.509  20.627  0.00  0.00    +0.000 C 
ATOM     19  O   UNL     1       0.574   4.402  20.085  0.00  0.00    +0.000 OA
ATOM     20  H   UNL     1       3.395   5.603  21.004  0.00  0.00    +0.000 HD
BRANCH  17  26
ATOM     21  C   UNL     1       2.157   7.472  19.013  0.00  0.00    +0.000 A 
ATOM     22  C   UNL     1       1.661   8.744  18.693  0.00  0.00    +0.000 A 
ATOM     23  C   UNL     1       0.983   9.526  19.588  0.00  0.00    +0.000 A 
ATOM     24  C   UNL     1       0.770   9.048  20.881  0.00  0.00    +0.000 A 
ATOM     25  C   UNL     1       1.256   7.798  21.233  0.00  0.00    +0.000 A 
ATOM     26  C   UNL     1       1.952   6.972  20.345  0.00  0.00    +0.000 A 
BRANCH  21  28
ATOM     27  C   UNL     1       3.797   7.532  17.330  0.00  0.00    +0.000 C 
ATOM     28  O   UNL     1       2.815   6.749  18.046  0.00  0.00    +0.000 OA
ENDBRANCH  21  28
ENDBRANCH  17  26
ENDBRANCH  16  18
ENDBRANCH   1  16
TORSDOF 6
ENDMDL
MODEL 4
REMARK VINA RESULT:      -7.2      2.195      6.662
REMARK  Name = 
REMARK  9 active torsions:
REMARK  status: ('A' for Active; 'I' for Inactive)
REMARK    1  A    between atoms: C_1  and  O_2
REMARK    2  A    between atoms: O_2  and  C_3
REMARK    3  A    between atoms: C_8  and  N_9
REMARK    4  A    between atoms: C_10  and  C_12
REMARK    5  A    between atoms: C_12  and  S_13
REMARK    6  A    between atoms: S_13  and  C_14
REMARK    7  A    between atoms: C_16  and  O_17
REMARK    8  A    between atoms: C_19  and  C_20
REMARK    9  A    between atoms: C_22  and  C_23
REMARK                            x       y       z     vdW  Elec       q    Type
REMARK                         _______ _______ _______ _____ _____    ______ ____
ROOT
ATOM      1  S   UNL     1       2.251   5.083  20.505  0.00  0.00    +0.000 S 
ENDROOT
BRANCH   1   2
ATOM      2  C   UNL     1       1.851   6.805  20.316  0.00  0.00    +0.000 A 
ATOM      3  N   UNL     1       2.252   7.392  19.186  0.00  0.00    +0.000 NA
ATOM      4  C   UNL     1       1.835   8.652  19.029  0.00  0.00    +0.000 A 
ATOM      5  C   UNL     1       1.056   9.385  19.925  0.00  0.00    +0.000 A 
ATOM      6  C   UNL     1       0.588  10.739  19.821  0.00  0.00    +0.000 A 
ATOM      7  C   UNL     1       0.872  11.678  18.681  0.00  0.00    +0.000 C 
ATOM      8  C   UNL     1      -0.170  11.261  20.868  0.00  0.00    +0.000 A 
ATOM      9  C   UNL     1      -0.455  10.464  21.955  0.00  0.00    +0.000 A 
ATOM     10  C   UNL     1      -1.255  11.004  23.104  0.00  0.00    +0.000 C 
ATOM     11  N   UNL     1      -0.024   9.181  22.039  0.00  0.00    +0.000 NA
ATOM     12  C   UNL     1       0.720   8.656  21.069  0.00  0.00    +0.000 A 
ATOM     13  N   UNL     1       1.106   7.393  21.250  0.00  0.00    +0.000 NA
BRANCH   4  14
ATOM     14  O   UNL     1       2.235   9.166  17.836  0.00  0.00    +0.000 OA
ATOM     15  H   UNL     1       1.708   8.634  17.213  0.00  0.00    +0.000 HD
ENDBRANCH   4  14
ENDBRANCH   1   2
BRANCH   1  16
ATOM     16  C   UNL     1       1.693   4.412  18.895  0.00  0.00    +0.000 C 
BRANCH  16  18
ATOM     17  N   UNL     1       3.768   5.083  17.726  0.00  0.00    +0.000 N 
ATOM     18  C   UNL     1       2.923   4.023  18.075  0.00  0.00    +0.000 C 
ATOM     19  O   UNL     1       3.096   2.829  17.772  0.00  0.00    +0.000 OA
ATOM     20  H   UNL     1       3.649   5.945  18.252  0.00  0.00    +0.000 HD
BRANCH  17  26
ATOM     21  C   UNL     1       6.251   4.688  17.548  0.00  0.00    +0.000 A 
ATOM     22  C   UNL     1       7.356   4.561  16.694  0.00  0.00    +0.000 A 
ATOM     23  C   UNL     1       7.260   4.656  15.333  0.00  0.00    +0.000 A 
ATOM     24  C   UNL     1       6.012   4.889  14.755  0.00  0.00    +0.000 A 
ATOM     25  C   UNL     1       4.900   5.029  15.572  0.00  0.00    +0.000 A 
ATOM     26  C   UNL     1       4.961   4.937  16.966  0.00  0.00    +0.000 A 
BRANCH  21  28
ATOM     27  C   UNL     1       7.292   5.594  19.450  0.00  0.00    +0.000 C 
ATOM     28  O   UNL     1       6.438   4.564  18.904  0.00  0.00    +0.000 OA
ENDBRANCH  21  28
ENDBRANCH  17  26
ENDBRANCH  16  18
ENDBRANCH   1  16
TORSDOF 6
ENDMDL
MODEL 5
REMARK VINA RESULT:      -7.1      2.777      6.603
REMARK  Name = 
REMARK  9 active torsions:
REMARK  status: ('A' for Active; 'I' for Inactive)
REMARK    1  A    between atoms: C_1  and  O_2
REMARK    2  A    between atoms: O_2  and  C_3
REMARK    3  A    between atoms: C_8  and  N_9
REMARK    4  A    between atoms: C_10  and  C_12
REMARK    5  A    between atoms: C_12  and  S_13
REMARK    6  A    between atoms: S_13  and  C_14
REMARK    7  A    between atoms: C_16  and  O_17
REMARK    8  A    between atoms: C_19  and  C_20
REMARK    9  A    between atoms: C_22  and  C_23
REMARK                            x       y       z     vdW  Elec       q    Type
REMARK                         _______ _______ _______ _____ _____    ______ ____
ROOT
ATOM      1  S   UNL     1       7.655   5.524  18.897  0.00  0.00    +0.000 S 
ENDROOT
BRANCH   1   2
ATOM      2  C   UNL     1       5.984   4.970  19.152  0.00  0.00    +0.000 A 
ATOM      3  N   UNL     1       5.766   3.658  19.045  0.00  0.00    +0.000 NA
ATOM      4  C   UNL     1       4.525   3.268  19.355  0.00  0.00    +0.000 A 
ATOM      5  C   UNL     1       3.471   4.093  19.751  0.00  0.00    +0.000 A 
ATOM      6  C   UNL     1       2.120   3.739  20.083  0.00  0.00    +0.000 A 
ATOM      7  C   UNL     1       1.547   2.349  20.053  0.00  0.00    +0.000 C 
ATOM      8  C   UNL     1       1.235   4.756  20.436  0.00  0.00    +0.000 A 
ATOM      9  C   UNL     1       1.686   6.058  20.468  0.00  0.00    +0.000 A 
ATOM     10  C   UNL     1       0.752   7.176  20.830  0.00  0.00    +0.000 C 
ATOM     11  N   UNL     1       2.968   6.383  20.169  0.00  0.00    +0.000 NA
ATOM     12  C   UNL     1       3.834   5.442  19.807  0.00  0.00    +0.000 A 
ATOM     13  N   UNL     1       5.066   5.862  19.520  0.00  0.00    +0.000 NA
BRANCH   4  14
ATOM     14  O   UNL     1       4.390   1.918  19.275  0.00  0.00    +0.000 OA
ATOM     15  H   UNL     1       5.220   1.619  19.688  0.00  0.00    +0.000 HD
ENDBRANCH   4  14
ENDBRANCH   1   2
BRANCH   1  16
ATOM     16  C   UNL     1       7.382   6.983  17.824  0.00  0.00    +0.000 C 
BRANCH  16  18
ATOM     17  N   UNL     1       7.555   5.496  15.853  0.00  0.00    +0.000 N 
ATOM     18  C   UNL     1       6.819   6.505  16.485  0.00  0.00    +0.000 C 
ATOM     19  O   UNL     1       5.777   7.025  16.046  0.00  0.00    +0.000 OA
ATOM     20  H   UNL     1       8.219   4.993  16.436  0.00  0.00    +0.000 HD
BRANCH  17  26
ATOM     21  C   UNL     1       6.260   3.842  14.460  0.00  0.00    +0.000 A 
ATOM     22  C   UNL     1       5.995   3.352  13.173  0.00  0.00    +0.000 A 
ATOM     23  C   UNL     1       6.588   3.855  12.048  0.00  0.00    +0.000 A 
ATOM     24  C   UNL     1       7.500   4.903  12.173  0.00  0.00    +0.000 A 
ATOM     25  C   UNL     1       7.792   5.405  13.432  0.00  0.00    +0.000 A 
ATOM     26  C   UNL     1       7.204   4.916  14.603  0.00  0.00    +0.000 A 
BRANCH  21  28
ATOM     27  C   UNL     1       4.377   3.971  15.862  0.00  0.00    +0.000 C 
ATOM     28  O   UNL     1       5.606   3.285  15.534  0.00  0.00    +0.000 OA
ENDBRANCH  21  28
ENDBRANCH  17  26
ENDBRANCH  16  18
ENDBRANCH   1  16
TORSDOF 6
ENDMDL
MODEL 6
REMARK VINA RESULT:      -6.9      6.849      9.414
REMARK  Name = 
REMARK  9 active torsions:
REMARK  status: ('A' for Active; 'I' for Inactive)
REMARK    1  A    between atoms: C_1  and  O_2
REMARK    2  A    between atoms: O_2  and  C_3
REMARK    3  A    between atoms: C_8  and  N_9
REMARK    4  A    between atoms: C_10  and  C_12
REMARK    5  A    between atoms: C_12  and  S_13
REMARK    6  A    between atoms: S_13  and  C_14
REMARK    7  A    between atoms: C_16  and  O_17
REMARK    8  A    between atoms: C_19  and  C_20
REMARK    9  A    between atoms: C_22  and  C_23
REMARK                            x       y       z     vdW  Elec       q    Type
REMARK                         _______ _______ _______ _____ _____    ______ ____
ROOT
ATOM      1  S   UNL     1       9.045   9.813  19.126  0.00  0.00    +0.000 S 
ENDROOT
BRANCH   1   2
ATOM      2  C   UNL     1       9.632  11.441  18.716  0.00  0.00    +0.000 A 
ATOM      3  N   UNL     1      10.805  11.511  18.082  0.00  0.00    +0.000 NA
ATOM      4  C   UNL     1      11.158  12.740  17.690  0.00  0.00    +0.000 A 
ATOM      5  C   UNL     1      10.435  13.916  17.896  0.00  0.00    +0.000 A 
ATOM      6  C   UNL     1      10.764  15.259  17.513  0.00  0.00    +0.000 A 
ATOM      7  C   UNL     1      12.015  15.684  16.796  0.00  0.00    +0.000 C 
ATOM      8  C   UNL     1       9.878  16.282  17.852  0.00  0.00    +0.000 A 
ATOM      9  C   UNL     1       8.718  15.970  18.526  0.00  0.00    +0.000 A 
ATOM     10  C   UNL     1       7.754  17.052  18.918  0.00  0.00    +0.000 C 
ATOM     11  N   UNL     1       8.405  14.696  18.871  0.00  0.00    +0.000 NA
ATOM     12  C   UNL     1       9.236  13.699  18.583  0.00  0.00    +0.000 A 
ATOM     13  N   UNL     1       8.847  12.485  18.974  0.00  0.00    +0.000 NA
BRANCH   4  14
ATOM     14  O   UNL     1      12.332  12.729  17.006  0.00  0.00    +0.000 OA
ATOM     15  H   UNL     1      12.845  12.079  17.520  0.00  0.00    +0.000 HD
ENDBRANCH   4  14
ENDBRANCH   1   2
BRANCH   1  16
ATOM     16  C   UNL     1       8.245   9.321  17.554  0.00  0.00    +0.000 C 
BRANCH  16  18
ATOM     17  N   UNL     1       6.579   7.608  16.905  0.00  0.00    +0.000 N 
ATOM     18  C   UNL     1       7.683   7.907  17.713  0.00  0.00    +0.000 C 
ATOM     19  O   UNL     1       8.218   7.131  18.525  0.00  0.00    +0.000 OA
ATOM     20  H   UNL     1       6.418   8.230  16.118  0.00  0.00    +0.000 HD
BRANCH  17  26
ATOM     21  C   UNL     1       6.321   5.233  16.104  0.00  0.00    +0.000 A 
ATOM     22  C   UNL     1       5.578   4.046  16.185  0.00  0.00    +0.000 A 
ATOM     23  C   UNL     1       4.486   3.905  16.997  0.00  0.00    +0.000 A 
ATOM     24  C   UNL     1       4.082   4.983  17.783  0.00  0.00    +0.000 A 
ATOM     25  C   UNL     1       4.788   6.175  17.719  0.00  0.00    +0.000 A 
ATOM     26  C   UNL     1       5.909   6.354  16.902  0.00  0.00    +0.000 A 
BRANCH  21  28
ATOM     27  C   UNL     1       7.135   4.772  13.947  0.00  0.00    +0.000 C 
ATOM     28  O   UNL     1       7.414   5.280  15.271  0.00  0.00    +0.000 OA
ENDBRANCH  21  28
ENDBRANCH  17  26
ENDBRANCH  16  18
ENDBRANCH   1  16
TORSDOF 6
ENDMDL
MODEL 7
REMARK VINA RESULT:      -6.9      2.882      7.036
REMARK  Name = 
REMARK  9 active torsions:
REMARK  status: ('A' for Active; 'I' for Inactive)
REMARK    1  A    between atoms: C_1  and  O_2
REMARK    2  A    between atoms: O_2  and  C_3
REMARK    3  A    between atoms: C_8  and  N_9
REMARK    4  A    between atoms: C_10  and  C_12
REMARK    5  A    between atoms: C_12  and  S_13
REMARK    6  A    between atoms: S_13  and  C_14
REMARK    7  A    between atoms: C_16  and  O_17
REMARK    8  A    between atoms: C_19  and  C_20
REMARK    9  A    between atoms: C_22  and  C_23
REMARK                            x       y       z     vdW  Elec       q    Type
REMARK                         _______ _______ _______ _____ _____    ______ ____
ROOT
ATOM      1  S   UNL     1       7.581   5.503  18.678  0.00  0.00    +0.000 S 
ENDROOT
BRANCH   1   2
ATOM      2  C   UNL     1       5.927   4.947  19.021  0.00  0.00    +0.000 A 
ATOM      3  N   UNL     1       5.716   3.630  18.967  0.00  0.00    +0.000 NA
ATOM      4  C   UNL     1       4.492   3.241  19.341  0.00  0.00    +0.000 A 
ATOM      5  C   UNL     1       3.448   4.072  19.752  0.00  0.00    +0.000 A 
ATOM      6  C   UNL     1       2.115   3.719  20.151  0.00  0.00    +0.000 A 
ATOM      7  C   UNL     1       1.553   2.325  20.193  0.00  0.00    +0.000 C 
ATOM      8  C   UNL     1       1.236   4.742  20.505  0.00  0.00    +0.000 A 
ATOM      9  C   UNL     1       1.676   6.047  20.473  0.00  0.00    +0.000 A 
ATOM     10  C   UNL     1       0.748   7.170  20.834  0.00  0.00    +0.000 C 
ATOM     11  N   UNL     1       2.942   6.372  20.111  0.00  0.00    +0.000 NA
ATOM     12  C   UNL     1       3.801   5.424  19.746  0.00  0.00    +0.000 A 
ATOM     13  N   UNL     1       5.017   5.844  19.395  0.00  0.00    +0.000 NA
BRANCH   4  14
ATOM     14  O   UNL     1       4.367   1.888  19.314  0.00  0.00    +0.000 OA
ATOM     15  H   UNL     1       3.439   1.788  19.036  0.00  0.00    +0.000 HD
ENDBRANCH   4  14
ENDBRANCH   1   2
BRANCH   1  16
ATOM     16  C   UNL     1       7.250   6.939  17.590  0.00  0.00    +0.000 C 
BRANCH  16  18
ATOM     17  N   UNL     1       7.329   5.372  15.676  0.00  0.00    +0.000 N 
ATOM     18  C   UNL     1       6.642   6.430  16.282  0.00  0.00    +0.000 C 
ATOM     19  O   UNL     1       5.610   6.969  15.844  0.00  0.00    +0.000 OA
ATOM     20  H   UNL     1       7.988   4.868  16.264  0.00  0.00    +0.000 HD
BRANCH  17  26
ATOM     21  C   UNL     1       7.580   4.994  13.196  0.00  0.00    +0.000 A 
ATOM     22  C   UNL     1       7.098   4.328  12.061  0.00  0.00    +0.000 A 
ATOM     23  C   UNL     1       6.044   3.456  12.100  0.00  0.00    +0.000 A 
ATOM     24  C   UNL     1       5.413   3.211  13.319  0.00  0.00    +0.000 A 
ATOM     25  C   UNL     1       5.858   3.860  14.460  0.00  0.00    +0.000 A 
ATOM     26  C   UNL     1       6.932   4.756  14.457  0.00  0.00    +0.000 A 
BRANCH  21  28
ATOM     27  C   UNL     1       8.637   6.586  11.827  0.00  0.00    +0.000 C 
ATOM     28  O   UNL     1       8.654   5.843  13.067  0.00  0.00    +0.000 OA
ENDBRANCH  21  28
ENDBRANCH  17  26
ENDBRANCH  16  18
ENDBRANCH   1  16
TORSDOF 6
ENDMDL
MODEL 8
REMARK VINA RESULT:      -6.8      0.961      1.795
REMARK  Name = 
REMARK  9 active torsions:
REMARK  status: ('A' for Active; 'I' for Inactive)
REMARK    1  A    between atoms: C_1  and  O_2
REMARK    2  A    between atoms: O_2  and  C_3
REMARK    3  A    between atoms: C_8  and  N_9
REMARK    4  A    between atoms: C_10  and  C_12
REMARK    5  A    between atoms: C_12  and  S_13
REMARK    6  A    between atoms: S_13  and  C_14
REMARK    7  A    between atoms: C_16  and  O_17
REMARK    8  A    between atoms: C_19  and  C_20
REMARK    9  A    between atoms: C_22  and  C_23
REMARK                            x       y       z     vdW  Elec       q    Type
REMARK                         _______ _______ _______ _____ _____    ______ ____
ROOT
ATOM      1  S   UNL     1       2.423   2.205  20.415  0.00  0.00    +0.000 S 
ENDROOT
BRANCH   1   2
ATOM      2  C   UNL     1       3.501   2.961  19.220  0.00  0.00    +0.000 A 
ATOM      3  N   UNL     1       3.155   2.834  17.937  0.00  0.00    +0.000 NA
ATOM      4  C   UNL     1       3.925   3.510  17.079  0.00  0.00    +0.000 A 
ATOM      5  C   UNL     1       5.032   4.297  17.400  0.00  0.00    +0.000 A 
ATOM      6  C   UNL     1       5.902   5.034  16.528  0.00  0.00    +0.000 A 
ATOM      7  C   UNL     1       5.796   5.093  15.030  0.00  0.00    +0.000 C 
ATOM      8  C   UNL     1       6.965   5.739  17.092  0.00  0.00    +0.000 A 
ATOM      9  C   UNL     1       7.136   5.717  18.459  0.00  0.00    +0.000 A 
ATOM     10  C   UNL     1       8.280   6.453  19.093  0.00  0.00    +0.000 C 
ATOM     11  N   UNL     1       6.301   5.032  19.278  0.00  0.00    +0.000 NA
ATOM     12  C   UNL     1       5.289   4.331  18.774  0.00  0.00    +0.000 A 
ATOM     13  N   UNL     1       4.532   3.681  19.658  0.00  0.00    +0.000 NA
BRANCH   4  14
ATOM     14  O   UNL     1       3.484   3.379  15.800  0.00  0.00    +0.000 OA
ATOM     15  H   UNL     1       3.171   4.282  15.612  0.00  0.00    +0.000 HD
ENDBRANCH   4  14
ENDBRANCH   1   2
BRANCH   1  16
ATOM     16  C   UNL     1       2.203   3.577  21.609  0.00  0.00    +0.000 C 
BRANCH  16  18
ATOM     17  N   UNL     1       2.240   5.985  21.039  0.00  0.00    +0.000 N 
ATOM     18  C   UNL     1       1.574   4.764  20.878  0.00  0.00    +0.000 C 
ATOM     19  O   UNL     1       0.540   4.585  20.209  0.00  0.00    +0.000 OA
ATOM     20  H   UNL     1       3.194   5.934  21.385  0.00  0.00    +0.000 HD
BRANCH  17  26
ATOM     21  C   UNL     1       2.185   7.617  19.118  0.00  0.00    +0.000 A 
ATOM     22  C   UNL     1       1.708   8.846  18.643  0.00  0.00    +0.000 A 
ATOM     23  C   UNL     1       0.903   9.669  19.382  0.00  0.00    +0.000 A 
ATOM     24  C   UNL     1       0.534   9.279  20.670  0.00  0.00    +0.000 A 
ATOM     25  C   UNL     1       0.997   8.073  21.174  0.00  0.00    +0.000 A 
ATOM     26  C   UNL     1       1.819   7.207  20.447  0.00  0.00    +0.000 A 
BRANCH  21  28
ATOM     27  C   UNL     1       3.696   7.626  17.317  0.00  0.00    +0.000 C 
ATOM     28  O   UNL     1       2.978   6.847  18.300  0.00  0.00    +0.000 OA
ENDBRANCH  21  28
ENDBRANCH  17  26
ENDBRANCH  16  18
ENDBRANCH   1  16
TORSDOF 6
ENDMDL
MODEL 9
REMARK VINA RESULT:      -6.7      4.411      6.019
REMARK  Name = 
REMARK  9 active torsions:
REMARK  status: ('A' for Active; 'I' for Inactive)
REMARK    1  A    between atoms: C_1  and  O_2
REMARK    2  A    between atoms: O_2  and  C_3
REMARK    3  A    between atoms: C_8  and  N_9
REMARK    4  A    between atoms: C_10  and  C_12
REMARK    5  A    between atoms: C_12  and  S_13
REMARK    6  A    between atoms: S_13  and  C_14
REMARK    7  A    between atoms: C_16  and  O_17
REMARK    8  A    between atoms: C_19  and  C_20
REMARK    9  A    between atoms: C_22  and  C_23
REMARK                            x       y       z     vdW  Elec       q    Type
REMARK                         _______ _______ _______ _____ _____    ______ ____
ROOT
ATOM      1  S   UNL     1       1.937   9.804  18.032  0.00  0.00    +0.000 S 
ENDROOT
BRANCH   1   2
ATOM      2  C   UNL     1       2.526   8.167  18.400  0.00  0.00    +0.000 A 
ATOM      3  N   UNL     1       2.081   7.611  19.529  0.00  0.00    +0.000 NA
ATOM      4  C   UNL     1       2.453   6.340  19.715  0.00  0.00    +0.000 A 
ATOM      5  C   UNL     1       3.255   5.579  18.864  0.00  0.00    +0.000 A 
ATOM      6  C   UNL     1       3.699   4.222  19.012  0.00  0.00    +0.000 A 
ATOM      7  C   UNL     1       3.384   3.320  20.173  0.00  0.00    +0.000 C 
ATOM      8  C   UNL     1       4.520   3.680  18.024  0.00  0.00    +0.000 A 
ATOM      9  C   UNL     1       4.865   4.455  16.937  0.00  0.00    +0.000 A 
ATOM     10  C   UNL     1       5.760   3.904  15.866  0.00  0.00    +0.000 C 
ATOM     11  N   UNL     1       4.429   5.731  16.796  0.00  0.00    +0.000 NA
ATOM     12  C   UNL     1       3.662   6.287  17.729  0.00  0.00    +0.000 A 
ATOM     13  N   UNL     1       3.295   7.550  17.506  0.00  0.00    +0.000 NA
BRANCH   4  14
ATOM     14  O   UNL     1       1.921   5.824  20.854  0.00  0.00    +0.000 OA
ATOM     15  H   UNL     1       1.427   5.061  20.505  0.00  0.00    +0.000 HD
ENDBRANCH   4  14
ENDBRANCH   1   2
BRANCH   1  16
ATOM     16  C   UNL     1       0.660  10.018  19.327  0.00  0.00    +0.000 C 
BRANCH  16  18
ATOM     17  N   UNL     1      -1.689  10.185  18.565  0.00  0.00    +0.000 N 
ATOM     18  C   UNL     1      -0.479  10.863  18.754  0.00  0.00    +0.000 C 
ATOM     19  O   UNL     1      -0.272  12.062  18.494  0.00  0.00    +0.000 OA
ATOM     20  H   UNL     1      -1.789   9.300  19.055  0.00  0.00    +0.000 HD
BRANCH  17  26
ATOM     21  C   UNL     1      -3.261  10.700  16.663  0.00  0.00    +0.000 A 
ATOM     22  C   UNL     1      -4.447  11.334  16.266  0.00  0.00    +0.000 A 
ATOM     23  C   UNL     1      -5.250  12.023  17.134  0.00  0.00    +0.000 A 
ATOM     24  C   UNL     1      -4.882  12.107  18.477  0.00  0.00    +0.000 A 
ATOM     25  C   UNL     1      -3.711  11.498  18.901  0.00  0.00    +0.000 A 
ATOM     26  C   UNL     1      -2.868  10.786  18.043  0.00  0.00    +0.000 A 
BRANCH  21  28
ATOM     27  C   UNL     1      -3.092  10.092  14.399  0.00  0.00    +0.000 C 
ATOM     28  O   UNL     1      -2.523  10.017  15.726  0.00  0.00    +0.000 OA
ENDBRANCH  21  28
ENDBRANCH  17  26
ENDBRANCH  16  18
ENDBRANCH   1  16
TORSDOF 6
ENDMDL
