MODEL 1
REMARK VINA RESULT:      -7.1      0.000      0.000
REMARK  Name = 
REMARK  7 active torsions:
REMARK  status: ('A' for Active; 'I' for Inactive)
REMARK    1  A    between atoms: C_1  and  O_2
REMARK    2  A    between atoms: O_2  and  C_3
REMARK    3  A    between atoms: C_3  and  C_5
REMARK    4  A    between atoms: C_6  and  N_7
REMARK    5  A    between atoms: N_7  and  C_8
REMARK    6  A    between atoms: C_11  and  C_12
REMARK    7  A    between atoms: C_13  and  C_14
REMARK                            x       y       z     vdW  Elec       q    Type
REMARK                         _______ _______ _______ _____ _____    ______ ____
ROOT
ATOM      1  C   UNL     1       3.589   3.691  18.994  0.00  0.00    +0.000 C 
ATOM      2  C   UNL     1       2.827   4.542  19.713  0.00  0.00    +0.000 C 
ATOM      3  S   UNL     1       1.291   3.853  20.248  0.00  0.00    +0.000 S 
ATOM      4  C   UNL     1       1.591   2.249  19.486  0.00  0.00    +0.000 C 
ATOM      5  C   UNL     1       2.945   2.362  18.847  0.00  0.00    +0.000 C 
ATOM      6  O   UNL     1       3.439   1.424  18.231  0.00  0.00    +0.000 OA
ENDROOT
BRANCH   1   7
ATOM      7  C   UNL     1       4.883   4.047  18.393  0.00  0.00    +0.000 C 
ATOM      8  O   UNL     1       5.118   4.045  17.189  0.00  0.00    +0.000 OA
BRANCH   7  10
ATOM      9  C   UNL     1       6.659   5.442  19.049  0.00  0.00    +0.000 C 
ATOM     10  O   UNL     1       5.787   4.350  19.355  0.00  0.00    +0.000 OA
ENDBRANCH   7  10
ENDBRANCH   1   7
BRANCH   2  11
ATOM     11  N   UNL     1       3.137   5.840  20.057  0.00  0.00    +0.000 N 
ATOM     12  H   UNL     1       3.933   5.955  20.678  0.00  0.00    +0.000 HD
BRANCH  11  13
ATOM     13  C   UNL     1       2.444   7.005  19.695  0.00  0.00    +0.000 A 
ATOM     14  C   UNL     1       2.530   7.487  18.387  0.00  0.00    +0.000 A 
ATOM     15  C   UNL     1       1.910   8.689  18.021  0.00  0.00    +0.000 A 
ATOM     16  C   UNL     1       1.181   9.438  18.955  0.00  0.00    +0.000 A 
ATOM     17  C   UNL     1       0.606  10.765  18.543  0.00  0.00    +0.000 C 
ATOM     18  C   UNL     1       1.031   8.936  20.259  0.00  0.00    +0.000 A 
ATOM     19  C   UNL     1       0.250   9.641  21.333  0.00  0.00    +0.000 C 
ATOM     20  C   UNL     1       1.657   7.722  20.604  0.00  0.00    +0.000 A 
ENDBRANCH  11  13
ENDBRANCH   2  11
TORSDOF 4
ENDMDL
MODEL 2
REMARK VINA RESULT:      -7.0      4.456      5.682
REMARK  Name = 
REMARK  7 active torsions:
REMARK  status: ('A' for Active; 'I' for Inactive)
REMARK    1  A    between atoms: C_1  and  O_2
REMARK    2  A    between atoms: O_2  and  C_3
REMARK    3  A    between atoms: C_3  and  C_5
REMARK    4  A    between atoms: C_6  and  N_7
REMARK    5  A    between atoms: N_7  and  C_8
REMARK    6  A    between atoms: C_11  and  C_12
REMARK    7  A    between atoms: C_13  and  C_14
REMARK                            x       y       z     vdW  Elec       q    Type
REMARK                         _______ _______ _______ _____ _____    ______ ____
ROOT
ATOM      1  C   UNL     1       6.503   5.987  17.031  0.00  0.00    +0.000 C 
ATOM      2  C   UNL     1       6.518   4.957  17.904  0.00  0.00    +0.000 C 
ATOM      3  S   UNL     1       7.558   5.219  19.306  0.00  0.00    +0.000 S 
ATOM      4  C   UNL     1       8.085   6.859  18.779  0.00  0.00    +0.000 C 
ATOM      5  C   UNL     1       7.364   7.107  17.485  0.00  0.00    +0.000 C 
ATOM      6  O   UNL     1       7.518   8.150  16.860  0.00  0.00    +0.000 OA
ENDROOT
BRANCH   1   7
ATOM      7  C   UNL     1       5.759   5.984  15.762  0.00  0.00    +0.000 C 
ATOM      8  O   UNL     1       5.065   6.911  15.359  0.00  0.00    +0.000 OA
BRANCH   7  10
ATOM      9  C   UNL     1       6.984   4.784  14.154  0.00  0.00    +0.000 C 
ATOM     10  O   UNL     1       5.926   4.806  15.117  0.00  0.00    +0.000 OA
ENDBRANCH   7  10
ENDBRANCH   1   7
BRANCH   2  11
ATOM     11  N   UNL     1       5.814   3.776  17.801  0.00  0.00    +0.000 N 
ATOM     12  H   UNL     1       6.287   3.020  17.314  0.00  0.00    +0.000 HD
BRANCH  11  13
ATOM     13  C   UNL     1       4.504   3.526  18.236  0.00  0.00    +0.000 A 
ATOM     14  C   UNL     1       3.445   3.593  17.329  0.00  0.00    +0.000 A 
ATOM     15  C   UNL     1       2.121   3.422  17.754  0.00  0.00    +0.000 A 
ATOM     16  C   UNL     1       1.823   3.172  19.101  0.00  0.00    +0.000 A 
ATOM     17  C   UNL     1       0.385   3.082  19.529  0.00  0.00    +0.000 C 
ATOM     18  C   UNL     1       2.880   3.038  20.017  0.00  0.00    +0.000 A 
ATOM     19  C   UNL     1       2.679   2.744  21.477  0.00  0.00    +0.000 C 
ATOM     20  C   UNL     1       4.205   3.207  19.566  0.00  0.00    +0.000 A 
ENDBRANCH  11  13
ENDBRANCH   2  11
TORSDOF 4
ENDMDL
MODEL 3
REMARK VINA RESULT:      -7.0      0.524      1.022
REMARK  Name = 
REMARK  7 active torsions:
REMARK  status: ('A' for Active; 'I' for Inactive)
REMARK    1  A    between atoms: C_1  and  O_2
REMARK    2  A    between atoms: O_2  and  C_3
REMARK    3  A    between atoms: C_3  and  C_5
REMARK    4  A    between atoms: C_6  and  N_7
REMARK    5  A    between atoms: N_7  and  C_8
REMARK    6  A    between atoms: C_11  and  C_12
REMARK    7  A    between atoms: C_13  and  C_14
REMARK                            x       y       z     vdW  Elec       q    Type
REMARK                         _______ _______ _______ _____ _____    ______ ____
ROOT
ATOM      1  C   UNL     1       3.657   3.676  19.067  0.00  0.00    +0.000 C 
ATOM      2  C   UNL     1       2.847   4.554  19.696  0.00  0.00    +0.000 C 
ATOM      3  S   UNL     1       1.254   3.904  20.092  0.00  0.00    +0.000 S 
ATOM      4  C   UNL     1       1.592   2.281  19.389  0.00  0.00    +0.000 C 
ATOM      5  C   UNL     1       3.002   2.357  18.881  0.00  0.00    +0.000 C 
ATOM      6  O   UNL     1       3.534   1.399  18.330  0.00  0.00    +0.000 OA
ENDROOT
BRANCH   1   7
ATOM      7  C   UNL     1       5.010   3.997  18.586  0.00  0.00    +0.000 C 
ATOM      8  O   UNL     1       5.961   4.271  19.310  0.00  0.00    +0.000 OA
BRANCH   7  10
ATOM      9  C   UNL     1       4.872   5.242  16.596  0.00  0.00    +0.000 C 
ATOM     10  O   UNL     1       5.050   3.973  17.232  0.00  0.00    +0.000 OA
ENDBRANCH   7  10
ENDBRANCH   1   7
BRANCH   2  11
ATOM     11  N   UNL     1       3.149   5.852  20.046  0.00  0.00    +0.000 N 
ATOM     12  H   UNL     1       3.948   5.969  20.664  0.00  0.00    +0.000 HD
BRANCH  11  13
ATOM     13  C   UNL     1       2.446   7.014  19.697  0.00  0.00    +0.000 A 
ATOM     14  C   UNL     1       2.517   7.505  18.391  0.00  0.00    +0.000 A 
ATOM     15  C   UNL     1       1.886   8.704  18.037  0.00  0.00    +0.000 A 
ATOM     16  C   UNL     1       1.159   9.442  18.981  0.00  0.00    +0.000 A 
ATOM     17  C   UNL     1       0.571  10.767  18.581  0.00  0.00    +0.000 C 
ATOM     18  C   UNL     1       1.024   8.932  20.283  0.00  0.00    +0.000 A 
ATOM     19  C   UNL     1       0.246   9.625  21.367  0.00  0.00    +0.000 C 
ATOM     20  C   UNL     1       1.661   7.720  20.616  0.00  0.00    +0.000 A 
ENDBRANCH  11  13
ENDBRANCH   2  11
TORSDOF 4
ENDMDL
MODEL 4
REMARK VINA RESULT:      -6.9      3.303      5.498
REMARK  Name = 
REMARK  7 active torsions:
REMARK  status: ('A' for Active; 'I' for Inactive)
REMARK    1  A    between atoms: C_1  and  O_2
REMARK    2  A    between atoms: O_2  and  C_3
REMARK    3  A    between atoms: C_3  and  C_5
REMARK    4  A    between atoms: C_6  and  N_7
REMARK    5  A    between atoms: N_7  and  C_8
REMARK    6  A    between atoms: C_11  and  C_12
REMARK    7  A    between atoms: C_13  and  C_14
REMARK                            x       y       z     vdW  Elec       q    Type
REMARK                         _______ _______ _______ _____ _____    ______ ____
ROOT
ATOM      1  C   UNL     1       6.730   5.906  17.279  0.00  0.00    +0.000 C 
ATOM      2  C   UNL     1       6.689   5.034  18.309  0.00  0.00    +0.000 C 
ATOM      3  S   UNL     1       7.690   5.502  19.685  0.00  0.00    +0.000 S 
ATOM      4  C   UNL     1       8.278   7.020  18.916  0.00  0.00    +0.000 C 
ATOM      5  C   UNL     1       7.606   7.067  17.574  0.00  0.00    +0.000 C 
ATOM      6  O   UNL     1       7.808   7.990  16.792  0.00  0.00    +0.000 OA
ENDROOT
BRANCH   1   7
ATOM      7  C   UNL     1       6.027   5.711  16.002  0.00  0.00    +0.000 C 
ATOM      8  O   UNL     1       5.348   6.565  15.441  0.00  0.00    +0.000 OA
BRANCH   7  10
ATOM      9  C   UNL     1       6.264   4.318  14.123  0.00  0.00    +0.000 C 
ATOM     10  O   UNL     1       6.212   4.449  15.546  0.00  0.00    +0.000 OA
ENDBRANCH   7  10
ENDBRANCH   1   7
BRANCH   2  11
ATOM     11  N   UNL     1       5.957   3.869  18.375  0.00  0.00    +0.000 N 
ATOM     12  H   UNL     1       6.383   3.053  17.944  0.00  0.00    +0.000 HD
BRANCH  11  13
ATOM     13  C   UNL     1       4.672   3.700  18.913  0.00  0.00    +0.000 A 
ATOM     14  C   UNL     1       4.076   2.437  18.908  0.00  0.00    +0.000 A 
ATOM     15  C   UNL     1       2.766   2.257  19.370  0.00  0.00    +0.000 A 
ATOM     16  C   UNL     1       2.018   3.338  19.856  0.00  0.00    +0.000 A 
ATOM     17  C   UNL     1       0.587   3.118  20.259  0.00  0.00    +0.000 C 
ATOM     18  C   UNL     1       2.624   4.604  19.927  0.00  0.00    +0.000 A 
ATOM     19  C   UNL     1       1.926   5.827  20.455  0.00  0.00    +0.000 C 
ATOM     20  C   UNL     1       3.945   4.762  19.464  0.00  0.00    +0.000 A 
ENDBRANCH  11  13
ENDBRANCH   2  11
TORSDOF 4
ENDMDL
MODEL 5
REMARK VINA RESULT:      -6.8      1.279      1.633
REMARK  Name = 
REMARK  7 active torsions:
REMARK  status: ('A' for Active; 'I' for Inactive)
REMARK    1  A    between atoms: C_1  and  O_2
REMARK    2  A    between atoms: O_2  and  C_3
REMARK    3  A    between atoms: C_3  and  C_5
REMARK    4  A    between atoms: C_6  and  N_7
REMARK    5  A    between atoms: N_7  and  C_8
REMARK    6  A    between atoms: C_11  and  C_12
REMARK    7  A    between atoms: C_13  and  C_14
REMARK                            x       y       z     vdW  Elec       q    Type
REMARK                         _______ _______ _______ _____ _____    ______ ____
ROOT
ATOM      1  C   UNL     1       4.502   4.379  19.049  0.00  0.00    +0.000 C 
ATOM      2  C   UNL     1       3.368   4.954  18.595  0.00  0.00    +0.000 C 
ATOM      3  S   UNL     1       1.925   3.958  18.806  0.00  0.00    +0.000 S 
ATOM      4  C   UNL     1       2.813   2.596  19.580  0.00  0.00    +0.000 C 
ATOM      5  C   UNL     1       4.245   3.041  19.637  0.00  0.00    +0.000 C 
ATOM      6  O   UNL     1       5.118   2.321  20.110  0.00  0.00    +0.000 OA
ENDROOT
BRANCH   1   7
ATOM      7  C   UNL     1       5.838   4.984  18.937  0.00  0.00    +0.000 C 
ATOM      8  O   UNL     1       6.585   5.208  19.883  0.00  0.00    +0.000 OA
BRANCH   7  10
ATOM      9  C   UNL     1       7.221   6.172  17.451  0.00  0.00    +0.000 C 
ATOM     10  O   UNL     1       6.116   5.284  17.645  0.00  0.00    +0.000 OA
ENDBRANCH   7  10
ENDBRANCH   1   7
BRANCH   2  11
ATOM     11  N   UNL     1       3.247   6.199  18.017  0.00  0.00    +0.000 N 
ATOM     12  H   UNL     1       3.805   6.355  17.181  0.00  0.00    +0.000 HD
BRANCH  11  13
ATOM     13  C   UNL     1       2.494   7.286  18.486  0.00  0.00    +0.000 A 
ATOM     14  C   UNL     1       2.085   8.283  17.598  0.00  0.00    +0.000 A 
ATOM     15  C   UNL     1       1.398   9.415  18.054  0.00  0.00    +0.000 A 
ATOM     16  C   UNL     1       1.096   9.576  19.413  0.00  0.00    +0.000 A 
ATOM     17  C   UNL     1       0.435  10.846  19.873  0.00  0.00    +0.000 C 
ATOM     18  C   UNL     1       1.444   8.553  20.312  0.00  0.00    +0.000 A 
ATOM     19  C   UNL     1       1.146   8.607  21.785  0.00  0.00    +0.000 C 
ATOM     20  C   UNL     1       2.128   7.419  19.831  0.00  0.00    +0.000 A 
ENDBRANCH  11  13
ENDBRANCH   2  11
TORSDOF 4
ENDMDL
MODEL 6
REMARK VINA RESULT:      -6.6      1.936      2.674
REMARK  Name = 
REMARK  7 active torsions:
REMARK  status: ('A' for Active; 'I' for Inactive)
REMARK    1  A    between atoms: C_1  and  O_2
REMARK    2  A    between atoms: O_2  and  C_3
REMARK    3  A    between atoms: C_3  and  C_5
REMARK    4  A    between atoms: C_6  and  N_7
REMARK    5  A    between atoms: N_7  and  C_8
REMARK    6  A    between atoms: C_11  and  C_12
REMARK    7  A    between atoms: C_13  and  C_14
REMARK                            x       y       z     vdW  Elec       q    Type
REMARK                         _______ _______ _______ _____ _____    ______ ____
ROOT
ATOM      1  C   UNL     1       2.636   4.043  18.835  0.00  0.00    +0.000 C 
ATOM      2  C   UNL     1       3.351   5.186  18.898  0.00  0.00    +0.000 C 
ATOM      3  S   UNL     1       4.672   5.271  17.729  0.00  0.00    +0.000 S 
ATOM      4  C   UNL     1       4.328   3.653  17.018  0.00  0.00    +0.000 C 
ATOM      5  C   UNL     1       3.135   3.138  17.770  0.00  0.00    +0.000 C 
ATOM      6  O   UNL     1       2.653   2.038  17.523  0.00  0.00    +0.000 OA
ENDROOT
BRANCH   1   7
ATOM      7  C   UNL     1       1.524   3.713  19.739  0.00  0.00    +0.000 C 
ATOM      8  O   UNL     1       0.444   3.255  19.380  0.00  0.00    +0.000 OA
BRANCH   7  10
ATOM      9  C   UNL     1       2.207   2.890  21.833  0.00  0.00    +0.000 C 
ATOM     10  O   UNL     1       1.849   4.011  21.020  0.00  0.00    +0.000 OA
ENDBRANCH   7  10
ENDBRANCH   1   7
BRANCH   2  11
ATOM     11  N   UNL     1       3.140   6.247  19.752  0.00  0.00    +0.000 N 
ATOM     12  H   UNL     1       3.585   6.177  20.663  0.00  0.00    +0.000 HD
BRANCH  11  13
ATOM     13  C   UNL     1       2.335   7.374  19.527  0.00  0.00    +0.000 A 
ATOM     14  C   UNL     1       2.290   7.954  18.258  0.00  0.00    +0.000 A 
ATOM     15  C   UNL     1       1.555   9.124  18.026  0.00  0.00    +0.000 A 
ATOM     16  C   UNL     1       0.838   9.741  19.060  0.00  0.00    +0.000 A 
ATOM     17  C   UNL     1       0.134  11.041  18.791  0.00  0.00    +0.000 C 
ATOM     18  C   UNL     1       0.820   9.136  20.329  0.00  0.00    +0.000 A 
ATOM     19  C   UNL     1       0.064   9.694  21.502  0.00  0.00    +0.000 C 
ATOM     20  C   UNL     1       1.561   7.955  20.538  0.00  0.00    +0.000 A 
ENDBRANCH  11  13
ENDBRANCH   2  11
TORSDOF 4
ENDMDL
MODEL 7
REMARK VINA RESULT:      -6.6      3.210      5.578
REMARK  Name = 
REMARK  7 active torsions:
REMARK  status: ('A' for Active; 'I' for Inactive)
REMARK    1  A    between atoms: C_1  and  O_2
REMARK    2  A    between atoms: O_2  and  C_3
REMARK    3  A    between atoms: C_3  and  C_5
REMARK    4  A    between atoms: C_6  and  N_7
REMARK    5  A    between atoms: N_7  and  C_8
REMARK    6  A    between atoms: C_11  and  C_12
REMARK    7  A    between atoms: C_13  and  C_14
REMARK                            x       y       z     vdW  Elec       q    Type
REMARK                         _______ _______ _______ _____ _____    ______ ____
ROOT
ATOM      1  C   UNL     1       6.396   6.201  17.420  0.00  0.00    +0.000 C 
ATOM      2  C   UNL     1       6.541   5.203  18.317  0.00  0.00    +0.000 C 
ATOM      3  S   UNL     1       7.831   5.476  19.492  0.00  0.00    +0.000 S 
ATOM      4  C   UNL     1       8.301   7.074  18.808  0.00  0.00    +0.000 C 
ATOM      5  C   UNL     1       7.360   7.303  17.660  0.00  0.00    +0.000 C 
ATOM      6  O   UNL     1       7.428   8.317  16.974  0.00  0.00    +0.000 OA
ENDROOT
BRANCH   1   7
ATOM      7  C   UNL     1       5.430   6.181  16.311  0.00  0.00    +0.000 C 
ATOM      8  O   UNL     1       5.732   6.158  15.122  0.00  0.00    +0.000 OA
BRANCH   7  10
ATOM      9  C   UNL     1       3.744   7.490  17.297  0.00  0.00    +0.000 C 
ATOM     10  O   UNL     1       4.162   6.221  16.786  0.00  0.00    +0.000 OA
ENDBRANCH   7  10
ENDBRANCH   1   7
BRANCH   2  11
ATOM     11  N   UNL     1       5.794   4.047  18.396  0.00  0.00    +0.000 N 
ATOM     12  H   UNL     1       6.021   3.327  17.715  0.00  0.00    +0.000 HD
BRANCH  11  13
ATOM     13  C   UNL     1       4.724   3.782  19.263  0.00  0.00    +0.000 A 
ATOM     14  C   UNL     1       4.569   2.506  19.808  0.00  0.00    +0.000 A 
ATOM     15  C   UNL     1       3.467   2.196  20.615  0.00  0.00    +0.000 A 
ATOM     16  C   UNL     1       2.492   3.160  20.904  0.00  0.00    +0.000 A 
ATOM     17  C   UNL     1       1.281   2.763  21.702  0.00  0.00    +0.000 C 
ATOM     18  C   UNL     1       2.664   4.467  20.417  0.00  0.00    +0.000 A 
ATOM     19  C   UNL     1       1.697   5.586  20.688  0.00  0.00    +0.000 C 
ATOM     20  C   UNL     1       3.784   4.759  19.613  0.00  0.00    +0.000 A 
ENDBRANCH  11  13
ENDBRANCH   2  11
TORSDOF 4
ENDMDL
MODEL 8
REMARK VINA RESULT:      -6.6      2.259      3.714
REMARK  Name = 
REMARK  7 active torsions:
REMARK  status: ('A' for Active; 'I' for Inactive)
REMARK    1  A    between atoms: C_1  and  O_2
REMARK    2  A    between atoms: O_2  and  C_3
REMARK    3  A    between atoms: C_3  and  C_5
REMARK    4  A    between atoms: C_6  and  N_7
REMARK    5  A    between atoms: N_7  and  C_8
REMARK    6  A    between atoms: C_11  and  C_12
REMARK    7  A    between atoms: C_13  and  C_14
REMARK                            x       y       z     vdW  Elec       q    Type
REMARK                         _______ _______ _______ _____ _____    ______ ____
ROOT
ATOM      1  C   UNL     1       5.844   4.600  17.678  0.00  0.00    +0.000 C 
ATOM      2  C   UNL     1       4.806   5.058  16.946  0.00  0.00    +0.000 C 
ATOM      3  S   UNL     1       5.236   5.512  15.295  0.00  0.00    +0.000 S 
ATOM      4  C   UNL     1       6.975   5.083  15.486  0.00  0.00    +0.000 C 
ATOM      5  C   UNL     1       7.103   4.575  16.893  0.00  0.00    +0.000 C 
ATOM      6  O   UNL     1       8.183   4.204  17.340  0.00  0.00    +0.000 OA
ENDROOT
BRANCH   1   7
ATOM      7  C   UNL     1       5.751   4.212  19.094  0.00  0.00    +0.000 C 
ATOM      8  O   UNL     1       6.103   4.915  20.035  0.00  0.00    +0.000 OA
BRANCH   7  10
ATOM      9  C   UNL     1       4.084   2.847  20.036  0.00  0.00    +0.000 C 
ATOM     10  O   UNL     1       5.246   2.960  19.210  0.00  0.00    +0.000 OA
ENDBRANCH   7  10
ENDBRANCH   1   7
BRANCH   2  11
ATOM     11  N   UNL     1       3.497   5.185  17.359  0.00  0.00    +0.000 N 
ATOM     12  H   UNL     1       2.850   4.489  16.998  0.00  0.00    +0.000 HD
BRANCH  11  13
ATOM     13  C   UNL     1       2.953   6.196  18.166  0.00  0.00    +0.000 A 
ATOM     14  C   UNL     1       2.579   5.911  19.481  0.00  0.00    +0.000 A 
ATOM     15  C   UNL     1       1.964   6.882  20.281  0.00  0.00    +0.000 A 
ATOM     16  C   UNL     1       1.712   8.169  19.787  0.00  0.00    +0.000 A 
ATOM     17  C   UNL     1       0.972   9.154  20.649  0.00  0.00    +0.000 C 
ATOM     18  C   UNL     1       2.139   8.493  18.487  0.00  0.00    +0.000 A 
ATOM     19  C   UNL     1       1.946   9.848  17.866  0.00  0.00    +0.000 C 
ATOM     20  C   UNL     1       2.762   7.503  17.702  0.00  0.00    +0.000 A 
ENDBRANCH  11  13
ENDBRANCH   2  11
TORSDOF 4
ENDMDL
MODEL 9
REMARK VINA RESULT:      -6.5      3.408      5.509
REMARK  Name = 
REMARK  7 active torsions:
REMARK  status: ('A' for Active; 'I' for Inactive)
REMARK    1  A    between atoms: C_1  and  O_2
REMARK    2  A    between atoms: O_2  and  C_3
REMARK    3  A    between atoms: C_3  and  C_5
REMARK    4  A    between atoms: C_6  and  N_7
REMARK    5  A    between atoms: N_7  and  C_8
REMARK    6  A    between atoms: C_11  and  C_12
REMARK    7  A    between atoms: C_13  and  C_14
REMARK                            x       y       z     vdW  Elec       q    Type
REMARK                         _______ _______ _______ _____ _____    ______ ____
ROOT
ATOM      1  C   UNL     1       6.579   6.012  17.306  0.00  0.00    +0.000 C 
ATOM      2  C   UNL     1       6.714   5.018  18.211  0.00  0.00    +0.000 C 
ATOM      3  S   UNL     1       7.851   5.382  19.511  0.00  0.00    +0.000 S 
ATOM      4  C   UNL     1       8.255   7.021  18.884  0.00  0.00    +0.000 C 
ATOM      5  C   UNL     1       7.419   7.186  17.647  0.00  0.00    +0.000 C 
ATOM      6  O   UNL     1       7.472   8.210  16.975  0.00  0.00    +0.000 OA
ENDROOT
BRANCH   1   7
ATOM      7  C   UNL     1       5.734   5.926  16.105  0.00  0.00    +0.000 C 
ATOM      8  O   UNL     1       6.158   5.885  14.955  0.00  0.00    +0.000 OA
BRANCH   7  10
ATOM      9  C   UNL     1       3.987   7.073  17.183  0.00  0.00    +0.000 C 
ATOM     10  O   UNL     1       4.423   5.928  16.446  0.00  0.00    +0.000 OA
ENDBRANCH   7  10
ENDBRANCH   1   7
BRANCH   2  11
ATOM     11  N   UNL     1       6.061   3.805  18.209  0.00  0.00    +0.000 N 
ATOM     12  H   UNL     1       6.607   3.009  17.891  0.00  0.00    +0.000 HD
BRANCH  11  13
ATOM     13  C   UNL     1       4.719   3.560  18.536  0.00  0.00    +0.000 A 
ATOM     14  C   UNL     1       3.996   2.593  17.833  0.00  0.00    +0.000 A 
ATOM     15  C   UNL     1       2.635   2.384  18.089  0.00  0.00    +0.000 A 
ATOM     16  C   UNL     1       1.961   3.133  19.063  0.00  0.00    +0.000 A 
ATOM     17  C   UNL     1       0.482   2.938  19.245  0.00  0.00    +0.000 C 
ATOM     18  C   UNL     1       2.687   4.066  19.824  0.00  0.00    +0.000 A 
ATOM     19  C   UNL     1       2.073   4.904  20.911  0.00  0.00    +0.000 C 
ATOM     20  C   UNL     1       4.057   4.256  19.555  0.00  0.00    +0.000 A 
ENDBRANCH  11  13
ENDBRANCH   2  11
TORSDOF 4
ENDMDL
