MODEL 1
REMARK VINA RESULT:      -6.9      0.000      0.000
REMARK  Name = 
REMARK  12 active torsions:
REMARK  status: ('A' for Active; 'I' for Inactive)
REMARK    1  A    between atoms: C_1  and  C_2
REMARK    2  A    between atoms: C_2  and  C_3
REMARK    3  A    between atoms: C_5  and  N_6
REMARK    4  A    between atoms: N_6  and  C_7
REMARK    5  A    between atoms: C_7  and  C_8
REMARK    6  A    between atoms: C_8  and  O_9
REMARK    7  A    between atoms: C_11  and  O_12
REMARK    8  A    between atoms: C_15  and  O_16
REMARK    9  A    between atoms: C_18  and  C_19
REMARK   10  A    between atoms: C_19  and  O_21
REMARK   11  A    between atoms: O_21  and  C_22
REMARK   12  A    between atoms: C_29  and  O_30
REMARK                            x       y       z     vdW  Elec       q    Type
REMARK                         _______ _______ _______ _____ _____    ______ ____
ROOT
ATOM      1  C   UNL     1      -2.694  10.413  17.304  0.00  0.00    +0.000 A 
ATOM      2  C   UNL     1      -1.393  10.220  17.766  0.00  0.00    +0.000 A 
ATOM      3  C   UNL     1      -0.914  10.751  18.965  0.00  0.00    +0.000 A 
ATOM      4  C   UNL     1      -1.758  11.619  19.741  0.00  0.00    +0.000 A 
ATOM      5  C   UNL     1      -1.354  12.178  20.999  0.00  0.00    +0.000 A 
ATOM      6  C   UNL     1      -2.153  13.073  21.734  0.00  0.00    +0.000 A 
ATOM      7  C   UNL     1      -3.380  13.452  21.228  0.00  0.00    +0.000 A 
ATOM      8  C   UNL     1      -3.816  12.914  20.001  0.00  0.00    +0.000 A 
ATOM      9  C   UNL     1      -3.066  11.943  19.252  0.00  0.00    +0.000 A 
ATOM     10  C   UNL     1      -3.536  11.273  18.056  0.00  0.00    +0.000 A 
ATOM     11  C   UNL     1      -4.211  14.408  21.994  0.00  0.00    +0.000 C 
ATOM     12  O   UNL     1      -5.388  14.576  21.693  0.00  0.00    +0.000 OA
ATOM     13  C   UNL     1      -3.606  15.175  23.105  0.00  0.00    +0.000 A 
ATOM     14  C   UNL     1      -4.290  16.280  23.645  0.00  0.00    +0.000 A 
ATOM     15  C   UNL     1      -3.694  17.047  24.638  0.00  0.00    +0.000 A 
ATOM     16  C   UNL     1      -2.415  16.731  25.100  0.00  0.00    +0.000 A 
ATOM     17  C   UNL     1      -1.748  15.618  24.572  0.00  0.00    +0.000 A 
ATOM     18  C   UNL     1      -2.347  14.824  23.590  0.00  0.00    +0.000 A 
ATOM     19  C   UNL     1      -1.701  13.610  23.039  0.00  0.00    +0.000 C 
ATOM     20  O   UNL     1      -0.818  13.001  23.634  0.00  0.00    +0.000 OA
ENDROOT
BRANCH   1  22
ATOM     21  C   UNL     1      -2.957  10.395  14.706  0.00  0.00    +0.000 C 
ATOM     22  C   UNL     1      -3.144   9.681  16.049  0.00  0.00    +0.000 C 
ENDBRANCH   1  22
BRANCH   3  23
ATOM     23  N   UNL     1       0.415  10.517  19.338  0.00  0.00    +0.000 N 
ATOM     24  H   UNL     1       0.491   9.728  19.986  0.00  0.00    +0.000 HD
BRANCH  23  25
ATOM     25  C   UNL     1       1.600  10.775  18.515  0.00  0.00    +0.000 C 
BRANCH  25  26
ATOM     26  C   UNL     1       1.923  12.276  18.517  0.00  0.00    +0.000 C 
BRANCH  26  27
ATOM     27  O   UNL     1       2.655  12.612  17.336  0.00  0.00    +0.000 OA
ATOM     28  H   UNL     1       3.456  12.052  17.379  0.00  0.00    +0.000 HD
ENDBRANCH  26  27
ENDBRANCH  25  26
ENDBRANCH  23  25
ENDBRANCH   3  23
BRANCH   5  29
ATOM     29  O   UNL     1      -0.133  11.783  21.526  0.00  0.00    +0.000 OA
ATOM     30  H   UNL     1       0.591  12.197  20.999  0.00  0.00    +0.000 HD
ENDBRANCH   5  29
BRANCH   8  31
ATOM     31  O   UNL     1      -4.973  13.409  19.438  0.00  0.00    +0.000 OA
ATOM     32  H   UNL     1      -5.531  12.659  19.129  0.00  0.00    +0.000 HD
ENDBRANCH   8  31
BRANCH  10  33
ATOM     33  C   UNL     1      -4.998  11.314  17.708  0.00  0.00    +0.000 C 
ATOM     34  O   UNL     1      -5.483  12.139  16.950  0.00  0.00    +0.000 OA
BRANCH  33  35
ATOM     35  O   UNL     1      -5.689  10.399  18.434  0.00  0.00    +0.000 OA
ATOM     36  C   UNL     1      -6.961  10.821  18.947  0.00  0.00    +0.000 C 
ENDBRANCH  33  35
ENDBRANCH  10  33
BRANCH  17  37
ATOM     37  O   UNL     1      -0.478  15.351  25.001  0.00  0.00    +0.000 OA
ATOM     38  H   UNL     1      -0.499  14.884  25.846  0.00  0.00    +0.000 HD
ENDBRANCH  17  37
TORSDOF 10
ENDMDL
MODEL 2
REMARK VINA RESULT:      -6.9      1.101      1.378
REMARK  Name = 
REMARK  12 active torsions:
REMARK  status: ('A' for Active; 'I' for Inactive)
REMARK    1  A    between atoms: C_1  and  C_2
REMARK    2  A    between atoms: C_2  and  C_3
REMARK    3  A    between atoms: C_5  and  N_6
REMARK    4  A    between atoms: N_6  and  C_7
REMARK    5  A    between atoms: C_7  and  C_8
REMARK    6  A    between atoms: C_8  and  O_9
REMARK    7  A    between atoms: C_11  and  O_12
REMARK    8  A    between atoms: C_15  and  O_16
REMARK    9  A    between atoms: C_18  and  C_19
REMARK   10  A    between atoms: C_19  and  O_21
REMARK   11  A    between atoms: O_21  and  C_22
REMARK   12  A    between atoms: C_29  and  O_30
REMARK                            x       y       z     vdW  Elec       q    Type
REMARK                         _______ _______ _______ _____ _____    ______ ____
ROOT
ATOM      1  C   UNL     1      -2.609  10.367  17.344  0.00  0.00    +0.000 A 
ATOM      2  C   UNL     1      -1.299  10.216  17.797  0.00  0.00    +0.000 A 
ATOM      3  C   UNL     1      -0.833  10.751  18.999  0.00  0.00    +0.000 A 
ATOM      4  C   UNL     1      -1.702  11.581  19.788  0.00  0.00    +0.000 A 
ATOM      5  C   UNL     1      -1.311  12.140  21.050  0.00  0.00    +0.000 A 
ATOM      6  C   UNL     1      -2.137  12.999  21.799  0.00  0.00    +0.000 A 
ATOM      7  C   UNL     1      -3.380  13.340  21.304  0.00  0.00    +0.000 A 
ATOM      8  C   UNL     1      -3.804  12.799  20.074  0.00  0.00    +0.000 A 
ATOM      9  C   UNL     1      -3.024  11.862  19.310  0.00  0.00    +0.000 A 
ATOM     10  C   UNL     1      -3.477  11.189  18.110  0.00  0.00    +0.000 A 
ATOM     11  C   UNL     1      -4.239  14.258  22.084  0.00  0.00    +0.000 C 
ATOM     12  O   UNL     1      -5.423  14.387  21.791  0.00  0.00    +0.000 OA
ATOM     13  C   UNL     1      -3.656  15.034  23.200  0.00  0.00    +0.000 A 
ATOM     14  C   UNL     1      -4.375  16.108  23.755  0.00  0.00    +0.000 A 
ATOM     15  C   UNL     1      -3.801  16.886  24.753  0.00  0.00    +0.000 A 
ATOM     16  C   UNL     1      -2.509  16.610  25.205  0.00  0.00    +0.000 A 
ATOM     17  C   UNL     1      -1.806  15.527  24.661  0.00  0.00    +0.000 A 
ATOM     18  C   UNL     1      -2.382  14.722  23.674  0.00  0.00    +0.000 A 
ATOM     19  C   UNL     1      -1.696  13.538  23.107  0.00  0.00    +0.000 C 
ATOM     20  O   UNL     1      -0.789  12.955  23.690  0.00  0.00    +0.000 OA
ENDROOT
BRANCH   1  22
ATOM     21  C   UNL     1      -3.042  10.420  14.770  0.00  0.00    +0.000 C 
ATOM     22  C   UNL     1      -3.041   9.632  16.085  0.00  0.00    +0.000 C 
ENDBRANCH   1  22
BRANCH   3  23
ATOM     23  N   UNL     1       0.506  10.560  19.362  0.00  0.00    +0.000 N 
ATOM     24  H   UNL     1       0.812  11.254  20.050  0.00  0.00    +0.000 HD
BRANCH  23  25
ATOM     25  C   UNL     1       1.216   9.279  19.397  0.00  0.00    +0.000 C 
BRANCH  25  26
ATOM     26  C   UNL     1       1.076   8.639  20.785  0.00  0.00    +0.000 C 
BRANCH  26  27
ATOM     27  O   UNL     1       1.833   7.427  20.836  0.00  0.00    +0.000 OA
ATOM     28  H   UNL     1       2.562   7.623  21.458  0.00  0.00    +0.000 HD
ENDBRANCH  26  27
ENDBRANCH  25  26
ENDBRANCH  23  25
ENDBRANCH   3  23
BRANCH   5  29
ATOM     29  O   UNL     1      -0.074  11.784  21.566  0.00  0.00    +0.000 OA
ATOM     30  H   UNL     1       0.086  12.296  22.394  0.00  0.00    +0.000 HD
ENDBRANCH   5  29
BRANCH   8  31
ATOM     31  O   UNL     1      -4.980  13.258  19.522  0.00  0.00    +0.000 OA
ATOM     32  H   UNL     1      -5.052  12.938  18.594  0.00  0.00    +0.000 HD
ENDBRANCH   8  31
BRANCH  10  33
ATOM     33  C   UNL     1      -4.941  11.181  17.771  0.00  0.00    +0.000 C 
ATOM     34  O   UNL     1      -5.449  11.958  16.976  0.00  0.00    +0.000 OA
BRANCH  33  35
ATOM     35  O   UNL     1      -5.608  10.289  18.545  0.00  0.00    +0.000 OA
ATOM     36  C   UNL     1      -6.964  10.622  18.878  0.00  0.00    +0.000 C 
ENDBRANCH  33  35
ENDBRANCH  10  33
BRANCH  17  37
ATOM     37  O   UNL     1      -0.525  15.302  25.081  0.00  0.00    +0.000 OA
ATOM     38  H   UNL     1      -0.070  16.139  25.241  0.00  0.00    +0.000 HD
ENDBRANCH  17  37
TORSDOF 10
ENDMDL
MODEL 3
REMARK VINA RESULT:      -6.8      0.821      1.044
REMARK  Name = 
REMARK  12 active torsions:
REMARK  status: ('A' for Active; 'I' for Inactive)
REMARK    1  A    between atoms: C_1  and  C_2
REMARK    2  A    between atoms: C_2  and  C_3
REMARK    3  A    between atoms: C_5  and  N_6
REMARK    4  A    between atoms: N_6  and  C_7
REMARK    5  A    between atoms: C_7  and  C_8
REMARK    6  A    between atoms: C_8  and  O_9
REMARK    7  A    between atoms: C_11  and  O_12
REMARK    8  A    between atoms: C_15  and  O_16
REMARK    9  A    between atoms: C_18  and  C_19
REMARK   10  A    between atoms: C_19  and  O_21
REMARK   11  A    between atoms: O_21  and  C_22
REMARK   12  A    between atoms: C_29  and  O_30
REMARK                            x       y       z     vdW  Elec       q    Type
REMARK                         _______ _______ _______ _____ _____    ______ ____
ROOT
ATOM      1  C   UNL     1      -2.895  10.534  17.375  0.00  0.00    +0.000 A 
ATOM      2  C   UNL     1      -1.557  10.386  17.736  0.00  0.00    +0.000 A 
ATOM      3  C   UNL     1      -1.011  10.915  18.907  0.00  0.00    +0.000 A 
ATOM      4  C   UNL     1      -1.828  11.736  19.759  0.00  0.00    +0.000 A 
ATOM      5  C   UNL     1      -1.353  12.290  20.995  0.00  0.00    +0.000 A 
ATOM      6  C   UNL     1      -2.130  13.140  21.804  0.00  0.00    +0.000 A 
ATOM      7  C   UNL     1      -3.405  13.479  21.397  0.00  0.00    +0.000 A 
ATOM      8  C   UNL     1      -3.910  12.944  20.195  0.00  0.00    +0.000 A 
ATOM      9  C   UNL     1      -3.181  12.015  19.374  0.00  0.00    +0.000 A 
ATOM     10  C   UNL     1      -3.712  11.347  18.203  0.00  0.00    +0.000 A 
ATOM     11  C   UNL     1      -4.213  14.388  22.240  0.00  0.00    +0.000 C 
ATOM     12  O   UNL     1      -5.415  14.514  22.030  0.00  0.00    +0.000 OA
ATOM     13  C   UNL     1      -3.557  15.160  23.318  0.00  0.00    +0.000 A 
ATOM     14  C   UNL     1      -4.241  16.227  23.928  0.00  0.00    +0.000 A 
ATOM     15  C   UNL     1      -3.603  17.002  24.890  0.00  0.00    +0.000 A 
ATOM     16  C   UNL     1      -2.282  16.729  25.250  0.00  0.00    +0.000 A 
ATOM     17  C   UNL     1      -1.614  15.652  24.653  0.00  0.00    +0.000 A 
ATOM     18  C   UNL     1      -2.253  14.851  23.703  0.00  0.00    +0.000 A 
ATOM     19  C   UNL     1      -1.603  13.673  23.082  0.00  0.00    +0.000 C 
ATOM     20  O   UNL     1      -0.656  13.091  23.599  0.00  0.00    +0.000 OA
ENDROOT
BRANCH   1  22
ATOM     21  C   UNL     1      -3.039  10.382  14.772  0.00  0.00    +0.000 C 
ATOM     22  C   UNL     1      -3.409   9.805  16.143  0.00  0.00    +0.000 C 
ENDBRANCH   1  22
BRANCH   3  23
ATOM     23  N   UNL     1       0.350  10.728  19.176  0.00  0.00    +0.000 N 
ATOM     24  H   UNL     1       0.710  11.447  19.810  0.00  0.00    +0.000 HD
BRANCH  23  25
ATOM     25  C   UNL     1       1.053   9.444  19.211  0.00  0.00    +0.000 C 
BRANCH  25  26
ATOM     26  C   UNL     1       1.850   9.245  17.913  0.00  0.00    +0.000 C 
BRANCH  26  27
ATOM     27  O   UNL     1       2.214  10.516  17.371  0.00  0.00    +0.000 OA
ATOM     28  H   UNL     1       2.515  10.315  16.463  0.00  0.00    +0.000 HD
ENDBRANCH  26  27
ENDBRANCH  25  26
ENDBRANCH  23  25
ENDBRANCH   3  23
BRANCH   5  29
ATOM     29  O   UNL     1      -0.083  11.935  21.423  0.00  0.00    +0.000 OA
ATOM     30  H   UNL     1       0.463  11.696  20.637  0.00  0.00    +0.000 HD
ENDBRANCH   5  29
BRANCH   8  31
ATOM     31  O   UNL     1      -5.123  13.401  19.729  0.00  0.00    +0.000 OA
ATOM     32  H   UNL     1      -5.778  12.666  19.749  0.00  0.00    +0.000 HD
ENDBRANCH   8  31
BRANCH  10  33
ATOM     33  C   UNL     1      -5.196  11.335  17.965  0.00  0.00    +0.000 C 
ATOM     34  O   UNL     1      -5.954  10.543  18.503  0.00  0.00    +0.000 OA
BRANCH  33  35
ATOM     35  O   UNL     1      -5.534  12.229  17.003  0.00  0.00    +0.000 OA
ATOM     36  C   UNL     1      -6.860  12.774  17.075  0.00  0.00    +0.000 C 
ENDBRANCH  33  35
ENDBRANCH  10  33
BRANCH  17  37
ATOM     37  O   UNL     1      -0.306  15.429  24.983  0.00  0.00    +0.000 OA
ATOM     38  H   UNL     1       0.238  15.378  24.187  0.00  0.00    +0.000 HD
ENDBRANCH  17  37
TORSDOF 10
ENDMDL
MODEL 4
REMARK VINA RESULT:      -6.5      2.588      5.357
REMARK  Name = 
REMARK  12 active torsions:
REMARK  status: ('A' for Active; 'I' for Inactive)
REMARK    1  A    between atoms: C_1  and  C_2
REMARK    2  A    between atoms: C_2  and  C_3
REMARK    3  A    between atoms: C_5  and  N_6
REMARK    4  A    between atoms: N_6  and  C_7
REMARK    5  A    between atoms: C_7  and  C_8
REMARK    6  A    between atoms: C_8  and  O_9
REMARK    7  A    between atoms: C_11  and  O_12
REMARK    8  A    between atoms: C_15  and  O_16
REMARK    9  A    between atoms: C_18  and  C_19
REMARK   10  A    between atoms: C_19  and  O_21
REMARK   11  A    between atoms: O_21  and  C_22
REMARK   12  A    between atoms: C_29  and  O_30
REMARK                            x       y       z     vdW  Elec       q    Type
REMARK                         _______ _______ _______ _____ _____    ______ ____
ROOT
ATOM      1  C   UNL     1      -5.732  11.859  19.536  0.00  0.00    +0.000 A 
ATOM      2  C   UNL     1      -5.241  11.193  18.413  0.00  0.00    +0.000 A 
ATOM      3  C   UNL     1      -3.887  11.149  18.075  0.00  0.00    +0.000 A 
ATOM      4  C   UNL     1      -2.938  11.895  18.857  0.00  0.00    +0.000 A 
ATOM      5  C   UNL     1      -1.527  11.875  18.596  0.00  0.00    +0.000 A 
ATOM      6  C   UNL     1      -0.601  12.647  19.321  0.00  0.00    +0.000 A 
ATOM      7  C   UNL     1      -1.057  13.478  20.326  0.00  0.00    +0.000 A 
ATOM      8  C   UNL     1      -2.434  13.513  20.620  0.00  0.00    +0.000 A 
ATOM      9  C   UNL     1      -3.407  12.689  19.954  0.00  0.00    +0.000 A 
ATOM     10  C   UNL     1      -4.808  12.604  20.313  0.00  0.00    +0.000 A 
ATOM     11  C   UNL     1      -0.083  14.302  21.076  0.00  0.00    +0.000 C 
ATOM     12  O   UNL     1      -0.423  14.859  22.115  0.00  0.00    +0.000 OA
ATOM     13  C   UNL     1       1.290  14.470  20.552  0.00  0.00    +0.000 A 
ATOM     14  C   UNL     1       2.126  15.466  21.087  0.00  0.00    +0.000 A 
ATOM     15  C   UNL     1       3.390  15.676  20.549  0.00  0.00    +0.000 A 
ATOM     16  C   UNL     1       3.833  14.903  19.473  0.00  0.00    +0.000 A 
ATOM     17  C   UNL     1       3.003  13.899  18.958  0.00  0.00    +0.000 A 
ATOM     18  C   UNL     1       1.740  13.663  19.507  0.00  0.00    +0.000 A 
ATOM     19  C   UNL     1       0.849  12.580  19.028  0.00  0.00    +0.000 C 
ATOM     20  O   UNL     1       1.265  11.602  18.417  0.00  0.00    +0.000 OA
ENDROOT
BRANCH   1  22
ATOM     21  C   UNL     1      -7.658  10.470  20.623  0.00  0.00    +0.000 C 
ATOM     22  C   UNL     1      -7.209  11.732  19.877  0.00  0.00    +0.000 C 
ENDBRANCH   1  22
BRANCH   3  23
ATOM     23  N   UNL     1      -3.491  10.469  16.917  0.00  0.00    +0.000 N 
ATOM     24  H   UNL     1      -3.393   9.463  17.087  0.00  0.00    +0.000 HD
BRANCH  23  25
ATOM     25  C   UNL     1      -3.813  10.850  15.540  0.00  0.00    +0.000 C 
BRANCH  25  26
ATOM     26  C   UNL     1      -2.976  10.020  14.556  0.00  0.00    +0.000 C 
BRANCH  26  27
ATOM     27  O   UNL     1      -3.444  10.237  13.223  0.00  0.00    +0.000 OA
ATOM     28  H   UNL     1      -4.301  10.694  13.339  0.00  0.00    +0.000 HD
ENDBRANCH  26  27
ENDBRANCH  25  26
ENDBRANCH  23  25
ENDBRANCH   3  23
BRANCH   5  29
ATOM     29  O   UNL     1      -1.059  11.026  17.605  0.00  0.00    +0.000 OA
ATOM     30  H   UNL     1      -0.398  10.409  18.000  0.00  0.00    +0.000 HD
ENDBRANCH   5  29
BRANCH   8  31
ATOM     31  O   UNL     1      -2.892  14.448  21.523  0.00  0.00    +0.000 OA
ATOM     32  H   UNL     1      -3.500  14.013  22.163  0.00  0.00    +0.000 HD
ENDBRANCH   8  31
BRANCH  10  33
ATOM     33  C   UNL     1      -5.268  13.135  21.642  0.00  0.00    +0.000 C 
ATOM     34  O   UNL     1      -5.783  14.234  21.783  0.00  0.00    +0.000 OA
BRANCH  33  35
ATOM     35  O   UNL     1      -4.924  12.286  22.643  0.00  0.00    +0.000 OA
ATOM     36  C   UNL     1      -4.905  12.835  23.968  0.00  0.00    +0.000 C 
ENDBRANCH  33  35
ENDBRANCH  10  33
BRANCH  17  37
ATOM     37  O   UNL     1       3.434  13.186  17.874  0.00  0.00    +0.000 OA
ATOM     38  H   UNL     1       4.378  12.994  17.951  0.00  0.00    +0.000 HD
ENDBRANCH  17  37
TORSDOF 10
ENDMDL
MODEL 5
REMARK VINA RESULT:      -6.4      3.687      7.899
REMARK  Name = 
REMARK  12 active torsions:
REMARK  status: ('A' for Active; 'I' for Inactive)
REMARK    1  A    between atoms: C_1  and  C_2
REMARK    2  A    between atoms: C_2  and  C_3
REMARK    3  A    between atoms: C_5  and  N_6
REMARK    4  A    between atoms: N_6  and  C_7
REMARK    5  A    between atoms: C_7  and  C_8
REMARK    6  A    between atoms: C_8  and  O_9
REMARK    7  A    between atoms: C_11  and  O_12
REMARK    8  A    between atoms: C_15  and  O_16
REMARK    9  A    between atoms: C_18  and  C_19
REMARK   10  A    between atoms: C_19  and  O_21
REMARK   11  A    between atoms: O_21  and  C_22
REMARK   12  A    between atoms: C_29  and  O_30
REMARK                            x       y       z     vdW  Elec       q    Type
REMARK                         _______ _______ _______ _____ _____    ______ ____
ROOT
ATOM      1  C   UNL     1       0.503  14.840  20.769  0.00  0.00    +0.000 A 
ATOM      2  C   UNL     1       1.300  14.972  19.632  0.00  0.00    +0.000 A 
ATOM      3  C   UNL     1       1.766  13.887  18.887  0.00  0.00    +0.000 A 
ATOM      4  C   UNL     1       1.500  12.550  19.344  0.00  0.00    +0.000 A 
ATOM      5  C   UNL     1       1.914  11.382  18.620  0.00  0.00    +0.000 A 
ATOM      6  C   UNL     1       1.706  10.073  19.090  0.00  0.00    +0.000 A 
ATOM      7  C   UNL     1       1.089   9.885  20.311  0.00  0.00    +0.000 A 
ATOM      8  C   UNL     1       0.657  11.007  21.045  0.00  0.00    +0.000 A 
ATOM      9  C   UNL     1       0.782  12.359  20.571  0.00  0.00    +0.000 A 
ATOM     10  C   UNL     1       0.238  13.526  21.235  0.00  0.00    +0.000 A 
ATOM     11  C   UNL     1       0.888   8.507  20.812  0.00  0.00    +0.000 C 
ATOM     12  O   UNL     1       0.142   8.304  21.764  0.00  0.00    +0.000 OA
ATOM     13  C   UNL     1       1.612   7.385  20.176  0.00  0.00    +0.000 A 
ATOM     14  C   UNL     1       1.657   6.132  20.814  0.00  0.00    +0.000 A 
ATOM     15  C   UNL     1       2.396   5.095  20.256  0.00  0.00    +0.000 A 
ATOM     16  C   UNL     1       3.100   5.294  19.066  0.00  0.00    +0.000 A 
ATOM     17  C   UNL     1       3.034   6.539  18.427  0.00  0.00    +0.000 A 
ATOM     18  C   UNL     1       2.274   7.581  18.965  0.00  0.00    +0.000 A 
ATOM     19  C   UNL     1       2.135   8.896  18.298  0.00  0.00    +0.000 C 
ATOM     20  O   UNL     1       2.331   9.055  17.098  0.00  0.00    +0.000 OA
ENDROOT
BRANCH   1  22
ATOM     21  C   UNL     1       0.783  16.745  22.533  0.00  0.00    +0.000 C 
ATOM     22  C   UNL     1      -0.053  16.094  21.426  0.00  0.00    +0.000 C 
ENDBRANCH   1  22
BRANCH   3  23
ATOM     23  N   UNL     1       2.576  14.119  17.769  0.00  0.00    +0.000 N 
ATOM     24  H   UNL     1       2.182  13.691  16.925  0.00  0.00    +0.000 HD
BRANCH  23  25
ATOM     25  C   UNL     1       3.425  15.291  17.547  0.00  0.00    +0.000 C 
BRANCH  25  26
ATOM     26  C   UNL     1       4.895  14.934  17.814  0.00  0.00    +0.000 C 
BRANCH  26  27
ATOM     27  O   UNL     1       5.126  14.865  19.223  0.00  0.00    +0.000 OA
ATOM     28  H   UNL     1       5.839  14.202  19.318  0.00  0.00    +0.000 HD
ENDBRANCH  26  27
ENDBRANCH  25  26
ENDBRANCH  23  25
ENDBRANCH   3  23
BRANCH   5  29
ATOM     29  O   UNL     1       2.513  11.561  17.382  0.00  0.00    +0.000 OA
ATOM     30  H   UNL     1       3.488  11.638  17.507  0.00  0.00    +0.000 HD
ENDBRANCH   5  29
BRANCH   8  31
ATOM     31  O   UNL     1       0.175  10.815  22.321  0.00  0.00    +0.000 OA
ATOM     32  H   UNL     1       0.344  11.622  22.859  0.00  0.00    +0.000 HD
ENDBRANCH   8  31
BRANCH  10  33
ATOM     33  C   UNL     1      -0.796  13.353  22.311  0.00  0.00    +0.000 C 
ATOM     34  O   UNL     1      -0.536  13.399  23.504  0.00  0.00    +0.000 OA
BRANCH  33  35
ATOM     35  O   UNL     1      -1.999  13.029  21.773  0.00  0.00    +0.000 OA
ATOM     36  C   UNL     1      -3.048  12.712  22.700  0.00  0.00    +0.000 C 
ENDBRANCH  33  35
ENDBRANCH  10  33
BRANCH  17  37
ATOM     37  O   UNL     1       3.768   6.730  17.289  0.00  0.00    +0.000 OA
ATOM     38  H   UNL     1       4.698   6.522  17.449  0.00  0.00    +0.000 HD
ENDBRANCH  17  37
TORSDOF 10
ENDMDL
MODEL 6
REMARK VINA RESULT:      -6.4      1.676      2.086
REMARK  Name = 
REMARK  12 active torsions:
REMARK  status: ('A' for Active; 'I' for Inactive)
REMARK    1  A    between atoms: C_1  and  C_2
REMARK    2  A    between atoms: C_2  and  C_3
REMARK    3  A    between atoms: C_5  and  N_6
REMARK    4  A    between atoms: N_6  and  C_7
REMARK    5  A    between atoms: C_7  and  C_8
REMARK    6  A    between atoms: C_8  and  O_9
REMARK    7  A    between atoms: C_11  and  O_12
REMARK    8  A    between atoms: C_15  and  O_16
REMARK    9  A    between atoms: C_18  and  C_19
REMARK   10  A    between atoms: C_19  and  O_21
REMARK   11  A    between atoms: O_21  and  C_22
REMARK   12  A    between atoms: C_29  and  O_30
REMARK                            x       y       z     vdW  Elec       q    Type
REMARK                         _______ _______ _______ _____ _____    ______ ____
ROOT
ATOM      1  C   UNL     1      -2.435  10.863  18.176  0.00  0.00    +0.000 A 
ATOM      2  C   UNL     1      -1.241  10.863  18.896  0.00  0.00    +0.000 A 
ATOM      3  C   UNL     1      -1.072  11.535  20.107  0.00  0.00    +0.000 A 
ATOM      4  C   UNL     1      -2.139  12.352  20.618  0.00  0.00    +0.000 A 
ATOM      5  C   UNL     1      -2.057  13.048  21.870  0.00  0.00    +0.000 A 
ATOM      6  C   UNL     1      -3.075  13.894  22.347  0.00  0.00    +0.000 A 
ATOM      7  C   UNL     1      -4.208  14.085  21.579  0.00  0.00    +0.000 A 
ATOM      8  C   UNL     1      -4.329  13.408  20.350  0.00  0.00    +0.000 A 
ATOM      9  C   UNL     1      -3.348  12.479  19.857  0.00  0.00    +0.000 A 
ATOM     10  C   UNL     1      -3.495  11.670  18.664  0.00  0.00    +0.000 A 
ATOM     11  C   UNL     1      -5.269  14.989  22.074  0.00  0.00    +0.000 C 
ATOM     12  O   UNL     1      -6.372  14.992  21.537  0.00  0.00    +0.000 OA
ATOM     13  C   UNL     1      -4.983  15.905  23.201  0.00  0.00    +0.000 A 
ATOM     14  C   UNL     1      -5.871  16.957  23.489  0.00  0.00    +0.000 A 
ATOM     15  C   UNL     1      -5.570  17.863  24.499  0.00  0.00    +0.000 A 
ATOM     16  C   UNL     1      -4.385  17.737  25.227  0.00  0.00    +0.000 A 
ATOM     17  C   UNL     1      -3.515  16.675  24.948  0.00  0.00    +0.000 A 
ATOM     18  C   UNL     1      -3.819  15.743  23.951  0.00  0.00    +0.000 A 
ATOM     19  C   UNL     1      -2.954  14.578  23.656  0.00  0.00    +0.000 C 
ATOM     20  O   UNL     1      -2.152  14.125  24.466  0.00  0.00    +0.000 OA
ENDROOT
BRANCH   1  22
ATOM     21  C   UNL     1      -2.558  10.693  15.573  0.00  0.00    +0.000 C 
ATOM     22  C   UNL     1      -2.546   9.990  16.935  0.00  0.00    +0.000 C 
ENDBRANCH   1  22
BRANCH   3  23
ATOM     23  N   UNL     1       0.172  11.490  20.750  0.00  0.00    +0.000 N 
ATOM     24  H   UNL     1       0.347  12.342  21.290  0.00  0.00    +0.000 HD
BRANCH  23  25
ATOM     25  C   UNL     1       0.850  10.285  21.230  0.00  0.00    +0.000 C 
BRANCH  25  26
ATOM     26  C   UNL     1      -0.074   9.502  22.174  0.00  0.00    +0.000 C 
BRANCH  26  27
ATOM     27  O   UNL     1      -0.023  10.074  23.483  0.00  0.00    +0.000 OA
ATOM     28  H   UNL     1      -0.591  10.868  23.422  0.00  0.00    +0.000 HD
ENDBRANCH  26  27
ENDBRANCH  25  26
ENDBRANCH  23  25
ENDBRANCH   3  23
BRANCH   5  29
ATOM     29  O   UNL     1      -0.935  12.843  22.658  0.00  0.00    +0.000 OA
ATOM     30  H   UNL     1      -0.266  12.340  22.135  0.00  0.00    +0.000 HD
ENDBRANCH   5  29
BRANCH   8  31
ATOM     31  O   UNL     1      -5.392  13.717  19.530  0.00  0.00    +0.000 OA
ATOM     32  H   UNL     1      -5.086  14.314  18.810  0.00  0.00    +0.000 HD
ENDBRANCH   8  31
BRANCH  10  33
ATOM     33  C   UNL     1      -4.853  11.510  18.039  0.00  0.00    +0.000 C 
ATOM     34  O   UNL     1      -5.243  12.188  17.102  0.00  0.00    +0.000 OA
BRANCH  33  35
ATOM     35  O   UNL     1      -5.595  10.609  18.731  0.00  0.00    +0.000 OA
ATOM     36  C   UNL     1      -7.020  10.746  18.631  0.00  0.00    +0.000 C 
ENDBRANCH  33  35
ENDBRANCH  10  33
BRANCH  17  37
ATOM     37  O   UNL     1      -2.337  16.595  25.638  0.00  0.00    +0.000 OA
ATOM     38  H   UNL     1      -1.643  17.083  25.176  0.00  0.00    +0.000 HD
ENDBRANCH  17  37
TORSDOF 10
ENDMDL
MODEL 7
REMARK VINA RESULT:      -6.4      3.676      7.720
REMARK  Name = 
REMARK  12 active torsions:
REMARK  status: ('A' for Active; 'I' for Inactive)
REMARK    1  A    between atoms: C_1  and  C_2
REMARK    2  A    between atoms: C_2  and  C_3
REMARK    3  A    between atoms: C_5  and  N_6
REMARK    4  A    between atoms: N_6  and  C_7
REMARK    5  A    between atoms: C_7  and  C_8
REMARK    6  A    between atoms: C_8  and  O_9
REMARK    7  A    between atoms: C_11  and  O_12
REMARK    8  A    between atoms: C_15  and  O_16
REMARK    9  A    between atoms: C_18  and  C_19
REMARK   10  A    between atoms: C_19  and  O_21
REMARK   11  A    between atoms: O_21  and  C_22
REMARK   12  A    between atoms: C_29  and  O_30
REMARK                            x       y       z     vdW  Elec       q    Type
REMARK                         _______ _______ _______ _____ _____    ______ ____
ROOT
ATOM      1  C   UNL     1       0.118  15.216  20.932  0.00  0.00    +0.000 A 
ATOM      2  C   UNL     1       0.948  15.376  19.823  0.00  0.00    +0.000 A 
ATOM      3  C   UNL     1       1.457  14.309  19.080  0.00  0.00    +0.000 A 
ATOM      4  C   UNL     1       1.201  12.962  19.512  0.00  0.00    +0.000 A 
ATOM      5  C   UNL     1       1.660  11.811  18.787  0.00  0.00    +0.000 A 
ATOM      6  C   UNL     1       1.462  10.492  19.235  0.00  0.00    +0.000 A 
ATOM      7  C   UNL     1       0.810  10.278  20.434  0.00  0.00    +0.000 A 
ATOM      8  C   UNL     1       0.335  11.383  21.167  0.00  0.00    +0.000 A 
ATOM      9  C   UNL     1       0.450  12.743  20.713  0.00  0.00    +0.000 A 
ATOM     10  C   UNL     1      -0.137  13.891  21.374  0.00  0.00    +0.000 A 
ATOM     11  C   UNL     1       0.620   8.891  20.912  0.00  0.00    +0.000 C 
ATOM     12  O   UNL     1      -0.152   8.661  21.838  0.00  0.00    +0.000 OA
ATOM     13  C   UNL     1       1.384   7.790  20.285  0.00  0.00    +0.000 A 
ATOM     14  C   UNL     1       1.433   6.530  20.909  0.00  0.00    +0.000 A 
ATOM     15  C   UNL     1       2.208   5.514  20.362  0.00  0.00    +0.000 A 
ATOM     16  C   UNL     1       2.945   5.741  19.198  0.00  0.00    +0.000 A 
ATOM     17  C   UNL     1       2.876   6.992  18.571  0.00  0.00    +0.000 A 
ATOM     18  C   UNL     1       2.080   8.013  19.098  0.00  0.00    +0.000 A 
ATOM     19  C   UNL     1       1.937   9.334  18.443  0.00  0.00    +0.000 C 
ATOM     20  O   UNL     1       2.167   9.511  17.251  0.00  0.00    +0.000 OA
ENDROOT
BRANCH   1  22
ATOM     21  C   UNL     1       0.049  17.818  21.140  0.00  0.00    +0.000 C 
ATOM     22  C   UNL     1      -0.481  16.451  21.586  0.00  0.00    +0.000 C 
ENDBRANCH   1  22
BRANCH   3  23
ATOM     23  N   UNL     1       2.296  14.570  17.990  0.00  0.00    +0.000 N 
ATOM     24  H   UNL     1       1.893  14.225  17.114  0.00  0.00    +0.000 HD
BRANCH  23  25
ATOM     25  C   UNL     1       3.215  15.703  17.862  0.00  0.00    +0.000 C 
BRANCH  25  26
ATOM     26  C   UNL     1       4.667  15.202  17.838  0.00  0.00    +0.000 C 
BRANCH  26  27
ATOM     27  O   UNL     1       4.684  13.777  17.727  0.00  0.00    +0.000 OA
ATOM     28  H   UNL     1       3.803  13.553  17.366  0.00  0.00    +0.000 HD
ENDBRANCH  26  27
ENDBRANCH  25  26
ENDBRANCH  23  25
ENDBRANCH   3  23
BRANCH   5  29
ATOM     29  O   UNL     1       2.293  12.017  17.571  0.00  0.00    +0.000 OA
ATOM     30  H   UNL     1       3.032  12.657  17.701  0.00  0.00    +0.000 HD
ENDBRANCH   5  29
BRANCH   8  31
ATOM     31  O   UNL     1      -0.183  11.166  22.425  0.00  0.00    +0.000 OA
ATOM     32  H   UNL     1       0.463  10.649  22.959  0.00  0.00    +0.000 HD
ENDBRANCH   8  31
BRANCH  10  33
ATOM     33  C   UNL     1      -1.201  13.685  22.415  0.00  0.00    +0.000 C 
ATOM     34  O   UNL     1      -2.374  13.483  22.143  0.00  0.00    +0.000 OA
BRANCH  33  35
ATOM     35  O   UNL     1      -0.695  13.872  23.661  0.00  0.00    +0.000 OA
ATOM     36  C   UNL     1      -1.472  14.689  24.548  0.00  0.00    +0.000 C 
ENDBRANCH  33  35
ENDBRANCH  10  33
BRANCH  17  37
ATOM     37  O   UNL     1       3.641   7.210  17.460  0.00  0.00    +0.000 OA
ATOM     38  H   UNL     1       4.579   7.135  17.676  0.00  0.00    +0.000 HD
ENDBRANCH  17  37
TORSDOF 10
ENDMDL
MODEL 8
REMARK VINA RESULT:      -6.3      1.869      5.030
REMARK  Name = 
REMARK  12 active torsions:
REMARK  status: ('A' for Active; 'I' for Inactive)
REMARK    1  A    between atoms: C_1  and  C_2
REMARK    2  A    between atoms: C_2  and  C_3
REMARK    3  A    between atoms: C_5  and  N_6
REMARK    4  A    between atoms: N_6  and  C_7
REMARK    5  A    between atoms: C_7  and  C_8
REMARK    6  A    between atoms: C_8  and  O_9
REMARK    7  A    between atoms: C_11  and  O_12
REMARK    8  A    between atoms: C_15  and  O_16
REMARK    9  A    between atoms: C_18  and  C_19
REMARK   10  A    between atoms: C_19  and  O_21
REMARK   11  A    between atoms: O_21  and  C_22
REMARK   12  A    between atoms: C_29  and  O_30
REMARK                            x       y       z     vdW  Elec       q    Type
REMARK                         _______ _______ _______ _____ _____    ______ ____
ROOT
ATOM      1  C   UNL     1       0.394  10.440  18.563  0.00  0.00    +0.000 A 
ATOM      2  C   UNL     1      -0.689  10.016  17.793  0.00  0.00    +0.000 A 
ATOM      3  C   UNL     1      -1.979  10.533  17.926  0.00  0.00    +0.000 A 
ATOM      4  C   UNL     1      -2.253  11.491  18.964  0.00  0.00    +0.000 A 
ATOM      5  C   UNL     1      -3.542  12.094  19.146  0.00  0.00    +0.000 A 
ATOM      6  C   UNL     1      -3.831  12.988  20.194  0.00  0.00    +0.000 A 
ATOM      7  C   UNL     1      -2.842  13.298  21.107  0.00  0.00    +0.000 A 
ATOM      8  C   UNL     1      -1.560  12.734  20.953  0.00  0.00    +0.000 A 
ATOM      9  C   UNL     1      -1.200  11.875  19.858  0.00  0.00    +0.000 A 
ATOM     10  C   UNL     1       0.137  11.380  19.595  0.00  0.00    +0.000 A 
ATOM     11  C   UNL     1      -3.153  14.223  22.218  0.00  0.00    +0.000 C 
ATOM     12  O   UNL     1      -2.246  14.697  22.895  0.00  0.00    +0.000 OA
ATOM     13  C   UNL     1      -4.563  14.552  22.524  0.00  0.00    +0.000 A 
ATOM     14  C   UNL     1      -4.886  15.187  23.736  0.00  0.00    +0.000 A 
ATOM     15  C   UNL     1      -6.215  15.432  24.060  0.00  0.00    +0.000 A 
ATOM     16  C   UNL     1      -7.234  15.045  23.187  0.00  0.00    +0.000 A 
ATOM     17  C   UNL     1      -6.904  14.430  21.972  0.00  0.00    +0.000 A 
ATOM     18  C   UNL     1      -5.570  14.202  21.625  0.00  0.00    +0.000 A 
ATOM     19  C   UNL     1      -5.173  13.601  20.330  0.00  0.00    +0.000 C 
ATOM     20  O   UNL     1      -5.899  13.615  19.343  0.00  0.00    +0.000 OA
ENDROOT
BRANCH   1  22
ATOM     21  C   UNL     1       1.886   8.431  17.819  0.00  0.00    +0.000 C 
ATOM     22  C   UNL     1       1.779   9.900  18.244  0.00  0.00    +0.000 C 
ENDBRANCH   1  22
BRANCH   3  23
ATOM     23  N   UNL     1      -3.007  10.032  17.119  0.00  0.00    +0.000 N 
ATOM     24  H   UNL     1      -3.891  10.520  17.288  0.00  0.00    +0.000 HD
BRANCH  23  25
ATOM     25  C   UNL     1      -2.849   9.454  15.782  0.00  0.00    +0.000 C 
BRANCH  25  26
ATOM     26  C   UNL     1      -3.451  10.395  14.728  0.00  0.00    +0.000 C 
BRANCH  26  27
ATOM     27  O   UNL     1      -3.427  11.740  15.213  0.00  0.00    +0.000 OA
ATOM     28  H   UNL     1      -3.103  12.265  14.454  0.00  0.00    +0.000 HD
ENDBRANCH  26  27
ENDBRANCH  25  26
ENDBRANCH  23  25
ENDBRANCH   3  23
BRANCH   5  29
ATOM     29  O   UNL     1      -4.533  11.807  18.219  0.00  0.00    +0.000 OA
ATOM     30  H   UNL     1      -5.307  12.396  18.387  0.00  0.00    +0.000 HD
ENDBRANCH   5  29
BRANCH   8  31
ATOM     31  O   UNL     1      -0.627  12.936  21.947  0.00  0.00    +0.000 OA
ATOM     32  H   UNL     1      -1.076  12.921  22.823  0.00  0.00    +0.000 HD
ENDBRANCH   8  31
BRANCH  10  33
ATOM     33  C   UNL     1       1.312  12.018  20.280  0.00  0.00    +0.000 C 
ATOM     34  O   UNL     1       1.836  11.556  21.282  0.00  0.00    +0.000 OA
BRANCH  33  35
ATOM     35  O   UNL     1       1.615  13.208  19.704  0.00  0.00    +0.000 OA
ATOM     36  C   UNL     1       2.436  14.099  20.473  0.00  0.00    +0.000 C 
ENDBRANCH  33  35
ENDBRANCH  10  33
BRANCH  17  37
ATOM     37  O   UNL     1      -7.917  14.015  21.153  0.00  0.00    +0.000 OA
ATOM     38  H   UNL     1      -8.437  14.770  20.851  0.00  0.00    +0.000 HD
ENDBRANCH  17  37
TORSDOF 10
ENDMDL
MODEL 9
REMARK VINA RESULT:      -6.2      3.463      7.815
REMARK  Name = 
REMARK  12 active torsions:
REMARK  status: ('A' for Active; 'I' for Inactive)
REMARK    1  A    between atoms: C_1  and  C_2
REMARK    2  A    between atoms: C_2  and  C_3
REMARK    3  A    between atoms: C_5  and  N_6
REMARK    4  A    between atoms: N_6  and  C_7
REMARK    5  A    between atoms: C_7  and  C_8
REMARK    6  A    between atoms: C_8  and  O_9
REMARK    7  A    between atoms: C_11  and  O_12
REMARK    8  A    between atoms: C_15  and  O_16
REMARK    9  A    between atoms: C_18  and  C_19
REMARK   10  A    between atoms: C_19  and  O_21
REMARK   11  A    between atoms: O_21  and  C_22
REMARK   12  A    between atoms: C_29  and  O_30
REMARK                            x       y       z     vdW  Elec       q    Type
REMARK                         _______ _______ _______ _____ _____    ______ ____
ROOT
ATOM      1  C   UNL     1      -0.096  14.623  20.454  0.00  0.00    +0.000 A 
ATOM      2  C   UNL     1       0.802  14.789  19.400  0.00  0.00    +0.000 A 
ATOM      3  C   UNL     1       1.414  13.725  18.735  0.00  0.00    +0.000 A 
ATOM      4  C   UNL     1       1.194  12.381  19.198  0.00  0.00    +0.000 A 
ATOM      5  C   UNL     1       1.758  11.232  18.549  0.00  0.00    +0.000 A 
ATOM      6  C   UNL     1       1.593   9.920  19.031  0.00  0.00    +0.000 A 
ATOM      7  C   UNL     1       0.868   9.713  20.188  0.00  0.00    +0.000 A 
ATOM      8  C   UNL     1       0.289  10.817  20.845  0.00  0.00    +0.000 A 
ATOM      9  C   UNL     1       0.370  12.165  20.350  0.00  0.00    +0.000 A 
ATOM     10  C   UNL     1      -0.318  13.303  20.926  0.00  0.00    +0.000 A 
ATOM     11  C   UNL     1       0.712   8.335  20.703  0.00  0.00    +0.000 C 
ATOM     12  O   UNL     1      -0.113   8.098  21.580  0.00  0.00    +0.000 OA
ATOM     13  C   UNL     1       1.571   7.254  20.172  0.00  0.00    +0.000 A 
ATOM     14  C   UNL     1       1.636   6.020  20.843  0.00  0.00    +0.000 A 
ATOM     15  C   UNL     1       2.497   5.027  20.390  0.00  0.00    +0.000 A 
ATOM     16  C   UNL     1       3.304   5.252  19.272  0.00  0.00    +0.000 A 
ATOM     17  C   UNL     1       3.219   6.477  18.597  0.00  0.00    +0.000 A 
ATOM     18  C   UNL     1       2.339   7.473  19.028  0.00  0.00    +0.000 A 
ATOM     19  C   UNL     1       2.180   8.762  18.317  0.00  0.00    +0.000 C 
ATOM     20  O   UNL     1       2.486   8.911  17.139  0.00  0.00    +0.000 OA
ENDROOT
BRANCH   1  22
ATOM     21  C   UNL     1      -0.050  16.677  22.066  0.00  0.00    +0.000 C 
ATOM     22  C   UNL     1      -0.800  15.847  21.019  0.00  0.00    +0.000 C 
ENDBRANCH   1  22
BRANCH   3  23
ATOM     23  N   UNL     1       2.316  13.991  17.697  0.00  0.00    +0.000 N 
ATOM     24  H   UNL     1       1.848  14.004  16.786  0.00  0.00    +0.000 HD
BRANCH  23  25
ATOM     25  C   UNL     1       3.528  14.807  17.797  0.00  0.00    +0.000 C 
BRANCH  25  26
ATOM     26  C   UNL     1       3.265  16.212  17.236  0.00  0.00    +0.000 C 
BRANCH  26  27
ATOM     27  O   UNL     1       3.813  17.194  18.119  0.00  0.00    +0.000 OA
ATOM     28  H   UNL     1       4.776  17.159  17.952  0.00  0.00    +0.000 HD
ENDBRANCH  26  27
ENDBRANCH  25  26
ENDBRANCH  23  25
ENDBRANCH   3  23
BRANCH   5  29
ATOM     29  O   UNL     1       2.466  11.429  17.374  0.00  0.00    +0.000 OA
ATOM     30  H   UNL     1       3.341  10.978  17.449  0.00  0.00    +0.000 HD
ENDBRANCH   5  29
BRANCH   8  31
ATOM     31  O   UNL     1      -0.307  10.615  22.071  0.00  0.00    +0.000 OA
ATOM     32  H   UNL     1      -0.355   9.650  22.255  0.00  0.00    +0.000 HD
ENDBRANCH   8  31
BRANCH  10  33
ATOM     33  C   UNL     1      -1.442  13.078  21.897  0.00  0.00    +0.000 C 
ATOM     34  O   UNL     1      -2.587  12.833  21.551  0.00  0.00    +0.000 OA
BRANCH  33  35
ATOM     35  O   UNL     1      -1.028  13.301  23.170  0.00  0.00    +0.000 OA
ATOM     36  C   UNL     1      -1.918  14.054  24.007  0.00  0.00    +0.000 C 
ENDBRANCH  33  35
ENDBRANCH  10  33
BRANCH  17  37
ATOM     37  O   UNL     1       4.050   6.697  17.534  0.00  0.00    +0.000 OA
ATOM     38  H   UNL     1       3.681   7.372  16.952  0.00  0.00    +0.000 HD
ENDBRANCH  17  37
TORSDOF 10
ENDMDL
