MODEL 1
REMARK VINA RESULT:      -7.5      0.000      0.000
REMARK  Name = 
REMARK  5 active torsions:
REMARK  status: ('A' for Active; 'I' for Inactive)
REMARK    1  A    between atoms: C_1  and  C_2
REMARK    2  A    between atoms: C_6  and  C_7
REMARK    3  A    between atoms: C_7  and  C_8
REMARK    4  A    between atoms: C_8  and  C_9
REMARK    5  A    between atoms: C_18  and  N_19
REMARK                            x       y       z     vdW  Elec       q    Type
REMARK                         _______ _______ _______ _____ _____    ______ ____
ROOT
ATOM      1  C   UNL     1       1.466   2.516  21.703  0.00  0.00    +0.000 C 
ATOM      2  C   UNL     1       2.104   3.234  20.574  0.00  0.00    +0.000 A 
ATOM      3  N   UNL     1       2.874   2.550  19.659  0.00  0.00    +0.000 NA
ATOM      4  C   UNL     1       3.281   3.458  18.795  0.00  0.00    +0.000 A 
ATOM      5  C   UNL     1       4.092   3.345  17.626  0.00  0.00    +0.000 A 
ATOM      6  C   UNL     1       4.370   4.431  16.863  0.00  0.00    +0.000 A 
ATOM      7  C   UNL     1       3.835   5.739  17.249  0.00  0.00    +0.000 A 
ATOM      8  C   UNL     1       3.079   5.853  18.354  0.00  0.00    +0.000 A 
ATOM      9  N   UNL     1       2.799   4.722  19.117  0.00  0.00    +0.000 N 
ATOM     10  C   UNL     1       2.042   4.580  20.265  0.00  0.00    +0.000 A 
ENDROOT
BRANCH  10  11
ATOM     11  N   UNL     1       1.404   5.605  20.877  0.00  0.00    +0.000 N 
ATOM     12  H   UNL     1       1.783   6.543  20.947  0.00  0.00    +0.000 HD
ATOM     13  H   UNL     1       0.542   5.460  21.396  0.00  0.00    +0.000 HD
ENDBRANCH  10  11
BRANCH   6  14
ATOM     14  C   UNL     1       5.199   4.302  15.595  0.00  0.00    +0.000 C 
BRANCH  14  15
ATOM     15  C   UNL     1       6.726   4.278  15.783  0.00  0.00    +0.000 C 
BRANCH  15  16
ATOM     16  C   UNL     1       7.203   5.254  16.832  0.00  0.00    +0.000 A 
ATOM     17  C   UNL     1       7.229   6.632  16.574  0.00  0.00    +0.000 A 
ATOM     18  C   UNL     1       7.676   7.527  17.550  0.00  0.00    +0.000 A 
ATOM     19  C   UNL     1       8.101   7.052  18.789  0.00  0.00    +0.000 A 
ATOM     20  C   UNL     1       8.076   5.685  19.057  0.00  0.00    +0.000 A 
ATOM     21  C   UNL     1       7.630   4.790  18.083  0.00  0.00    +0.000 A 
ENDBRANCH  15  16
ENDBRANCH  14  15
ENDBRANCH   6  14
TORSDOF 4
ENDMDL
MODEL 2
REMARK VINA RESULT:      -7.4      2.901      6.546
REMARK  Name = 
REMARK  5 active torsions:
REMARK  status: ('A' for Active; 'I' for Inactive)
REMARK    1  A    between atoms: C_1  and  C_2
REMARK    2  A    between atoms: C_6  and  C_7
REMARK    3  A    between atoms: C_7  and  C_8
REMARK    4  A    between atoms: C_8  and  C_9
REMARK    5  A    between atoms: C_18  and  N_19
REMARK                            x       y       z     vdW  Elec       q    Type
REMARK                         _______ _______ _______ _____ _____    ______ ____
ROOT
ATOM      1  C   UNL     1       6.271   3.434  12.414  0.00  0.00    +0.000 C 
ATOM      2  C   UNL     1       6.283   4.073  13.751  0.00  0.00    +0.000 A 
ATOM      3  N   UNL     1       5.337   3.737  14.694  0.00  0.00    +0.000 NA
ATOM      4  C   UNL     1       5.625   4.462  15.755  0.00  0.00    +0.000 A 
ATOM      5  C   UNL     1       5.008   4.535  17.040  0.00  0.00    +0.000 A 
ATOM      6  C   UNL     1       5.495   5.354  18.003  0.00  0.00    +0.000 A 
ATOM      7  C   UNL     1       6.670   6.182  17.717  0.00  0.00    +0.000 A 
ATOM      8  C   UNL     1       7.249   6.127  16.506  0.00  0.00    +0.000 A 
ATOM      9  N   UNL     1       6.736   5.270  15.535  0.00  0.00    +0.000 N 
ATOM     10  C   UNL     1       7.160   5.022  14.243  0.00  0.00    +0.000 A 
ENDROOT
BRANCH  10  11
ATOM     11  N   UNL     1       8.230   5.627  13.673  0.00  0.00    +0.000 N 
ATOM     12  H   UNL     1       8.706   5.272  12.851  0.00  0.00    +0.000 HD
ATOM     13  H   UNL     1       8.680   6.428  14.108  0.00  0.00    +0.000 HD
ENDBRANCH  10  11
BRANCH   6  14
ATOM     14  C   UNL     1       4.862   5.399  19.385  0.00  0.00    +0.000 C 
BRANCH  14  15
ATOM     15  C   UNL     1       3.392   5.847  19.442  0.00  0.00    +0.000 C 
BRANCH  15  16
ATOM     16  C   UNL     1       2.432   4.692  19.607  0.00  0.00    +0.000 A 
ATOM     17  C   UNL     1       2.159   4.159  20.874  0.00  0.00    +0.000 A 
ATOM     18  C   UNL     1       1.273   3.088  21.016  0.00  0.00    +0.000 A 
ATOM     19  C   UNL     1       0.655   2.542  19.894  0.00  0.00    +0.000 A 
ATOM     20  C   UNL     1       0.916   3.067  18.630  0.00  0.00    +0.000 A 
ATOM     21  C   UNL     1       1.801   4.137  18.487  0.00  0.00    +0.000 A 
ENDBRANCH  15  16
ENDBRANCH  14  15
ENDBRANCH   6  14
TORSDOF 4
ENDMDL
MODEL 3
REMARK VINA RESULT:      -7.4      3.147      4.981
REMARK  Name = 
REMARK  5 active torsions:
REMARK  status: ('A' for Active; 'I' for Inactive)
REMARK    1  A    between atoms: C_1  and  C_2
REMARK    2  A    between atoms: C_6  and  C_7
REMARK    3  A    between atoms: C_7  and  C_8
REMARK    4  A    between atoms: C_8  and  C_9
REMARK    5  A    between atoms: C_18  and  N_19
REMARK                            x       y       z     vdW  Elec       q    Type
REMARK                         _______ _______ _______ _____ _____    ______ ____
ROOT
ATOM      1  C   UNL     1       2.480   4.099  17.624  0.00  0.00    +0.000 C 
ATOM      2  C   UNL     1       3.815   4.705  17.839  0.00  0.00    +0.000 A 
ATOM      3  N   UNL     1       4.162   5.873  17.195  0.00  0.00    +0.000 NA
ATOM      4  C   UNL     1       5.386   6.144  17.599  0.00  0.00    +0.000 A 
ATOM      5  C   UNL     1       6.260   7.229  17.285  0.00  0.00    +0.000 A 
ATOM      6  C   UNL     1       7.492   7.316  17.844  0.00  0.00    +0.000 A 
ATOM      7  C   UNL     1       7.934   6.278  18.779  0.00  0.00    +0.000 A 
ATOM      8  C   UNL     1       7.121   5.249  19.070  0.00  0.00    +0.000 A 
ATOM      9  N   UNL     1       5.855   5.186  18.490  0.00  0.00    +0.000 N 
ATOM     10  C   UNL     1       4.844   4.256  18.644  0.00  0.00    +0.000 A 
ENDROOT
BRANCH  10  11
ATOM     11  N   UNL     1       4.936   3.170  19.449  0.00  0.00    +0.000 N 
ATOM     12  H   UNL     1       4.750   2.223  19.140  0.00  0.00    +0.000 HD
ATOM     13  H   UNL     1       5.102   3.262  20.447  0.00  0.00    +0.000 HD
ENDBRANCH  10  11
BRANCH   6  14
ATOM     14  C   UNL     1       8.405   8.494  17.542  0.00  0.00    +0.000 C 
BRANCH  14  15
ATOM     15  C   UNL     1       8.014   9.837  18.182  0.00  0.00    +0.000 C 
BRANCH  15  16
ATOM     16  C   UNL     1       9.204  10.605  18.708  0.00  0.00    +0.000 A 
ATOM     17  C   UNL     1      10.177  11.110  17.834  0.00  0.00    +0.000 A 
ATOM     18  C   UNL     1      11.276  11.815  18.330  0.00  0.00    +0.000 A 
ATOM     19  C   UNL     1      11.412  12.020  19.702  0.00  0.00    +0.000 A 
ATOM     20  C   UNL     1      10.448  11.526  20.578  0.00  0.00    +0.000 A 
ATOM     21  C   UNL     1       9.350  10.821  20.084  0.00  0.00    +0.000 A 
ENDBRANCH  15  16
ENDBRANCH  14  15
ENDBRANCH   6  14
TORSDOF 4
ENDMDL
MODEL 4
REMARK VINA RESULT:      -7.3      0.370      1.161
REMARK  Name = 
REMARK  5 active torsions:
REMARK  status: ('A' for Active; 'I' for Inactive)
REMARK    1  A    between atoms: C_1  and  C_2
REMARK    2  A    between atoms: C_6  and  C_7
REMARK    3  A    between atoms: C_7  and  C_8
REMARK    4  A    between atoms: C_8  and  C_9
REMARK    5  A    between atoms: C_18  and  N_19
REMARK                            x       y       z     vdW  Elec       q    Type
REMARK                         _______ _______ _______ _____ _____    ______ ____
ROOT
ATOM      1  C   UNL     1       2.026   2.713  21.859  0.00  0.00    +0.000 C 
ATOM      2  C   UNL     1       2.568   3.390  20.657  0.00  0.00    +0.000 A 
ATOM      3  N   UNL     1       3.233   2.668  19.690  0.00  0.00    +0.000 NA
ATOM      4  C   UNL     1       3.574   3.546  18.770  0.00  0.00    +0.000 A 
ATOM      5  C   UNL     1       4.267   3.389  17.532  0.00  0.00    +0.000 A 
ATOM      6  C   UNL     1       4.494   4.450  16.720  0.00  0.00    +0.000 A 
ATOM      7  C   UNL     1       4.026   5.779  17.123  0.00  0.00    +0.000 A 
ATOM      8  C   UNL     1       3.382   5.936  18.292  0.00  0.00    +0.000 A 
ATOM      9  N   UNL     1       3.152   4.828  19.105  0.00  0.00    +0.000 N 
ATOM     10  C   UNL     1       2.505   4.730  20.323  0.00  0.00    +0.000 A 
ENDROOT
BRANCH  10  11
ATOM     11  N   UNL     1       1.951   5.783  20.968  0.00  0.00    +0.000 N 
ATOM     12  H   UNL     1       2.299   6.153  21.846  0.00  0.00    +0.000 HD
ATOM     13  H   UNL     1       1.080   6.201  20.650  0.00  0.00    +0.000 HD
ENDBRANCH  10  11
BRANCH   6  14
ATOM     14  C   UNL     1       5.195   4.274  15.382  0.00  0.00    +0.000 C 
BRANCH  14  15
ATOM     15  C   UNL     1       6.715   4.512  15.377  0.00  0.00    +0.000 C 
BRANCH  15  16
ATOM     16  C   UNL     1       7.192   5.280  16.587  0.00  0.00    +0.000 A 
ATOM     17  C   UNL     1       7.612   4.610  17.745  0.00  0.00    +0.000 A 
ATOM     18  C   UNL     1       8.049   5.329  18.860  0.00  0.00    +0.000 A 
ATOM     19  C   UNL     1       8.067   6.722  18.828  0.00  0.00    +0.000 A 
ATOM     20  C   UNL     1       7.656   7.398  17.680  0.00  0.00    +0.000 A 
ATOM     21  C   UNL     1       7.220   6.680  16.566  0.00  0.00    +0.000 A 
ENDBRANCH  15  16
ENDBRANCH  14  15
ENDBRANCH   6  14
TORSDOF 4
ENDMDL
MODEL 5
REMARK VINA RESULT:      -7.3      2.827      6.466
REMARK  Name = 
REMARK  5 active torsions:
REMARK  status: ('A' for Active; 'I' for Inactive)
REMARK    1  A    between atoms: C_1  and  C_2
REMARK    2  A    between atoms: C_6  and  C_7
REMARK    3  A    between atoms: C_7  and  C_8
REMARK    4  A    between atoms: C_8  and  C_9
REMARK    5  A    between atoms: C_18  and  N_19
REMARK                            x       y       z     vdW  Elec       q    Type
REMARK                         _______ _______ _______ _____ _____    ______ ____
ROOT
ATOM      1  C   UNL     1       6.133   3.453  12.486  0.00  0.00    +0.000 C 
ATOM      2  C   UNL     1       6.154   4.117  13.811  0.00  0.00    +0.000 A 
ATOM      3  N   UNL     1       5.173   3.852  14.740  0.00  0.00    +0.000 NA
ATOM      4  C   UNL     1       5.480   4.582  15.793  0.00  0.00    +0.000 A 
ATOM      5  C   UNL     1       4.842   4.713  17.063  0.00  0.00    +0.000 A 
ATOM      6  C   UNL     1       5.355   5.525  18.020  0.00  0.00    +0.000 A 
ATOM      7  C   UNL     1       6.579   6.281  17.743  0.00  0.00    +0.000 A 
ATOM      8  C   UNL     1       7.178   6.170  16.545  0.00  0.00    +0.000 A 
ATOM      9  N   UNL     1       6.637   5.323  15.581  0.00  0.00    +0.000 N 
ATOM     10  C   UNL     1       7.072   5.026  14.303  0.00  0.00    +0.000 A 
ENDROOT
BRANCH  10  11
ATOM     11  N   UNL     1       8.184   5.560  13.743  0.00  0.00    +0.000 N 
ATOM     12  H   UNL     1       8.539   6.483  13.967  0.00  0.00    +0.000 HD
ATOM     13  H   UNL     1       8.671   5.095  12.982  0.00  0.00    +0.000 HD
ENDBRANCH  10  11
BRANCH   6  14
ATOM     14  C   UNL     1       4.699   5.631  19.388  0.00  0.00    +0.000 C 
BRANCH  14  15
ATOM     15  C   UNL     1       3.191   5.937  19.394  0.00  0.00    +0.000 C 
BRANCH  15  16
ATOM     16  C   UNL     1       2.347   4.718  19.687  0.00  0.00    +0.000 A 
ATOM     17  C   UNL     1       1.588   4.109  18.677  0.00  0.00    +0.000 A 
ATOM     18  C   UNL     1       0.808   2.986  18.958  0.00  0.00    +0.000 A 
ATOM     19  C   UNL     1       0.778   2.463  20.249  0.00  0.00    +0.000 A 
ATOM     20  C   UNL     1       1.531   3.058  21.259  0.00  0.00    +0.000 A 
ATOM     21  C   UNL     1       2.311   4.181  20.979  0.00  0.00    +0.000 A 
ENDBRANCH  15  16
ENDBRANCH  14  15
ENDBRANCH   6  14
TORSDOF 4
ENDMDL
MODEL 6
REMARK VINA RESULT:      -7.2      2.271      5.963
REMARK  Name = 
REMARK  5 active torsions:
REMARK  status: ('A' for Active; 'I' for Inactive)
REMARK    1  A    between atoms: C_1  and  C_2
REMARK    2  A    between atoms: C_6  and  C_7
REMARK    3  A    between atoms: C_7  and  C_8
REMARK    4  A    between atoms: C_8  and  C_9
REMARK    5  A    between atoms: C_18  and  N_19
REMARK                            x       y       z     vdW  Elec       q    Type
REMARK                         _______ _______ _______ _____ _____    ______ ____
ROOT
ATOM      1  C   UNL     1       8.303   8.445  17.804  0.00  0.00    +0.000 C 
ATOM      2  C   UNL     1       7.365   7.299  17.879  0.00  0.00    +0.000 A 
ATOM      3  N   UNL     1       6.242   7.263  17.083  0.00  0.00    +0.000 NA
ATOM      4  C   UNL     1       5.637   6.131  17.381  0.00  0.00    +0.000 A 
ATOM      5  C   UNL     1       4.439   5.544  16.872  0.00  0.00    +0.000 A 
ATOM      6  C   UNL     1       4.009   4.339  17.320  0.00  0.00    +0.000 A 
ATOM      7  C   UNL     1       4.782   3.634  18.345  0.00  0.00    +0.000 A 
ATOM      8  C   UNL     1       5.905   4.186  18.836  0.00  0.00    +0.000 A 
ATOM      9  N   UNL     1       6.332   5.421  18.353  0.00  0.00    +0.000 N 
ATOM     10  C   UNL     1       7.446   6.173  18.677  0.00  0.00    +0.000 A 
ENDROOT
BRANCH  10  11
ATOM     11  N   UNL     1       8.370   5.795  19.592  0.00  0.00    +0.000 N 
ATOM     12  H   UNL     1       9.274   5.405  19.352  0.00  0.00    +0.000 HD
ATOM     13  H   UNL     1       8.159   5.788  20.587  0.00  0.00    +0.000 HD
ENDBRANCH  10  11
BRANCH   6  14
ATOM     14  C   UNL     1       2.756   3.696  16.748  0.00  0.00    +0.000 C 
BRANCH  14  15
ATOM     15  C   UNL     1       1.449   3.954  17.517  0.00  0.00    +0.000 C 
BRANCH  15  16
ATOM     16  C   UNL     1       1.602   3.776  19.009  0.00  0.00    +0.000 A 
ATOM     17  C   UNL     1       1.560   2.500  19.589  0.00  0.00    +0.000 A 
ATOM     18  C   UNL     1       1.699   2.345  20.971  0.00  0.00    +0.000 A 
ATOM     19  C   UNL     1       1.878   3.463  21.783  0.00  0.00    +0.000 A 
ATOM     20  C   UNL     1       1.924   4.736  21.216  0.00  0.00    +0.000 A 
ATOM     21  C   UNL     1       1.786   4.891  19.836  0.00  0.00    +0.000 A 
ENDBRANCH  15  16
ENDBRANCH  14  15
ENDBRANCH   6  14
TORSDOF 4
ENDMDL
MODEL 7
REMARK VINA RESULT:      -7.1      3.755      6.029
REMARK  Name = 
REMARK  5 active torsions:
REMARK  status: ('A' for Active; 'I' for Inactive)
REMARK    1  A    between atoms: C_1  and  C_2
REMARK    2  A    between atoms: C_6  and  C_7
REMARK    3  A    between atoms: C_7  and  C_8
REMARK    4  A    between atoms: C_8  and  C_9
REMARK    5  A    between atoms: C_18  and  N_19
REMARK                            x       y       z     vdW  Elec       q    Type
REMARK                         _______ _______ _______ _____ _____    ______ ____
ROOT
ATOM      1  C   UNL     1      -0.701  10.414  22.932  0.00  0.00    +0.000 C 
ATOM      2  C   UNL     1      -0.016   9.904  21.721  0.00  0.00    +0.000 A 
ATOM      3  N   UNL     1       0.726   8.745  21.775  0.00  0.00    +0.000 NA
ATOM      4  C   UNL     1       1.188   8.566  20.555  0.00  0.00    +0.000 A 
ATOM      5  C   UNL     1       2.003   7.533  20.001  0.00  0.00    +0.000 A 
ATOM      6  C   UNL     1       2.345   7.543  18.689  0.00  0.00    +0.000 A 
ATOM      7  C   UNL     1       1.876   8.634  17.830  0.00  0.00    +0.000 A 
ATOM      8  C   UNL     1       1.117   9.615  18.348  0.00  0.00    +0.000 A 
ATOM      9  N   UNL     1       0.771   9.578  19.697  0.00  0.00    +0.000 N 
ATOM     10  C   UNL     1      -0.004  10.443  20.448  0.00  0.00    +0.000 A 
ENDROOT
BRANCH  10  11
ATOM     11  N   UNL     1      -0.593  11.554  19.945  0.00  0.00    +0.000 N 
ATOM     12  H   UNL     1      -0.696  12.420  20.463  0.00  0.00    +0.000 HD
ATOM     13  H   UNL     1      -1.060  11.545  19.043  0.00  0.00    +0.000 HD
ENDBRANCH  10  11
BRANCH   6  14
ATOM     14  C   UNL     1       3.178   6.421  18.091  0.00  0.00    +0.000 C 
BRANCH  14  15
ATOM     15  C   UNL     1       2.445   5.092  17.841  0.00  0.00    +0.000 C 
BRANCH  15  16
ATOM     16  C   UNL     1       2.361   4.227  19.076  0.00  0.00    +0.000 A 
ATOM     17  C   UNL     1       1.130   3.985  19.702  0.00  0.00    +0.000 A 
ATOM     18  C   UNL     1       1.062   3.186  20.846  0.00  0.00    +0.000 A 
ATOM     19  C   UNL     1       2.223   2.626  21.375  0.00  0.00    +0.000 A 
ATOM     20  C   UNL     1       3.451   2.857  20.758  0.00  0.00    +0.000 A 
ATOM     21  C   UNL     1       3.520   3.654  19.615  0.00  0.00    +0.000 A 
ENDBRANCH  15  16
ENDBRANCH  14  15
ENDBRANCH   6  14
TORSDOF 4
ENDMDL
MODEL 8
REMARK VINA RESULT:      -7.0      3.707      5.838
REMARK  Name = 
REMARK  5 active torsions:
REMARK  status: ('A' for Active; 'I' for Inactive)
REMARK    1  A    between atoms: C_1  and  C_2
REMARK    2  A    between atoms: C_6  and  C_7
REMARK    3  A    between atoms: C_7  and  C_8
REMARK    4  A    between atoms: C_8  and  C_9
REMARK    5  A    between atoms: C_18  and  N_19
REMARK                            x       y       z     vdW  Elec       q    Type
REMARK                         _______ _______ _______ _____ _____    ______ ____
ROOT
ATOM      1  C   UNL     1       3.641   3.943  16.567  0.00  0.00    +0.000 C 
ATOM      2  C   UNL     1       4.759   4.760  17.096  0.00  0.00    +0.000 A 
ATOM      3  N   UNL     1       5.050   5.987  16.543  0.00  0.00    +0.000 NA
ATOM      4  C   UNL     1       6.072   6.450  17.232  0.00  0.00    +0.000 A 
ATOM      5  C   UNL     1       6.798   7.675  17.129  0.00  0.00    +0.000 A 
ATOM      6  C   UNL     1       7.821   7.952  17.974  0.00  0.00    +0.000 A 
ATOM      7  C   UNL     1       8.189   6.977  19.003  0.00  0.00    +0.000 A 
ATOM      8  C   UNL     1       7.517   5.817  19.099  0.00  0.00    +0.000 A 
ATOM      9  N   UNL     1       6.463   5.559  18.225  0.00  0.00    +0.000 N 
ATOM     10  C   UNL     1       5.619   4.467  18.138  0.00  0.00    +0.000 A 
ENDROOT
BRANCH  10  11
ATOM     11  N   UNL     1       5.695   3.390  18.955  0.00  0.00    +0.000 N 
ATOM     12  H   UNL     1       6.088   2.498  18.676  0.00  0.00    +0.000 HD
ATOM     13  H   UNL     1       5.261   3.391  19.875  0.00  0.00    +0.000 HD
ENDBRANCH  10  11
BRANCH   6  14
ATOM     14  C   UNL     1       8.565   9.275  17.890  0.00  0.00    +0.000 C 
BRANCH  14  15
ATOM     15  C   UNL     1       9.070   9.854  19.223  0.00  0.00    +0.000 C 
BRANCH  15  16
ATOM     16  C   UNL     1      10.065  10.976  19.036  0.00  0.00    +0.000 A 
ATOM     17  C   UNL     1      10.663  11.599  20.141  0.00  0.00    +0.000 A 
ATOM     18  C   UNL     1      11.579  12.637  19.958  0.00  0.00    +0.000 A 
ATOM     19  C   UNL     1      11.904  13.062  18.671  0.00  0.00    +0.000 A 
ATOM     20  C   UNL     1      11.319  12.447  17.566  0.00  0.00    +0.000 A 
ATOM     21  C   UNL     1      10.403  11.409  17.748  0.00  0.00    +0.000 A 
ENDBRANCH  15  16
ENDBRANCH  14  15
ENDBRANCH   6  14
TORSDOF 4
ENDMDL
MODEL 9
REMARK VINA RESULT:      -7.0      1.106      2.404
REMARK  Name = 
REMARK  5 active torsions:
REMARK  status: ('A' for Active; 'I' for Inactive)
REMARK    1  A    between atoms: C_1  and  C_2
REMARK    2  A    between atoms: C_6  and  C_7
REMARK    3  A    between atoms: C_7  and  C_8
REMARK    4  A    between atoms: C_8  and  C_9
REMARK    5  A    between atoms: C_18  and  N_19
REMARK                            x       y       z     vdW  Elec       q    Type
REMARK                         _______ _______ _______ _____ _____    ______ ____
ROOT
ATOM      1  C   UNL     1       1.490   7.663  20.859  0.00  0.00    +0.000 C 
ATOM      2  C   UNL     1       2.161   6.664  19.994  0.00  0.00    +0.000 A 
ATOM      3  N   UNL     1       2.750   7.049  18.810  0.00  0.00    +0.000 NA
ATOM      4  C   UNL     1       3.254   5.948  18.294  0.00  0.00    +0.000 A 
ATOM      5  C   UNL     1       3.988   5.724  17.090  0.00  0.00    +0.000 A 
ATOM      6  C   UNL     1       4.432   4.486  16.763  0.00  0.00    +0.000 A 
ATOM      7  C   UNL     1       4.149   3.360  17.658  0.00  0.00    +0.000 A 
ATOM      8  C   UNL     1       3.449   3.562  18.787  0.00  0.00    +0.000 A 
ATOM      9  N   UNL     1       3.011   4.845  19.106  0.00  0.00    +0.000 N 
ATOM     10  C   UNL     1       2.305   5.305  20.202  0.00  0.00    +0.000 A 
ENDROOT
BRANCH  10  11
ATOM     11  N   UNL     1       1.893   4.511  21.219  0.00  0.00    +0.000 N 
ATOM     12  H   UNL     1       2.525   4.014  21.837  0.00  0.00    +0.000 HD
ATOM     13  H   UNL     1       0.911   4.289  21.354  0.00  0.00    +0.000 HD
ENDBRANCH  10  11
BRANCH   6  14
ATOM     14  C   UNL     1       5.250   4.257  15.502  0.00  0.00    +0.000 C 
BRANCH  14  15
ATOM     15  C   UNL     1       6.779   4.296  15.669  0.00  0.00    +0.000 C 
BRANCH  15  16
ATOM     16  C   UNL     1       7.225   5.232  16.768  0.00  0.00    +0.000 A 
ATOM     17  C   UNL     1       7.607   4.737  18.023  0.00  0.00    +0.000 A 
ATOM     18  C   UNL     1       8.014   5.610  19.035  0.00  0.00    +0.000 A 
ATOM     19  C   UNL     1       8.042   6.983  18.801  0.00  0.00    +0.000 A 
ATOM     20  C   UNL     1       7.668   7.485  17.556  0.00  0.00    +0.000 A 
ATOM     21  C   UNL     1       7.261   6.614  16.545  0.00  0.00    +0.000 A 
ENDBRANCH  15  16
ENDBRANCH  14  15
ENDBRANCH   6  14
TORSDOF 4
ENDMDL
