MODEL 1
REMARK VINA RESULT:      -6.6      0.000      0.000
REMARK  Name = 
REMARK  4 active torsions:
REMARK  status: ('A' for Active; 'I' for Inactive)
REMARK    1  A    between atoms: C_2  and  C_12
REMARK    2  A    between atoms: N_3  and  C_4
REMARK    3  A    between atoms: C_4  and  C_5
REMARK    4  A    between atoms: C_5  and  N_6
REMARK                            x       y       z     vdW  Elec       q    Type
REMARK                         _______ _______ _______ _____ _____    ______ ____
ROOT
ATOM      1  O   UNL     1       2.201   6.575  18.010  0.00  0.00    +0.000 OA
ATOM      2  C   UNL     1       2.394   6.899  19.177  0.00  0.00    +0.000 C 
ATOM      3  N   UNL     1       3.282   6.203  19.978  0.00  0.00    +0.000 N 
ATOM      4  H   UNL     1       3.267   6.389  20.972  0.00  0.00    +0.000 HD
ENDROOT
BRANCH   2   5
ATOM      5  C   UNL     1       1.714   8.015  19.810  0.00  0.00    +0.000 A 
ATOM      6  S   UNL     1       1.123   7.886  21.407  0.00  0.00    +0.000 S 
ATOM      7  C   UNL     1       0.355   9.422  21.338  0.00  0.00    +0.000 A 
ATOM      8  C   UNL     1      -0.434  10.011  22.345  0.00  0.00    +0.000 A 
ATOM      9  C   UNL     1      -0.990  11.266  22.107  0.00  0.00    +0.000 A 
ATOM     10 CL   UNL     1      -1.990  11.987  23.310  0.00  0.00    +0.000 Cl
ATOM     11  C   UNL     1      -0.760  11.938  20.917  0.00  0.00    +0.000 A 
ATOM     12  C   UNL     1       0.035  11.352  19.926  0.00  0.00    +0.000 A 
ATOM     13  C   UNL     1       0.597  10.063  20.121  0.00  0.00    +0.000 A 
ATOM     14  C   UNL     1       1.400   9.235  19.255  0.00  0.00    +0.000 A 
ATOM     15 CL   UNL     1       1.887   9.777  17.694  0.00  0.00    +0.000 Cl
ENDBRANCH   2   5
BRANCH   3  16
ATOM     16  C   UNL     1       3.883   4.963  19.519  0.00  0.00    +0.000 C 
BRANCH  16  17
ATOM     17  C   UNL     1       5.418   5.039  19.347  0.00  0.00    +0.000 C 
BRANCH  17  18
ATOM     18  N   UNL     1       5.903   4.507  18.054  0.00  0.00    +0.000 NA
ATOM     19  C   UNL     1       7.316   4.900  17.817  0.00  0.00    +0.000 C 
ATOM     20  C   UNL     1       7.530   6.383  17.438  0.00  0.00    +0.000 C 
ATOM     21  O   UNL     1       6.664   6.815  16.378  0.00  0.00    +0.000 OA
ATOM     22  C   UNL     1       5.295   6.523  16.679  0.00  0.00    +0.000 C 
ATOM     23  C   UNL     1       5.125   5.012  16.898  0.00  0.00    +0.000 C 
ENDBRANCH  17  18
ENDBRANCH  16  17
ENDBRANCH   3  16
TORSDOF 4
ENDMDL
MODEL 2
REMARK VINA RESULT:      -6.6      2.793      3.230
REMARK  Name = 
REMARK  4 active torsions:
REMARK  status: ('A' for Active; 'I' for Inactive)
REMARK    1  A    between atoms: C_2  and  C_12
REMARK    2  A    between atoms: N_3  and  C_4
REMARK    3  A    between atoms: C_4  and  C_5
REMARK    4  A    between atoms: C_5  and  N_6
REMARK                            x       y       z     vdW  Elec       q    Type
REMARK                         _______ _______ _______ _____ _____    ______ ____
ROOT
ATOM      1  O   UNL     1       2.606   7.766  19.135  0.00  0.00    +0.000 OA
ATOM      2  C   UNL     1       1.894   7.721  20.133  0.00  0.00    +0.000 C 
ATOM      3  N   UNL     1       1.821   6.579  20.910  0.00  0.00    +0.000 N 
ATOM      4  H   UNL     1       1.087   6.527  21.606  0.00  0.00    +0.000 HD
ENDROOT
BRANCH   2   5
ATOM      5  C   UNL     1       1.077   8.838  20.572  0.00  0.00    +0.000 A 
ATOM      6  S   UNL     1       0.825   9.137  22.234  0.00  0.00    +0.000 S 
ATOM      7  C   UNL     1      -0.305  10.394  21.924  0.00  0.00    +0.000 A 
ATOM      8  C   UNL     1      -1.028  11.126  22.886  0.00  0.00    +0.000 A 
ATOM      9  C   UNL     1      -1.916  12.107  22.447  0.00  0.00    +0.000 A 
ATOM     10 CL   UNL     1      -2.839  12.987  23.605  0.00  0.00    +0.000 Cl
ATOM     11  C   UNL     1      -2.073  12.379  21.098  0.00  0.00    +0.000 A 
ATOM     12  C   UNL     1      -1.341  11.656  20.149  0.00  0.00    +0.000 A 
ATOM     13  C   UNL     1      -0.448  10.630  20.556  0.00  0.00    +0.000 A 
ATOM     14  C   UNL     1       0.374   9.727  19.789  0.00  0.00    +0.000 A 
ATOM     15 CL   UNL     1       0.429   9.803  18.070  0.00  0.00    +0.000 Cl
ENDBRANCH   2   5
BRANCH   3  16
ATOM     16  C   UNL     1       2.444   5.341  20.476  0.00  0.00    +0.000 C 
BRANCH  16  17
ATOM     17  C   UNL     1       1.535   4.464  19.584  0.00  0.00    +0.000 C 
BRANCH  17  18
ATOM     18  N   UNL     1       1.540   3.031  19.951  0.00  0.00    +0.000 NA
ATOM     19  C   UNL     1       2.854   2.634  20.520  0.00  0.00    +0.000 C 
ATOM     20  C   UNL     1       4.003   2.511  19.493  0.00  0.00    +0.000 C 
ATOM     21  O   UNL     1       3.646   1.714  18.354  0.00  0.00    +0.000 OA
ATOM     22  C   UNL     1       2.432   2.184  17.758  0.00  0.00    +0.000 C 
ATOM     23  C   UNL     1       1.297   2.140  18.791  0.00  0.00    +0.000 C 
ENDBRANCH  17  18
ENDBRANCH  16  17
ENDBRANCH   3  16
TORSDOF 4
ENDMDL
MODEL 3
REMARK VINA RESULT:      -6.6      0.740      1.347
REMARK  Name = 
REMARK  4 active torsions:
REMARK  status: ('A' for Active; 'I' for Inactive)
REMARK    1  A    between atoms: C_2  and  C_12
REMARK    2  A    between atoms: N_3  and  C_4
REMARK    3  A    between atoms: C_4  and  C_5
REMARK    4  A    between atoms: C_5  and  N_6
REMARK                            x       y       z     vdW  Elec       q    Type
REMARK                         _______ _______ _______ _____ _____    ______ ____
ROOT
ATOM      1  O   UNL     1       2.255   6.688  17.970  0.00  0.00    +0.000 OA
ATOM      2  C   UNL     1       2.354   6.924  19.169  0.00  0.00    +0.000 C 
ATOM      3  N   UNL     1       3.103   6.110  20.001  0.00  0.00    +0.000 N 
ATOM      4  H   UNL     1       3.003   6.235  21.000  0.00  0.00    +0.000 HD
ENDROOT
BRANCH   2   5
ATOM      5  C   UNL     1       1.702   8.051  19.810  0.00  0.00    +0.000 A 
ATOM      6  S   UNL     1       1.108   7.926  21.406  0.00  0.00    +0.000 S 
ATOM      7  C   UNL     1       0.377   9.481  21.347  0.00  0.00    +0.000 A 
ATOM      8  C   UNL     1      -0.397  10.082  22.359  0.00  0.00    +0.000 A 
ATOM      9  C   UNL     1      -0.922  11.352  22.129  0.00  0.00    +0.000 A 
ATOM     10 CL   UNL     1      -1.904  12.089  23.337  0.00  0.00    +0.000 Cl
ATOM     11  C   UNL     1      -0.675  12.026  20.944  0.00  0.00    +0.000 A 
ATOM     12  C   UNL     1       0.106  11.427  19.949  0.00  0.00    +0.000 A 
ATOM     13  C   UNL     1       0.636  10.124  20.135  0.00  0.00    +0.000 A 
ATOM     14  C   UNL     1       1.419   9.283  19.264  0.00  0.00    +0.000 A 
ATOM     15 CL   UNL     1       1.919   9.823  17.707  0.00  0.00    +0.000 Cl
ENDBRANCH   2   5
BRANCH   3  16
ATOM     16  C   UNL     1       3.650   4.854  19.518  0.00  0.00    +0.000 C 
BRANCH  16  17
ATOM     17  C   UNL     1       5.187   4.870  19.338  0.00  0.00    +0.000 C 
BRANCH  17  18
ATOM     18  N   UNL     1       5.661   5.846  18.332  0.00  0.00    +0.000 NA
ATOM     19  C   UNL     1       5.270   5.427  16.961  0.00  0.00    +0.000 C 
ATOM     20  C   UNL     1       6.075   4.241  16.384  0.00  0.00    +0.000 C 
ATOM     21  O   UNL     1       7.493   4.420  16.509  0.00  0.00    +0.000 OA
ATOM     22  C   UNL     1       7.857   4.717  17.861  0.00  0.00    +0.000 C 
ATOM     23  C   UNL     1       7.136   5.991  18.323  0.00  0.00    +0.000 C 
ENDBRANCH  17  18
ENDBRANCH  16  17
ENDBRANCH   3  16
TORSDOF 4
ENDMDL
MODEL 4
REMARK VINA RESULT:      -6.5      2.347      3.281
REMARK  Name = 
REMARK  4 active torsions:
REMARK  status: ('A' for Active; 'I' for Inactive)
REMARK    1  A    between atoms: C_2  and  C_12
REMARK    2  A    between atoms: N_3  and  C_4
REMARK    3  A    between atoms: C_4  and  C_5
REMARK    4  A    between atoms: C_5  and  N_6
REMARK                            x       y       z     vdW  Elec       q    Type
REMARK                         _______ _______ _______ _____ _____    ______ ____
ROOT
ATOM      1  O   UNL     1       2.380   8.881  17.128  0.00  0.00    +0.000 OA
ATOM      2  C   UNL     1       2.277   8.437  18.267  0.00  0.00    +0.000 C 
ATOM      3  N   UNL     1       2.970   7.307  18.662  0.00  0.00    +0.000 N 
ATOM      4  H   UNL     1       2.712   6.877  19.540  0.00  0.00    +0.000 HD
ENDROOT
BRANCH   2   5
ATOM      5  C   UNL     1       1.430   9.043  19.277  0.00  0.00    +0.000 A 
ATOM      6  S   UNL     1       0.872  10.648  19.104  0.00  0.00    +0.000 S 
ATOM      7  C   UNL     1       0.166  10.663  20.671  0.00  0.00    +0.000 A 
ATOM      8  C   UNL     1      -0.476  11.753  21.290  0.00  0.00    +0.000 A 
ATOM      9  C   UNL     1      -0.982  11.584  22.578  0.00  0.00    +0.000 A 
ATOM     10 CL   UNL     1      -1.736  12.915  23.368  0.00  0.00    +0.000 Cl
ATOM     11  C   UNL     1      -0.880  10.368  23.233  0.00  0.00    +0.000 A 
ATOM     12  C   UNL     1      -0.252   9.287  22.606  0.00  0.00    +0.000 A 
ATOM     13  C   UNL     1       0.300   9.427  21.306  0.00  0.00    +0.000 A 
ATOM     14  C   UNL     1       1.023   8.497  20.474  0.00  0.00    +0.000 A 
ATOM     15 CL   UNL     1       1.315   6.878  20.983  0.00  0.00    +0.000 Cl
ENDBRANCH   2   5
BRANCH   3  16
ATOM     16  C   UNL     1       3.703   6.508  17.695  0.00  0.00    +0.000 C 
BRANCH  16  17
ATOM     17  C   UNL     1       3.976   5.058  18.162  0.00  0.00    +0.000 C 
BRANCH  17  18
ATOM     18  N   UNL     1       2.849   4.444  18.897  0.00  0.00    +0.000 NA
ATOM     19  C   UNL     1       3.343   3.618  20.029  0.00  0.00    +0.000 C 
ATOM     20  C   UNL     1       3.988   2.272  19.627  0.00  0.00    +0.000 C 
ATOM     21  O   UNL     1       3.171   1.514  18.723  0.00  0.00    +0.000 OA
ATOM     22  C   UNL     1       2.797   2.299  17.585  0.00  0.00    +0.000 C 
ATOM     23  C   UNL     1       2.030   3.547  18.047  0.00  0.00    +0.000 C 
ENDBRANCH  17  18
ENDBRANCH  16  17
ENDBRANCH   3  16
TORSDOF 4
ENDMDL
MODEL 5
REMARK VINA RESULT:      -6.5      4.168      8.025
REMARK  Name = 
REMARK  4 active torsions:
REMARK  status: ('A' for Active; 'I' for Inactive)
REMARK    1  A    between atoms: C_2  and  C_12
REMARK    2  A    between atoms: N_3  and  C_4
REMARK    3  A    between atoms: C_4  and  C_5
REMARK    4  A    between atoms: C_5  and  N_6
REMARK                            x       y       z     vdW  Elec       q    Type
REMARK                         _______ _______ _______ _____ _____    ______ ____
ROOT
ATOM      1  O   UNL     1       2.095  10.922  18.271  0.00  0.00    +0.000 OA
ATOM      2  C   UNL     1       1.380  10.015  18.681  0.00  0.00    +0.000 C 
ATOM      3  N   UNL     1       0.046  10.230  18.976  0.00  0.00    +0.000 N 
ATOM      4  H   UNL     1      -0.449   9.507  19.482  0.00  0.00    +0.000 HD
ENDROOT
BRANCH   2   5
ATOM      5  C   UNL     1       1.864   8.663  18.895  0.00  0.00    +0.000 A 
ATOM      6  S   UNL     1       2.661   7.811  17.648  0.00  0.00    +0.000 S 
ATOM      7  C   UNL     1       2.727   6.358  18.565  0.00  0.00    +0.000 A 
ATOM      8  C   UNL     1       3.235   5.117  18.134  0.00  0.00    +0.000 A 
ATOM      9  C   UNL     1       3.195   4.039  19.016  0.00  0.00    +0.000 A 
ATOM     10 CL   UNL     1       3.775   2.503  18.496  0.00  0.00    +0.000 Cl
ATOM     11  C   UNL     1       2.689   4.181  20.298  0.00  0.00    +0.000 A 
ATOM     12  C   UNL     1       2.198   5.420  20.723  0.00  0.00    +0.000 A 
ATOM     13  C   UNL     1       2.197   6.535  19.845  0.00  0.00    +0.000 A 
ATOM     14  C   UNL     1       1.716   7.883  20.021  0.00  0.00    +0.000 A 
ATOM     15 CL   UNL     1       1.035   8.405  21.514  0.00  0.00    +0.000 Cl
ENDBRANCH   2   5
BRANCH   3  16
ATOM     16  C   UNL     1      -0.508  11.573  18.979  0.00  0.00    +0.000 C 
BRANCH  16  17
ATOM     17  C   UNL     1      -1.748  11.739  18.068  0.00  0.00    +0.000 C 
BRANCH  17  18
ATOM     18  N   UNL     1      -2.530  10.496  17.889  0.00  0.00    +0.000 NA
ATOM     19  C   UNL     1      -2.237   9.871  16.572  0.00  0.00    +0.000 C 
ATOM     20  C   UNL     1      -2.854  10.592  15.353  0.00  0.00    +0.000 C 
ATOM     21  O   UNL     1      -4.253  10.867  15.520  0.00  0.00    +0.000 OA
ATOM     22  C   UNL     1      -4.497  11.566  16.746  0.00  0.00    +0.000 C 
ATOM     23  C   UNL     1      -3.993  10.727  17.929  0.00  0.00    +0.000 C 
ENDBRANCH  17  18
ENDBRANCH  16  17
ENDBRANCH   3  16
TORSDOF 4
ENDMDL
MODEL 6
REMARK VINA RESULT:      -6.5      1.799      2.369
REMARK  Name = 
REMARK  4 active torsions:
REMARK  status: ('A' for Active; 'I' for Inactive)
REMARK    1  A    between atoms: C_2  and  C_12
REMARK    2  A    between atoms: N_3  and  C_4
REMARK    3  A    between atoms: C_4  and  C_5
REMARK    4  A    between atoms: C_5  and  N_6
REMARK                            x       y       z     vdW  Elec       q    Type
REMARK                         _______ _______ _______ _____ _____    ______ ____
ROOT
ATOM      1  O   UNL     1       2.858   8.654  17.404  0.00  0.00    +0.000 OA
ATOM      2  C   UNL     1       2.364   8.097  18.378  0.00  0.00    +0.000 C 
ATOM      3  N   UNL     1       2.608   6.761  18.641  0.00  0.00    +0.000 N 
ATOM      4  H   UNL     1       2.036   6.304  19.340  0.00  0.00    +0.000 HD
ENDROOT
BRANCH   2   5
ATOM      5  C   UNL     1       1.490   8.776  19.318  0.00  0.00    +0.000 A 
ATOM      6  S   UNL     1       0.924  10.356  19.002  0.00  0.00    +0.000 S 
ATOM      7  C   UNL     1       0.184  10.492  20.548  0.00  0.00    +0.000 A 
ATOM      8  C   UNL     1      -0.480  11.623  21.062  0.00  0.00    +0.000 A 
ATOM      9  C   UNL     1      -1.011  11.554  22.348  0.00  0.00    +0.000 A 
ATOM     10 CL   UNL     1      -1.792  12.939  23.012  0.00  0.00    +0.000 Cl
ATOM     11  C   UNL     1      -0.914  10.397  23.103  0.00  0.00    +0.000 A 
ATOM     12  C   UNL     1      -0.264   9.274  22.580  0.00  0.00    +0.000 A 
ATOM     13  C   UNL     1       0.314   9.313  21.284  0.00  0.00    +0.000 A 
ATOM     14  C   UNL     1       1.062   8.325  20.547  0.00  0.00    +0.000 A 
ATOM     15 CL   UNL     1       1.356   6.756  21.192  0.00  0.00    +0.000 Cl
ENDBRANCH   2   5
BRANCH   3  16
ATOM     16  C   UNL     1       3.312   5.930  17.679  0.00  0.00    +0.000 C 
BRANCH  16  17
ATOM     17  C   UNL     1       4.773   5.616  18.078  0.00  0.00    +0.000 C 
BRANCH  17  18
ATOM     18  N   UNL     1       5.781   6.334  17.267  0.00  0.00    +0.000 NA
ATOM     19  C   UNL     1       5.886   5.743  15.907  0.00  0.00    +0.000 C 
ATOM     20  C   UNL     1       6.609   4.379  15.839  0.00  0.00    +0.000 C 
ATOM     21  O   UNL     1       7.870   4.384  16.523  0.00  0.00    +0.000 OA
ATOM     22  C   UNL     1       7.726   4.856  17.867  0.00  0.00    +0.000 C 
ATOM     23  C   UNL     1       7.140   6.276  17.857  0.00  0.00    +0.000 C 
ENDBRANCH  17  18
ENDBRANCH  16  17
ENDBRANCH   3  16
TORSDOF 4
ENDMDL
MODEL 7
REMARK VINA RESULT:      -6.5      4.922      7.080
REMARK  Name = 
REMARK  4 active torsions:
REMARK  status: ('A' for Active; 'I' for Inactive)
REMARK    1  A    between atoms: C_2  and  C_12
REMARK    2  A    between atoms: N_3  and  C_4
REMARK    3  A    between atoms: C_4  and  C_5
REMARK    4  A    between atoms: C_5  and  N_6
REMARK                            x       y       z     vdW  Elec       q    Type
REMARK                         _______ _______ _______ _____ _____    ______ ____
ROOT
ATOM      1  O   UNL     1       7.652   6.462  16.299  0.00  0.00    +0.000 OA
ATOM      2  C   UNL     1       6.916   6.828  17.209  0.00  0.00    +0.000 C 
ATOM      3  N   UNL     1       7.145   8.016  17.882  0.00  0.00    +0.000 N 
ATOM      4  H   UNL     1       6.629   8.181  18.736  0.00  0.00    +0.000 HD
ENDROOT
BRANCH   2   5
ATOM      5  C   UNL     1       5.768   6.060  17.656  0.00  0.00    +0.000 A 
ATOM      6  S   UNL     1       5.963   4.489  18.296  0.00  0.00    +0.000 S 
ATOM      7  C   UNL     1       4.267   4.225  18.390  0.00  0.00    +0.000 A 
ATOM      8  C   UNL     1       3.625   3.042  18.804  0.00  0.00    +0.000 A 
ATOM      9  C   UNL     1       2.232   3.005  18.805  0.00  0.00    +0.000 A 
ATOM     10 CL   UNL     1       1.427   1.556  19.270  0.00  0.00    +0.000 Cl
ATOM     11  C   UNL     1       1.486   4.111  18.429  0.00  0.00    +0.000 A 
ATOM     12  C   UNL     1       2.131   5.287  18.031  0.00  0.00    +0.000 A 
ATOM     13  C   UNL     1       3.549   5.354  17.991  0.00  0.00    +0.000 A 
ATOM     14  C   UNL     1       4.439   6.413  17.584  0.00  0.00    +0.000 A 
ATOM     15 CL   UNL     1       3.838   7.942  17.069  0.00  0.00    +0.000 Cl
ENDBRANCH   2   5
BRANCH   3  16
ATOM     16  C   UNL     1       8.359   8.779  17.654  0.00  0.00    +0.000 C 
BRANCH  16  17
ATOM     17  C   UNL     1       8.394  10.135  18.397  0.00  0.00    +0.000 C 
BRANCH  17  18
ATOM     18  N   UNL     1       9.749  10.550  18.821  0.00  0.00    +0.000 NA
ATOM     19  C   UNL     1       9.697  11.286  20.112  0.00  0.00    +0.000 C 
ATOM     20  C   UNL     1       9.139  12.724  20.025  0.00  0.00    +0.000 C 
ATOM     21  O   UNL     1       9.759  13.498  18.988  0.00  0.00    +0.000 OA
ATOM     22  C   UNL     1       9.700  12.816  17.731  0.00  0.00    +0.000 C 
ATOM     23  C   UNL     1      10.404  11.456  17.847  0.00  0.00    +0.000 C 
ENDBRANCH  17  18
ENDBRANCH  16  17
ENDBRANCH   3  16
TORSDOF 4
ENDMDL
MODEL 8
REMARK VINA RESULT:      -6.4      4.921      7.086
REMARK  Name = 
REMARK  4 active torsions:
REMARK  status: ('A' for Active; 'I' for Inactive)
REMARK    1  A    between atoms: C_2  and  C_12
REMARK    2  A    between atoms: N_3  and  C_4
REMARK    3  A    between atoms: C_4  and  C_5
REMARK    4  A    between atoms: C_5  and  N_6
REMARK                            x       y       z     vdW  Elec       q    Type
REMARK                         _______ _______ _______ _____ _____    ______ ____
ROOT
ATOM      1  O   UNL     1       7.717   6.682  16.327  0.00  0.00    +0.000 OA
ATOM      2  C   UNL     1       6.960   7.034  17.225  0.00  0.00    +0.000 C 
ATOM      3  N   UNL     1       7.134   8.241  17.879  0.00  0.00    +0.000 N 
ATOM      4  H   UNL     1       6.606   8.400  18.727  0.00  0.00    +0.000 HD
ENDROOT
BRANCH   2   5
ATOM      5  C   UNL     1       5.841   6.228  17.678  0.00  0.00    +0.000 A 
ATOM      6  S   UNL     1       6.092   4.665  18.320  0.00  0.00    +0.000 S 
ATOM      7  C   UNL     1       4.406   4.342  18.421  0.00  0.00    +0.000 A 
ATOM      8  C   UNL     1       3.808   3.138  18.840  0.00  0.00    +0.000 A 
ATOM      9  C   UNL     1       2.416   3.054  18.846  0.00  0.00    +0.000 A 
ATOM     10 CL   UNL     1       1.664   1.578  19.317  0.00  0.00    +0.000 Cl
ATOM     11  C   UNL     1       1.632   4.133  18.472  0.00  0.00    +0.000 A 
ATOM     12  C   UNL     1       2.234   5.329  18.070  0.00  0.00    +0.000 A 
ATOM     13  C   UNL     1       3.648   5.445  18.024  0.00  0.00    +0.000 A 
ATOM     14  C   UNL     1       4.500   6.534  17.611  0.00  0.00    +0.000 A 
ATOM     15 CL   UNL     1       3.844   8.041  17.097  0.00  0.00    +0.000 Cl
ENDBRANCH   2   5
BRANCH   3  16
ATOM     16  C   UNL     1       8.318   9.049  17.645  0.00  0.00    +0.000 C 
BRANCH  16  17
ATOM     17  C   UNL     1       8.983   9.572  18.940  0.00  0.00    +0.000 C 
BRANCH  17  18
ATOM     18  N   UNL     1       8.803  11.023  19.163  0.00  0.00    +0.000 NA
ATOM     19  C   UNL     1       9.166  11.794  17.945  0.00  0.00    +0.000 C 
ATOM     20  C   UNL     1      10.682  11.892  17.659  0.00  0.00    +0.000 C 
ATOM     21  O   UNL     1      11.438  12.307  18.806  0.00  0.00    +0.000 OA
ATOM     22  C   UNL     1      11.151  11.480  19.939  0.00  0.00    +0.000 C 
ATOM     23  C   UNL     1       9.651  11.546  20.261  0.00  0.00    +0.000 C 
ENDBRANCH  17  18
ENDBRANCH  16  17
ENDBRANCH   3  16
TORSDOF 4
ENDMDL
MODEL 9
REMARK VINA RESULT:      -6.4      4.984      7.347
REMARK  Name = 
REMARK  4 active torsions:
REMARK  status: ('A' for Active; 'I' for Inactive)
REMARK    1  A    between atoms: C_2  and  C_12
REMARK    2  A    between atoms: N_3  and  C_4
REMARK    3  A    between atoms: C_4  and  C_5
REMARK    4  A    between atoms: C_5  and  N_6
REMARK                            x       y       z     vdW  Elec       q    Type
REMARK                         _______ _______ _______ _____ _____    ______ ____
ROOT
ATOM      1  O   UNL     1       7.866   7.083  16.206  0.00  0.00    +0.000 OA
ATOM      2  C   UNL     1       7.155   7.338  17.172  0.00  0.00    +0.000 C 
ATOM      3  N   UNL     1       7.319   8.506  17.895  0.00  0.00    +0.000 N 
ATOM      4  H   UNL     1       6.841   8.584  18.783  0.00  0.00    +0.000 HD
ENDROOT
BRANCH   2   5
ATOM      5  C   UNL     1       6.104   6.451  17.637  0.00  0.00    +0.000 A 
ATOM      6  S   UNL     1       4.469   6.945  17.615  0.00  0.00    +0.000 S 
ATOM      7  C   UNL     1       3.941   5.528  18.433  0.00  0.00    +0.000 A 
ATOM      8  C   UNL     1       2.624   5.237  18.841  0.00  0.00    +0.000 A 
ATOM      9  C   UNL     1       2.384   4.037  19.507  0.00  0.00    +0.000 A 
ATOM     10 CL   UNL     1       0.788   3.680  20.048  0.00  0.00    +0.000 Cl
ATOM     11  C   UNL     1       3.406   3.133  19.747  0.00  0.00    +0.000 A 
ATOM     12  C   UNL     1       4.708   3.424  19.328  0.00  0.00    +0.000 A 
ATOM     13  C   UNL     1       4.999   4.648  18.670  0.00  0.00    +0.000 A 
ATOM     14  C   UNL     1       6.242   5.196  18.187  0.00  0.00    +0.000 A 
ATOM     15 CL   UNL     1       7.719   4.319  18.314  0.00  0.00    +0.000 Cl
ENDBRANCH   2   5
BRANCH   3  16
ATOM     16  C   UNL     1       8.449   9.384  17.645  0.00  0.00    +0.000 C 
BRANCH  16  17
ATOM     17  C   UNL     1       8.931  10.154  18.897  0.00  0.00    +0.000 C 
BRANCH  17  18
ATOM     18  N   UNL     1       9.238  11.578  18.642  0.00  0.00    +0.000 NA
ATOM     19  C   UNL     1      10.555  11.724  17.969  0.00  0.00    +0.000 C 
ATOM     20  C   UNL     1      11.784  11.484  18.874  0.00  0.00    +0.000 C 
ATOM     21  O   UNL     1      11.722  12.223  20.102  0.00  0.00    +0.000 OA
ATOM     22  C   UNL     1      10.488  11.982  20.786  0.00  0.00    +0.000 C 
ATOM     23  C   UNL     1       9.310  12.382  19.885  0.00  0.00    +0.000 C 
ENDBRANCH  17  18
ENDBRANCH  16  17
ENDBRANCH   3  16
TORSDOF 4
ENDMDL
