MODEL 1
REMARK VINA RESULT:      -8.5      0.000      0.000
REMARK  Name = 
REMARK  6 active torsions:
REMARK  status: ('A' for Active; 'I' for Inactive)
REMARK    1  A    between atoms: C_2  and  C_13
REMARK    2  A    between atoms: N_3  and  C_4
REMARK    3  A    between atoms: C_8  and  N_9
REMARK    4  A    between atoms: C_18  and  C_20
REMARK    5  A    between atoms: C_22  and  C_23
REMARK    6  A    between atoms: C_28  and  C_29
REMARK                            x       y       z     vdW  Elec       q    Type
REMARK                         _______ _______ _______ _____ _____    ______ ____
ROOT
ATOM      1  C   UNL     1       7.217   5.309  16.523  0.00  0.00    +0.000 C 
ATOM      2  C   UNL     1       7.753   4.535  17.733  0.00  0.00    +0.000 C 
ATOM      3  C   UNL     1       6.725   4.369  18.842  0.00  0.00    +0.000 C 
ATOM      4  C   UNL     1       5.997   5.671  19.158  0.00  0.00    +0.000 C 
ATOM      5  N   UNL     1       5.471   6.329  17.950  0.00  0.00    +0.000 N 
ATOM      6  C   UNL     1       4.160   6.770  17.678  0.00  0.00    +0.000 C 
ATOM      7  O   UNL     1       3.857   7.294  16.609  0.00  0.00    +0.000 OA
ATOM      8  C   UNL     1       6.498   6.592  16.932  0.00  0.00    +0.000 C 
ENDROOT
BRANCH   6   9
ATOM      9  C   UNL     1       3.040   6.470  18.610  0.00  0.00    +0.000 A 
ATOM     10  C   UNL     1       2.318   7.486  19.229  0.00  0.00    +0.000 A 
ATOM     11  C   UNL     1       1.494   7.202  20.323  0.00  0.00    +0.000 A 
ATOM     12  C   UNL     1       1.232   5.867  20.649  0.00  0.00    +0.000 A 
ATOM     13  C   UNL     1       1.808   4.817  19.919  0.00  0.00    +0.000 A 
ATOM     14  C   UNL     1       2.738   5.130  18.912  0.00  0.00    +0.000 A 
BRANCH  11  15
ATOM     15  C   UNL     1       0.970   8.318  21.191  0.00  0.00    +0.000 C 
ATOM     16  F   UNL     1       1.717   8.511  22.314  0.00  0.00    +0.000 F 
ATOM     17  F   UNL     1       0.921   9.511  20.550  0.00  0.00    +0.000 F 
ATOM     18  F   UNL     1      -0.293   8.062  21.633  0.00  0.00    +0.000 F 
ENDBRANCH  11  15
BRANCH  13  19
ATOM     19  C   UNL     1       1.502   3.387  20.304  0.00  0.00    +0.000 C 
ATOM     20  F   UNL     1       0.412   2.888  19.657  0.00  0.00    +0.000 F 
ATOM     21  F   UNL     1       2.520   2.529  20.045  0.00  0.00    +0.000 F 
ATOM     22  F   UNL     1       1.214   3.290  21.625  0.00  0.00    +0.000 F 
ENDBRANCH  13  19
ENDBRANCH   6   9
BRANCH   1  24
ATOM     23  O   UNL     1       5.544   3.679  16.071  0.00  0.00    +0.000 OA
ATOM     24  C   UNL     1       6.374   4.439  15.582  0.00  0.00    +0.000 C 
ATOM     25  N   UNL     1       6.618   4.600  14.228  0.00  0.00    +0.000 N 
ATOM     26  H   UNL     1       7.455   5.115  13.988  0.00  0.00    +0.000 HD
BRANCH  25  27
ATOM     27  C   UNL     1       5.963   3.930  13.169  0.00  0.00    +0.000 A 
ATOM     28  C   UNL     1       4.629   4.180  12.828  0.00  0.00    +0.000 A 
ATOM     29  C   UNL     1       3.980   3.459  11.823  0.00  0.00    +0.000 A 
ATOM     30  C   UNL     1       4.654   2.456  11.141  0.00  0.00    +0.000 A 
ATOM     31  C   UNL     1       5.988   2.220  11.466  0.00  0.00    +0.000 A 
ATOM     32  C   UNL     1       6.667   2.959  12.444  0.00  0.00    +0.000 A 
BRANCH  31  33
ATOM     33  N   UNL     1       6.636   1.098  10.833  0.00  0.00    +0.000 N 
ATOM     34  O   UNL     1       6.157  -0.026  11.040  0.00  0.00    +0.000 OA
ATOM     35  O   UNL     1       7.653   1.350  10.172  0.00  0.00    +0.000 OA
ENDBRANCH  31  33
ENDBRANCH  25  27
ENDBRANCH   1  24
TORSDOF 6
ENDMDL
MODEL 2
REMARK VINA RESULT:      -8.5      6.230      8.782
REMARK  Name = 
REMARK  6 active torsions:
REMARK  status: ('A' for Active; 'I' for Inactive)
REMARK    1  A    between atoms: C_2  and  C_13
REMARK    2  A    between atoms: N_3  and  C_4
REMARK    3  A    between atoms: C_8  and  N_9
REMARK    4  A    between atoms: C_18  and  C_20
REMARK    5  A    between atoms: C_22  and  C_23
REMARK    6  A    between atoms: C_28  and  C_29
REMARK                            x       y       z     vdW  Elec       q    Type
REMARK                         _______ _______ _______ _____ _____    ______ ____
ROOT
ATOM      1  C   UNL     1       1.293   9.364  22.246  0.00  0.00    +0.000 C 
ATOM      2  C   UNL     1       0.310   9.501  23.414  0.00  0.00    +0.000 C 
ATOM      3  C   UNL     1      -1.045  10.053  22.995  0.00  0.00    +0.000 C 
ATOM      4  C   UNL     1      -0.920  11.272  22.088  0.00  0.00    +0.000 C 
ATOM      5  N   UNL     1       0.005  11.044  20.964  0.00  0.00    +0.000 N 
ATOM      6  C   UNL     1      -0.214  11.221  19.583  0.00  0.00    +0.000 C 
ATOM      7  O   UNL     1       0.652  10.974  18.748  0.00  0.00    +0.000 OA
ATOM      8  C   UNL     1       1.349  10.625  21.387  0.00  0.00    +0.000 C 
ENDROOT
BRANCH   6   9
ATOM      9  C   UNL     1      -1.565  11.558  19.057  0.00  0.00    +0.000 A 
ATOM     10  C   UNL     1      -2.485  12.270  19.819  0.00  0.00    +0.000 A 
ATOM     11  C   UNL     1      -3.832  12.307  19.448  0.00  0.00    +0.000 A 
ATOM     12  C   UNL     1      -4.206  11.812  18.193  0.00  0.00    +0.000 A 
ATOM     13  C   UNL     1      -3.259  11.251  17.325  0.00  0.00    +0.000 A 
ATOM     14  C   UNL     1      -1.936  11.104  17.778  0.00  0.00    +0.000 A 
BRANCH  11  15
ATOM     15  C   UNL     1      -4.878  12.792  20.421  0.00  0.00    +0.000 C 
ATOM     16  F   UNL     1      -5.922  11.927  20.550  0.00  0.00    +0.000 F 
ATOM     17  F   UNL     1      -4.389  12.996  21.668  0.00  0.00    +0.000 F 
ATOM     18  F   UNL     1      -5.429  13.972  20.021  0.00  0.00    +0.000 F 
ENDBRANCH  11  15
BRANCH  13  19
ATOM     19  C   UNL     1      -3.702  10.724  15.979  0.00  0.00    +0.000 C 
ATOM     20  F   UNL     1      -3.489   9.386  15.838  0.00  0.00    +0.000 F 
ATOM     21  F   UNL     1      -5.020  10.926  15.729  0.00  0.00    +0.000 F 
ATOM     22  F   UNL     1      -3.003  11.309  14.975  0.00  0.00    +0.000 F 
ENDBRANCH  13  19
ENDBRANCH   6   9
BRANCH   1  24
ATOM     23  O   UNL     1      -0.078   7.641  21.345  0.00  0.00    +0.000 OA
ATOM     24  C   UNL     1       1.059   8.098  21.413  0.00  0.00    +0.000 C 
ATOM     25  N   UNL     1       2.175   7.572  20.782  0.00  0.00    +0.000 N 
ATOM     26  H   UNL     1       3.068   7.941  21.084  0.00  0.00    +0.000 HD
BRANCH  25  27
ATOM     27  C   UNL     1       2.213   6.429  19.951  0.00  0.00    +0.000 A 
ATOM     28  C   UNL     1       2.718   6.462  18.646  0.00  0.00    +0.000 A 
ATOM     29  C   UNL     1       2.683   5.338  17.816  0.00  0.00    +0.000 A 
ATOM     30  C   UNL     1       2.128   4.153  18.275  0.00  0.00    +0.000 A 
ATOM     31  C   UNL     1       1.644   4.113  19.581  0.00  0.00    +0.000 A 
ATOM     32  C   UNL     1       1.705   5.219  20.440  0.00  0.00    +0.000 A 
BRANCH  31  33
ATOM     33  N   UNL     1       0.964   2.912  19.999  0.00  0.00    +0.000 N 
ATOM     34  O   UNL     1       1.134   2.541  21.169  0.00  0.00    +0.000 OA
ATOM     35  O   UNL     1       0.305   2.322  19.132  0.00  0.00    +0.000 OA
ENDBRANCH  31  33
ENDBRANCH  25  27
ENDBRANCH   1  24
TORSDOF 6
ENDMDL
MODEL 3
REMARK VINA RESULT:      -8.4      0.329      1.138
REMARK  Name = 
REMARK  6 active torsions:
REMARK  status: ('A' for Active; 'I' for Inactive)
REMARK    1  A    between atoms: C_2  and  C_13
REMARK    2  A    between atoms: N_3  and  C_4
REMARK    3  A    between atoms: C_8  and  N_9
REMARK    4  A    between atoms: C_18  and  C_20
REMARK    5  A    between atoms: C_22  and  C_23
REMARK    6  A    between atoms: C_28  and  C_29
REMARK                            x       y       z     vdW  Elec       q    Type
REMARK                         _______ _______ _______ _____ _____    ______ ____
ROOT
ATOM      1  C   UNL     1       7.205   5.374  16.479  0.00  0.00    +0.000 C 
ATOM      2  C   UNL     1       7.788   4.568  17.645  0.00  0.00    +0.000 C 
ATOM      3  C   UNL     1       6.803   4.371  18.789  0.00  0.00    +0.000 C 
ATOM      4  C   UNL     1       6.089   5.663  19.169  0.00  0.00    +0.000 C 
ATOM      5  N   UNL     1       5.516   6.353  18.001  0.00  0.00    +0.000 N 
ATOM      6  C   UNL     1       4.197   6.801  17.792  0.00  0.00    +0.000 C 
ATOM      7  O   UNL     1       3.852   7.354  16.751  0.00  0.00    +0.000 OA
ATOM      8  C   UNL     1       6.503   6.645  16.951  0.00  0.00    +0.000 C 
ENDROOT
BRANCH   6   9
ATOM      9  C   UNL     1       3.113   6.475  18.759  0.00  0.00    +0.000 A 
ATOM     10  C   UNL     1       2.295   7.465  19.294  0.00  0.00    +0.000 A 
ATOM     11  C   UNL     1       1.506   7.198  20.417  0.00  0.00    +0.000 A 
ATOM     12  C   UNL     1       1.378   5.878  20.862  0.00  0.00    +0.000 A 
ATOM     13  C   UNL     1       2.055   4.830  20.221  0.00  0.00    +0.000 A 
ATOM     14  C   UNL     1       2.947   5.143  19.180  0.00  0.00    +0.000 A 
BRANCH  11  15
ATOM     15  C   UNL     1       0.874   8.329  21.190  0.00  0.00    +0.000 C 
ATOM     16  F   UNL     1       0.827   9.492  20.482  0.00  0.00    +0.000 F 
ATOM     17  F   UNL     1      -0.396   8.062  21.578  0.00  0.00    +0.000 F 
ATOM     18  F   UNL     1       1.574   8.619  22.321  0.00  0.00    +0.000 F 
ENDBRANCH  11  15
BRANCH  13  19
ATOM     19  C   UNL     1       1.893   3.416  20.732  0.00  0.00    +0.000 C 
ATOM     20  F   UNL     1       2.376   3.252  21.995  0.00  0.00    +0.000 F 
ATOM     21  F   UNL     1       0.603   2.999  20.763  0.00  0.00    +0.000 F 
ATOM     22  F   UNL     1       2.586   2.539  19.964  0.00  0.00    +0.000 F 
ENDBRANCH  13  19
ENDBRANCH   6   9
BRANCH   1  24
ATOM     23  O   UNL     1       5.404   3.885  16.037  0.00  0.00    +0.000 OA
ATOM     24  C   UNL     1       6.326   4.530  15.548  0.00  0.00    +0.000 C 
ATOM     25  N   UNL     1       6.647   4.580  14.202  0.00  0.00    +0.000 N 
ATOM     26  H   UNL     1       7.541   4.997  13.976  0.00  0.00    +0.000 HD
BRANCH  25  27
ATOM     27  C   UNL     1       5.980   3.909  13.151  0.00  0.00    +0.000 A 
ATOM     28  C   UNL     1       4.644   4.166  12.819  0.00  0.00    +0.000 A 
ATOM     29  C   UNL     1       3.983   3.444  11.823  0.00  0.00    +0.000 A 
ATOM     30  C   UNL     1       4.645   2.435  11.141  0.00  0.00    +0.000 A 
ATOM     31  C   UNL     1       5.981   2.192  11.456  0.00  0.00    +0.000 A 
ATOM     32  C   UNL     1       6.671   2.932  12.425  0.00  0.00    +0.000 A 
BRANCH  31  33
ATOM     33  N   UNL     1       6.616   1.063  10.822  0.00  0.00    +0.000 N 
ATOM     34  O   UNL     1       7.557   1.300  10.051  0.00  0.00    +0.000 OA
ATOM     35  O   UNL     1       6.130  -0.051  11.065  0.00  0.00    +0.000 OA
ENDBRANCH  31  33
ENDBRANCH  25  27
ENDBRANCH   1  24
TORSDOF 6
ENDMDL
MODEL 4
REMARK VINA RESULT:      -8.4      4.354      8.466
REMARK  Name = 
REMARK  6 active torsions:
REMARK  status: ('A' for Active; 'I' for Inactive)
REMARK    1  A    between atoms: C_2  and  C_13
REMARK    2  A    between atoms: N_3  and  C_4
REMARK    3  A    between atoms: C_8  and  N_9
REMARK    4  A    between atoms: C_18  and  C_20
REMARK    5  A    between atoms: C_22  and  C_23
REMARK    6  A    between atoms: C_28  and  C_29
REMARK                            x       y       z     vdW  Elec       q    Type
REMARK                         _______ _______ _______ _____ _____    ______ ____
ROOT
ATOM      1  C   UNL     1       1.878   2.605  20.304  0.00  0.00    +0.000 C 
ATOM      2  C   UNL     1       3.045   2.466  21.289  0.00  0.00    +0.000 C 
ATOM      3  C   UNL     1       4.378   2.911  20.704  0.00  0.00    +0.000 C 
ATOM      4  C   UNL     1       4.618   2.344  19.309  0.00  0.00    +0.000 C 
ATOM      5  N   UNL     1       3.471   2.559  18.411  0.00  0.00    +0.000 N 
ATOM      6  C   UNL     1       3.443   3.151  17.132  0.00  0.00    +0.000 C 
ATOM      7  O   UNL     1       2.400   3.280  16.495  0.00  0.00    +0.000 OA
ATOM      8  C   UNL     1       2.207   2.019  18.934  0.00  0.00    +0.000 C 
ENDROOT
BRANCH   6   9
ATOM      9  C   UNL     1       4.653   3.801  16.560  0.00  0.00    +0.000 A 
ATOM     10  C   UNL     1       5.411   4.704  17.298  0.00  0.00    +0.000 A 
ATOM     11  C   UNL     1       6.340   5.532  16.661  0.00  0.00    +0.000 A 
ATOM     12  C   UNL     1       6.659   5.293  15.320  0.00  0.00    +0.000 A 
ATOM     13  C   UNL     1       6.036   4.263  14.601  0.00  0.00    +0.000 A 
ATOM     14  C   UNL     1       5.008   3.534  15.225  0.00  0.00    +0.000 A 
BRANCH  11  15
ATOM     15  C   UNL     1       6.924   6.720  17.385  0.00  0.00    +0.000 C 
ATOM     16  F   UNL     1       7.331   6.421  18.650  0.00  0.00    +0.000 F 
ATOM     17  F   UNL     1       7.996   7.254  16.751  0.00  0.00    +0.000 F 
ATOM     18  F   UNL     1       6.014   7.724  17.522  0.00  0.00    +0.000 F 
ENDBRANCH  11  15
BRANCH  13  19
ATOM     19  C   UNL     1       6.405   4.037  13.152  0.00  0.00    +0.000 C 
ATOM     20  F   UNL     1       5.342   4.164  12.309  0.00  0.00    +0.000 F 
ATOM     21  F   UNL     1       7.352   4.895  12.698  0.00  0.00    +0.000 F 
ATOM     22  F   UNL     1       6.870   2.778  12.960  0.00  0.00    +0.000 F 
ENDBRANCH  13  19
ENDBRANCH   6   9
BRANCH   1  24
ATOM     23  O   UNL     1       0.151   4.233  20.462  0.00  0.00    +0.000 OA
ATOM     24  C   UNL     1       1.337   4.037  20.215  0.00  0.00    +0.000 C 
ATOM     25  N   UNL     1       2.257   5.012  19.868  0.00  0.00    +0.000 N 
ATOM     26  H   UNL     1       3.142   4.676  19.510  0.00  0.00    +0.000 HD
BRANCH  25  27
ATOM     27  C   UNL     1       2.008   6.397  19.738  0.00  0.00    +0.000 A 
ATOM     28  C   UNL     1       2.263   7.103  18.557  0.00  0.00    +0.000 A 
ATOM     29  C   UNL     1       2.075   8.485  18.471  0.00  0.00    +0.000 A 
ATOM     30  C   UNL     1       1.635   9.196  19.578  0.00  0.00    +0.000 A 
ATOM     31  C   UNL     1       1.362   8.492  20.749  0.00  0.00    +0.000 A 
ATOM     32  C   UNL     1       1.508   7.101  20.841  0.00  0.00    +0.000 A 
BRANCH  31  33
ATOM     33  N   UNL     1       1.022   9.260  21.920  0.00  0.00    +0.000 N 
ATOM     34  O   UNL     1       1.949   9.590  22.673  0.00  0.00    +0.000 OA
ATOM     35  O   UNL     1      -0.184   9.483  22.102  0.00  0.00    +0.000 OA
ENDBRANCH  31  33
ENDBRANCH  25  27
ENDBRANCH   1  24
TORSDOF 6
ENDMDL
MODEL 5
REMARK VINA RESULT:      -8.3      4.239      8.046
REMARK  Name = 
REMARK  6 active torsions:
REMARK  status: ('A' for Active; 'I' for Inactive)
REMARK    1  A    between atoms: C_2  and  C_13
REMARK    2  A    between atoms: N_3  and  C_4
REMARK    3  A    between atoms: C_8  and  N_9
REMARK    4  A    between atoms: C_18  and  C_20
REMARK    5  A    between atoms: C_22  and  C_23
REMARK    6  A    between atoms: C_28  and  C_29
REMARK                            x       y       z     vdW  Elec       q    Type
REMARK                         _______ _______ _______ _____ _____    ______ ____
ROOT
ATOM      1  C   UNL     1       1.724   2.614  20.424  0.00  0.00    +0.000 C 
ATOM      2  C   UNL     1       2.886   2.508  21.419  0.00  0.00    +0.000 C 
ATOM      3  C   UNL     1       4.220   2.945  20.832  0.00  0.00    +0.000 C 
ATOM      4  C   UNL     1       4.472   2.344  19.454  0.00  0.00    +0.000 C 
ATOM      5  N   UNL     1       3.330   2.528  18.542  0.00  0.00    +0.000 N 
ATOM      6  C   UNL     1       3.307   3.086  17.249  0.00  0.00    +0.000 C 
ATOM      7  O   UNL     1       2.268   3.192  16.602  0.00  0.00    +0.000 OA
ATOM      8  C   UNL     1       2.066   1.995  19.071  0.00  0.00    +0.000 C 
ENDROOT
BRANCH   6   9
ATOM      9  C   UNL     1       4.517   3.728  16.668  0.00  0.00    +0.000 A 
ATOM     10  C   UNL     1       5.293   4.618  17.403  0.00  0.00    +0.000 A 
ATOM     11  C   UNL     1       6.224   5.441  16.762  0.00  0.00    +0.000 A 
ATOM     12  C   UNL     1       6.525   5.208  15.416  0.00  0.00    +0.000 A 
ATOM     13  C   UNL     1       5.883   4.190  14.696  0.00  0.00    +0.000 A 
ATOM     14  C   UNL     1       4.855   3.466  15.327  0.00  0.00    +0.000 A 
BRANCH  11  15
ATOM     15  C   UNL     1       6.828   6.618  17.488  0.00  0.00    +0.000 C 
ATOM     16  F   UNL     1       7.955   7.088  16.886  0.00  0.00    +0.000 F 
ATOM     17  F   UNL     1       5.979   7.669  17.594  0.00  0.00    +0.000 F 
ATOM     18  F   UNL     1       7.200   6.290  18.756  0.00  0.00    +0.000 F 
ENDBRANCH  11  15
BRANCH  13  19
ATOM     19  C   UNL     1       6.234   3.970  13.242  0.00  0.00    +0.000 C 
ATOM     20  F   UNL     1       6.741   2.729  13.002  0.00  0.00    +0.000 F 
ATOM     21  F   UNL     1       5.177   4.116  12.405  0.00  0.00    +0.000 F 
ATOM     22  F   UNL     1       7.195   4.837  12.838  0.00  0.00    +0.000 F 
ENDBRANCH  13  19
ENDBRANCH   6   9
BRANCH   1  24
ATOM     23  O   UNL     1      -0.023   4.191  20.076  0.00  0.00    +0.000 OA
ATOM     24  C   UNL     1       1.176   4.040  20.294  0.00  0.00    +0.000 C 
ATOM     25  N   UNL     1       2.099   5.061  20.448  0.00  0.00    +0.000 N 
ATOM     26  H   UNL     1       3.072   4.783  20.431  0.00  0.00    +0.000 HD
BRANCH  25  27
ATOM     27  C   UNL     1       1.837   6.449  20.391  0.00  0.00    +0.000 A 
ATOM     28  C   UNL     1       1.139   7.128  21.395  0.00  0.00    +0.000 A 
ATOM     29  C   UNL     1       0.831   8.486  21.287  0.00  0.00    +0.000 A 
ATOM     30  C   UNL     1       1.209   9.196  20.157  0.00  0.00    +0.000 A 
ATOM     31  C   UNL     1       1.923   8.526  19.165  0.00  0.00    +0.000 A 
ATOM     32  C   UNL     1       2.274   7.174  19.275  0.00  0.00    +0.000 A 
BRANCH  31  33
ATOM     33  N   UNL     1       2.203   9.248  17.949  0.00  0.00    +0.000 N 
ATOM     34  O   UNL     1       1.807  10.420  17.879  0.00  0.00    +0.000 OA
ATOM     35  O   UNL     1       2.775   8.613  17.051  0.00  0.00    +0.000 OA
ENDBRANCH  31  33
ENDBRANCH  25  27
ENDBRANCH   1  24
TORSDOF 6
ENDMDL
MODEL 6
REMARK VINA RESULT:      -8.3      4.470      8.129
REMARK  Name = 
REMARK  6 active torsions:
REMARK  status: ('A' for Active; 'I' for Inactive)
REMARK    1  A    between atoms: C_2  and  C_13
REMARK    2  A    between atoms: N_3  and  C_4
REMARK    3  A    between atoms: C_8  and  N_9
REMARK    4  A    between atoms: C_18  and  C_20
REMARK    5  A    between atoms: C_22  and  C_23
REMARK    6  A    between atoms: C_28  and  C_29
REMARK                            x       y       z     vdW  Elec       q    Type
REMARK                         _______ _______ _______ _____ _____    ______ ____
ROOT
ATOM      1  C   UNL     1       2.035   2.760  20.699  0.00  0.00    +0.000 C 
ATOM      2  C   UNL     1       3.206   1.985  21.314  0.00  0.00    +0.000 C 
ATOM      3  C   UNL     1       4.514   2.177  20.558  0.00  0.00    +0.000 C 
ATOM      4  C   UNL     1       4.340   2.028  19.051  0.00  0.00    +0.000 C 
ATOM      5  N   UNL     1       3.226   2.840  18.531  0.00  0.00    +0.000 N 
ATOM      6  C   UNL     1       3.226   3.781  17.482  0.00  0.00    +0.000 C 
ATOM      7  O   UNL     1       2.215   4.402  17.163  0.00  0.00    +0.000 OA
ATOM      8  C   UNL     1       1.941   2.561  19.189  0.00  0.00    +0.000 C 
ENDROOT
BRANCH   6   9
ATOM      9  C   UNL     1       4.493   4.190  16.818  0.00  0.00    +0.000 A 
ATOM     10  C   UNL     1       5.415   5.013  17.456  0.00  0.00    +0.000 A 
ATOM     11  C   UNL     1       6.430   5.638  16.724  0.00  0.00    +0.000 A 
ATOM     12  C   UNL     1       6.643   5.257  15.395  0.00  0.00    +0.000 A 
ATOM     13  C   UNL     1       5.835   4.290  14.780  0.00  0.00    +0.000 A 
ATOM     14  C   UNL     1       4.739   3.777  15.496  0.00  0.00    +0.000 A 
BRANCH  11  15
ATOM     15  C   UNL     1       7.224   6.767  17.333  0.00  0.00    +0.000 C 
ATOM     16  F   UNL     1       6.444   7.817  17.713  0.00  0.00    +0.000 F 
ATOM     17  F   UNL     1       7.927   6.391  18.428  0.00  0.00    +0.000 F 
ATOM     18  F   UNL     1       8.124   7.282  16.451  0.00  0.00    +0.000 F 
ENDBRANCH  11  15
BRANCH  13  19
ATOM     19  C   UNL     1       6.096   3.907  13.341  0.00  0.00    +0.000 C 
ATOM     20  F   UNL     1       4.991   4.027  12.553  0.00  0.00    +0.000 F 
ATOM     21  F   UNL     1       7.063   4.653  12.752  0.00  0.00    +0.000 F 
ATOM     22  F   UNL     1       6.468   2.607  13.244  0.00  0.00    +0.000 F 
ENDBRANCH  13  19
ENDBRANCH   6   9
BRANCH   1  24
ATOM     23  O   UNL     1       2.426   4.553  22.213  0.00  0.00    +0.000 OA
ATOM     24  C   UNL     1       2.023   4.241  21.097  0.00  0.00    +0.000 C 
ATOM     25  N   UNL     1       1.559   5.123  20.135  0.00  0.00    +0.000 N 
ATOM     26  H   UNL     1       1.086   4.705  19.344  0.00  0.00    +0.000 HD
BRANCH  25  27
ATOM     27  C   UNL     1       1.468   6.529  20.255  0.00  0.00    +0.000 A 
ATOM     28  C   UNL     1       0.918   7.157  21.378  0.00  0.00    +0.000 A 
ATOM     29  C   UNL     1       0.775   8.545  21.447  0.00  0.00    +0.000 A 
ATOM     30  C   UNL     1       1.172   9.338  20.381  0.00  0.00    +0.000 A 
ATOM     31  C   UNL     1       1.739   8.716  19.271  0.00  0.00    +0.000 A 
ATOM     32  C   UNL     1       1.926   7.329  19.200  0.00  0.00    +0.000 A 
BRANCH  31  33
ATOM     33  N   UNL     1       2.035   9.542  18.127  0.00  0.00    +0.000 N 
ATOM     34  O   UNL     1       2.465   8.976  17.112  0.00  0.00    +0.000 OA
ATOM     35  O   UNL     1       1.882  10.763  18.275  0.00  0.00    +0.000 OA
ENDBRANCH  31  33
ENDBRANCH  25  27
ENDBRANCH   1  24
TORSDOF 6
ENDMDL
MODEL 7
REMARK VINA RESULT:      -8.3      2.938      4.624
REMARK  Name = 
REMARK  6 active torsions:
REMARK  status: ('A' for Active; 'I' for Inactive)
REMARK    1  A    between atoms: C_2  and  C_13
REMARK    2  A    between atoms: N_3  and  C_4
REMARK    3  A    between atoms: C_8  and  N_9
REMARK    4  A    between atoms: C_18  and  C_20
REMARK    5  A    between atoms: C_22  and  C_23
REMARK    6  A    between atoms: C_28  and  C_29
REMARK                            x       y       z     vdW  Elec       q    Type
REMARK                         _______ _______ _______ _____ _____    ______ ____
ROOT
ATOM      1  C   UNL     1       2.913   2.371  18.864  0.00  0.00    +0.000 C 
ATOM      2  C   UNL     1       1.430   1.998  18.758  0.00  0.00    +0.000 C 
ATOM      3  C   UNL     1       0.499   3.191  18.923  0.00  0.00    +0.000 C 
ATOM      4  C   UNL     1       0.879   4.064  20.113  0.00  0.00    +0.000 C 
ATOM      5  N   UNL     1       2.309   4.418  20.117  0.00  0.00    +0.000 N 
ATOM      6  C   UNL     1       2.909   5.690  20.203  0.00  0.00    +0.000 C 
ATOM      7  O   UNL     1       4.128   5.840  20.179  0.00  0.00    +0.000 OA
ATOM      8  C   UNL     1       3.202   3.251  20.077  0.00  0.00    +0.000 C 
ENDROOT
BRANCH   6   9
ATOM      9  C   UNL     1       2.089   6.931  20.160  0.00  0.00    +0.000 A 
ATOM     10  C   UNL     1       1.962   7.679  18.995  0.00  0.00    +0.000 A 
ATOM     11  C   UNL     1       1.461   8.983  19.043  0.00  0.00    +0.000 A 
ATOM     12  C   UNL     1       0.886   9.448  20.231  0.00  0.00    +0.000 A 
ATOM     13  C   UNL     1       0.838   8.640  21.376  0.00  0.00    +0.000 A 
ATOM     14  C   UNL     1       1.468   7.384  21.339  0.00  0.00    +0.000 A 
BRANCH  11  15
ATOM     15  C   UNL     1       1.619   9.905  17.859  0.00  0.00    +0.000 C 
ATOM     16  F   UNL     1       2.185  11.099  18.191  0.00  0.00    +0.000 F 
ATOM     17  F   UNL     1       2.384   9.376  16.874  0.00  0.00    +0.000 F 
ATOM     18  F   UNL     1       0.418  10.213  17.297  0.00  0.00    +0.000 F 
ENDBRANCH  11  15
BRANCH  13  19
ATOM     19  C   UNL     1       0.209   9.178  22.642  0.00  0.00    +0.000 C 
ATOM     20  F   UNL     1      -0.931   8.519  22.988  0.00  0.00    +0.000 F 
ATOM     21  F   UNL     1       1.028   9.109  23.721  0.00  0.00    +0.000 F 
ATOM     22  F   UNL     1      -0.155  10.475  22.490  0.00  0.00    +0.000 F 
ENDBRANCH  13  19
ENDBRANCH   6   9
BRANCH   1  24
ATOM     23  O   UNL     1       2.712   3.134  16.619  0.00  0.00    +0.000 OA
ATOM     24  C   UNL     1       3.475   2.962  17.565  0.00  0.00    +0.000 C 
ATOM     25  N   UNL     1       4.826   3.270  17.574  0.00  0.00    +0.000 N 
ATOM     26  H   UNL     1       5.359   2.897  18.349  0.00  0.00    +0.000 HD
BRANCH  25  27
ATOM     27  C   UNL     1       5.568   3.836  16.512  0.00  0.00    +0.000 A 
ATOM     28  C   UNL     1       6.434   4.921  16.692  0.00  0.00    +0.000 A 
ATOM     29  C   UNL     1       7.106   5.510  15.618  0.00  0.00    +0.000 A 
ATOM     30  C   UNL     1       6.914   5.030  14.331  0.00  0.00    +0.000 A 
ATOM     31  C   UNL     1       6.067   3.938  14.153  0.00  0.00    +0.000 A 
ATOM     32  C   UNL     1       5.416   3.310  15.223  0.00  0.00    +0.000 A 
BRANCH  31  33
ATOM     33  N   UNL     1       5.788   3.529  12.799  0.00  0.00    +0.000 N 
ATOM     34  O   UNL     1       4.601   3.516  12.442  0.00  0.00    +0.000 OA
ATOM     35  O   UNL     1       6.761   3.173  12.119  0.00  0.00    +0.000 OA
ENDBRANCH  31  33
ENDBRANCH  25  27
ENDBRANCH   1  24
TORSDOF 6
ENDMDL
MODEL 8
REMARK VINA RESULT:      -8.2      4.331      8.495
REMARK  Name = 
REMARK  6 active torsions:
REMARK  status: ('A' for Active; 'I' for Inactive)
REMARK    1  A    between atoms: C_2  and  C_13
REMARK    2  A    between atoms: N_3  and  C_4
REMARK    3  A    between atoms: C_8  and  N_9
REMARK    4  A    between atoms: C_18  and  C_20
REMARK    5  A    between atoms: C_22  and  C_23
REMARK    6  A    between atoms: C_28  and  C_29
REMARK                            x       y       z     vdW  Elec       q    Type
REMARK                         _______ _______ _______ _____ _____    ______ ____
ROOT
ATOM      1  C   UNL     1       1.784   2.839  20.351  0.00  0.00    +0.000 C 
ATOM      2  C   UNL     1       2.948   2.710  21.340  0.00  0.00    +0.000 C 
ATOM      3  C   UNL     1       4.292   3.091  20.736  0.00  0.00    +0.000 C 
ATOM      4  C   UNL     1       4.513   2.458  19.366  0.00  0.00    +0.000 C 
ATOM      5  N   UNL     1       3.371   2.667  18.460  0.00  0.00    +0.000 N 
ATOM      6  C   UNL     1       3.358   3.204  17.157  0.00  0.00    +0.000 C 
ATOM      7  O   UNL     1       2.318   3.335  16.516  0.00  0.00    +0.000 OA
ATOM      8  C   UNL     1       2.094   2.187  19.006  0.00  0.00    +0.000 C 
ENDROOT
BRANCH   6   9
ATOM      9  C   UNL     1       4.585   3.794  16.557  0.00  0.00    +0.000 A 
ATOM     10  C   UNL     1       5.386   4.684  17.265  0.00  0.00    +0.000 A 
ATOM     11  C   UNL     1       6.339   5.461  16.600  0.00  0.00    +0.000 A 
ATOM     12  C   UNL     1       6.632   5.180  15.261  0.00  0.00    +0.000 A 
ATOM     13  C   UNL     1       5.961   4.159  14.573  0.00  0.00    +0.000 A 
ATOM     14  C   UNL     1       4.914   3.483  15.225  0.00  0.00    +0.000 A 
BRANCH  11  15
ATOM     15  C   UNL     1       6.977   6.641  17.290  0.00  0.00    +0.000 C 
ATOM     16  F   UNL     1       6.110   7.676  17.477  0.00  0.00    +0.000 F 
ATOM     17  F   UNL     1       7.480   6.334  18.510  0.00  0.00    +0.000 F 
ATOM     18  F   UNL     1       8.007   7.154  16.562  0.00  0.00    +0.000 F 
ENDBRANCH  11  15
BRANCH  13  19
ATOM     19  C   UNL     1       6.305   3.886  13.125  0.00  0.00    +0.000 C 
ATOM     20  F   UNL     1       7.262   4.726  12.642  0.00  0.00    +0.000 F 
ATOM     21  F   UNL     1       6.761   2.628  12.908  0.00  0.00    +0.000 F 
ATOM     22  F   UNL     1       5.225   4.072  12.327  0.00  0.00    +0.000 F 
ENDBRANCH  13  19
ENDBRANCH   6   9
BRANCH   1  24
ATOM     23  O   UNL     1       0.098   4.517  20.412  0.00  0.00    +0.000 OA
ATOM     24  C   UNL     1       1.284   4.281  20.200  0.00  0.00    +0.000 C 
ATOM     25  N   UNL     1       2.238   5.219  19.843  0.00  0.00    +0.000 N 
ATOM     26  H   UNL     1       3.122   4.849  19.518  0.00  0.00    +0.000 HD
BRANCH  25  27
ATOM     27  C   UNL     1       2.030   6.606  19.661  0.00  0.00    +0.000 A 
ATOM     28  C   UNL     1       2.253   7.249  18.438  0.00  0.00    +0.000 A 
ATOM     29  C   UNL     1       2.107   8.631  18.298  0.00  0.00    +0.000 A 
ATOM     30  C   UNL     1       1.743   9.406  19.389  0.00  0.00    +0.000 A 
ATOM     31  C   UNL     1       1.501   8.765  20.602  0.00  0.00    +0.000 A 
ATOM     32  C   UNL     1       1.604   7.375  20.752  0.00  0.00    +0.000 A 
BRANCH  31  33
ATOM     33  N   UNL     1       1.241   9.596  21.751  0.00  0.00    +0.000 N 
ATOM     34  O   UNL     1       0.571  10.623  21.570  0.00  0.00    +0.000 OA
ATOM     35  O   UNL     1       1.756   9.237  22.819  0.00  0.00    +0.000 OA
ENDBRANCH  31  33
ENDBRANCH  25  27
ENDBRANCH   1  24
TORSDOF 6
ENDMDL
MODEL 9
REMARK VINA RESULT:      -8.2      5.649      8.328
REMARK  Name = 
REMARK  6 active torsions:
REMARK  status: ('A' for Active; 'I' for Inactive)
REMARK    1  A    between atoms: C_2  and  C_13
REMARK    2  A    between atoms: N_3  and  C_4
REMARK    3  A    between atoms: C_8  and  N_9
REMARK    4  A    between atoms: C_18  and  C_20
REMARK    5  A    between atoms: C_22  and  C_23
REMARK    6  A    between atoms: C_28  and  C_29
REMARK                            x       y       z     vdW  Elec       q    Type
REMARK                         _______ _______ _______ _____ _____    ______ ____
ROOT
ATOM      1  C   UNL     1       1.609   9.282  21.820  0.00  0.00    +0.000 C 
ATOM      2  C   UNL     1       0.559   9.037  22.910  0.00  0.00    +0.000 C 
ATOM      3  C   UNL     1      -0.850   9.424  22.482  0.00  0.00    +0.000 C 
ATOM      4  C   UNL     1      -0.897  10.793  21.812  0.00  0.00    +0.000 C 
ATOM      5  N   UNL     1       0.110  10.933  20.746  0.00  0.00    +0.000 N 
ATOM      6  C   UNL     1      -0.066  11.323  19.404  0.00  0.00    +0.000 C 
ATOM      7  O   UNL     1       0.872  11.382  18.613  0.00  0.00    +0.000 OA
ATOM      8  C   UNL     1       1.483  10.672  21.200  0.00  0.00    +0.000 C 
ENDROOT
BRANCH   6   9
ATOM      9  C   UNL     1      -1.426  11.523  18.834  0.00  0.00    +0.000 A 
ATOM     10  C   UNL     1      -2.421  12.187  19.544  0.00  0.00    +0.000 A 
ATOM     11  C   UNL     1      -3.757  12.095  19.142  0.00  0.00    +0.000 A 
ATOM     12  C   UNL     1      -4.057  11.517  17.903  0.00  0.00    +0.000 A 
ATOM     13  C   UNL     1      -3.045  11.001  17.082  0.00  0.00    +0.000 A 
ATOM     14  C   UNL     1      -1.726  10.984  17.569  0.00  0.00    +0.000 A 
BRANCH  11  15
ATOM     15  C   UNL     1      -4.864  12.532  20.070  0.00  0.00    +0.000 C 
ATOM     16  F   UNL     1      -5.988  11.773  19.946  0.00  0.00    +0.000 F 
ATOM     17  F   UNL     1      -4.509  12.487  21.377  0.00  0.00    +0.000 F 
ATOM     18  F   UNL     1      -5.257  13.811  19.817  0.00  0.00    +0.000 F 
ENDBRANCH  11  15
BRANCH  13  19
ATOM     19  C   UNL     1      -3.409  10.382  15.751  0.00  0.00    +0.000 C 
ATOM     20  F   UNL     1      -2.671  10.876  14.718  0.00  0.00    +0.000 F 
ATOM     21  F   UNL     1      -3.247   9.035  15.721  0.00  0.00    +0.000 F 
ATOM     22  F   UNL     1      -4.700  10.644  15.430  0.00  0.00    +0.000 F 
ENDBRANCH  13  19
ENDBRANCH   6   9
BRANCH   1  24
ATOM     23  O   UNL     1       1.526   8.478  19.583  0.00  0.00    +0.000 OA
ATOM     24  C   UNL     1       1.648   8.171  20.764  0.00  0.00    +0.000 C 
ATOM     25  N   UNL     1       1.833   6.885  21.245  0.00  0.00    +0.000 N 
ATOM     26  H   UNL     1       1.725   6.767  22.244  0.00  0.00    +0.000 HD
BRANCH  25  27
ATOM     27  C   UNL     1       1.921   5.703  20.475  0.00  0.00    +0.000 A 
ATOM     28  C   UNL     1       0.877   4.774  20.396  0.00  0.00    +0.000 A 
ATOM     29  C   UNL     1       1.009   3.578  19.685  0.00  0.00    +0.000 A 
ATOM     30  C   UNL     1       2.201   3.280  19.043  0.00  0.00    +0.000 A 
ATOM     31  C   UNL     1       3.234   4.213  19.103  0.00  0.00    +0.000 A 
ATOM     32  C   UNL     1       3.106   5.434  19.779  0.00  0.00    +0.000 A 
BRANCH  31  33
ATOM     33  N   UNL     1       4.503   3.835  18.532  0.00  0.00    +0.000 N 
ATOM     34  O   UNL     1       5.506   3.949  19.249  0.00  0.00    +0.000 OA
ATOM     35  O   UNL     1       4.487   3.475  17.346  0.00  0.00    +0.000 OA
ENDBRANCH  31  33
ENDBRANCH  25  27
ENDBRANCH   1  24
TORSDOF 6
ENDMDL
