MODEL 1
REMARK VINA RESULT:      -7.6      0.000      0.000
REMARK  Name = 
REMARK  7 active torsions:
REMARK  status: ('A' for Active; 'I' for Inactive)
REMARK    1  A    between atoms: C_1  and  C_2
REMARK    2  A    between atoms: C_2  and  C_3
REMARK    3  A    between atoms: C_3  and  S_4
REMARK    4  A    between atoms: S_4  and  C_5
REMARK    5  A    between atoms: N_12  and  C_13
REMARK    6  A    between atoms: C_13  and  C_14
REMARK    7  A    between atoms: C_20  and  C_21
REMARK                            x       y       z     vdW  Elec       q    Type
REMARK                         _______ _______ _______ _____ _____    ______ ____
ROOT
ATOM      1  C   UNL     1       6.314   5.183  15.386  0.00  0.00    +0.000 A 
ATOM      2  N   UNL     1       7.190   6.071  15.894  0.00  0.00    +0.000 NA
ATOM      3  C   UNL     1       6.786   6.722  16.995  0.00  0.00    +0.000 A 
ATOM      4 CL   UNL     1       7.949   7.795  17.662  0.00  0.00    +0.000 Cl
ATOM      5  C   UNL     1       5.560   6.543  17.565  0.00  0.00    +0.000 A 
ATOM      6  C   UNL     1       4.772   5.572  16.986  0.00  0.00    +0.000 A 
ATOM      7  N   UNL     1       5.112   4.872  15.903  0.00  0.00    +0.000 NA
ATOM      8  N   UNL     1       3.630   5.422  17.753  0.00  0.00    +0.000 N 
ATOM      9  C   UNL     1       3.594   6.555  18.660  0.00  0.00    +0.000 C 
ATOM     10  N   UNL     1       4.997   7.071  18.770  0.00  0.00    +0.000 N 
ATOM     11  H   UNL     1       5.456   6.582  19.537  0.00  0.00    +0.000 HD
ENDROOT
BRANCH   9  12
ATOM     12  C   UNL     1       2.663   7.734  18.143  0.00  0.00    +0.000 C 
ATOM     13  O   UNL     1       2.570   8.020  16.944  0.00  0.00    +0.000 OA
ATOM     14  N   UNL     1       1.922   8.426  19.104  0.00  0.00    +0.000 N 
ATOM     15  C   UNL     1       1.896   8.118  20.537  0.00  0.00    +0.000 C 
ATOM     16  C   UNL     1       0.454   8.155  21.050  0.00  0.00    +0.000 C 
ATOM     17  O   UNL     1      -0.156   9.425  20.778  0.00  0.00    +0.000 OA
ATOM     18  C   UNL     1      -0.181   9.690  19.365  0.00  0.00    +0.000 C 
ATOM     19  C   UNL     1       1.229   9.671  18.763  0.00  0.00    +0.000 C 
ENDBRANCH   9  12
BRANCH   1  20
ATOM     20  S   UNL     1       6.817   4.330  13.916  0.00  0.00    +0.000 S 
BRANCH  20  21
ATOM     21  C   UNL     1       5.181   3.754  13.362  0.00  0.00    +0.000 C 
BRANCH  21  23
ATOM     22  C   UNL     1       4.016   3.249  11.180  0.00  0.00    +0.000 C 
ATOM     23  C   UNL     1       5.310   3.134  11.973  0.00  0.00    +0.000 C 
ENDBRANCH  21  23
ENDBRANCH  20  21
ENDBRANCH   1  20
BRANCH   8  24
ATOM     24  C   UNL     1       2.592   4.446  17.592  0.00  0.00    +0.000 C 
BRANCH  24  25
ATOM     25  C   UNL     1       2.310   3.748  18.912  0.00  0.00    +0.000 A 
ATOM     26  C   UNL     1       3.329   3.121  19.641  0.00  0.00    +0.000 A 
ATOM     27  C   UNL     1       3.056   2.509  20.867  0.00  0.00    +0.000 A 
ATOM     28  C   UNL     1       1.760   2.512  21.382  0.00  0.00    +0.000 A 
ATOM     29  C   UNL     1       0.734   3.113  20.657  0.00  0.00    +0.000 A 
ATOM     30  C   UNL     1       1.003   3.719  19.427  0.00  0.00    +0.000 A 
ENDBRANCH  24  25
ENDBRANCH   8  24
TORSDOF 6
ENDMDL
MODEL 2
REMARK VINA RESULT:      -7.1      3.213      6.780
REMARK  Name = 
REMARK  7 active torsions:
REMARK  status: ('A' for Active; 'I' for Inactive)
REMARK    1  A    between atoms: C_1  and  C_2
REMARK    2  A    between atoms: C_2  and  C_3
REMARK    3  A    between atoms: C_3  and  S_4
REMARK    4  A    between atoms: S_4  and  C_5
REMARK    5  A    between atoms: N_12  and  C_13
REMARK    6  A    between atoms: C_13  and  C_14
REMARK    7  A    between atoms: C_20  and  C_21
REMARK                            x       y       z     vdW  Elec       q    Type
REMARK                         _______ _______ _______ _____ _____    ______ ____
ROOT
ATOM      1  C   UNL     1       8.011   8.053  17.895  0.00  0.00    +0.000 A 
ATOM      2  N   UNL     1       8.462   7.392  18.979  0.00  0.00    +0.000 NA
ATOM      3  C   UNL     1       7.917   6.185  19.193  0.00  0.00    +0.000 A 
ATOM      4 CL   UNL     1       8.559   5.335  20.538  0.00  0.00    +0.000 Cl
ATOM      5  C   UNL     1       6.941   5.652  18.402  0.00  0.00    +0.000 A 
ATOM      6  C   UNL     1       6.599   6.399  17.296  0.00  0.00    +0.000 A 
ATOM      7  N   UNL     1       7.110   7.597  17.008  0.00  0.00    +0.000 NA
ATOM      8  N   UNL     1       5.706   5.667  16.534  0.00  0.00    +0.000 N 
ATOM      9  C   UNL     1       5.266   4.562  17.367  0.00  0.00    +0.000 C 
ATOM     10  N   UNL     1       6.316   4.365  18.419  0.00  0.00    +0.000 N 
ATOM     11  H   UNL     1       7.005   3.707  18.060  0.00  0.00    +0.000 HD
ENDROOT
BRANCH   9  12
ATOM     12  C   UNL     1       3.877   4.842  18.086  0.00  0.00    +0.000 C 
ATOM     13  O   UNL     1       3.338   5.953  18.063  0.00  0.00    +0.000 OA
ATOM     14  N   UNL     1       3.267   3.762  18.730  0.00  0.00    +0.000 N 
ATOM     15  C   UNL     1       3.778   2.389  18.750  0.00  0.00    +0.000 C 
ATOM     16  C   UNL     1       2.636   1.405  18.483  0.00  0.00    +0.000 C 
ATOM     17  O   UNL     1       1.575   1.581  19.433  0.00  0.00    +0.000 OA
ATOM     18  C   UNL     1       1.038   2.913  19.363  0.00  0.00    +0.000 C 
ATOM     19  C   UNL     1       2.120   3.970  19.618  0.00  0.00    +0.000 C 
ENDBRANCH   9  12
BRANCH   1  20
ATOM     20  S   UNL     1       8.700   9.660  17.609  0.00  0.00    +0.000 S 
BRANCH  20  21
ATOM     21  C   UNL     1       9.240  10.032  19.309  0.00  0.00    +0.000 C 
BRANCH  21  23
ATOM     22  C   UNL     1      10.367  11.804  20.709  0.00  0.00    +0.000 C 
ATOM     23  C   UNL     1      10.088  11.302  19.300  0.00  0.00    +0.000 C 
ENDBRANCH  21  23
ENDBRANCH  20  21
ENDBRANCH   1  20
BRANCH   8  24
ATOM     24  C   UNL     1       5.178   6.003  15.244  0.00  0.00    +0.000 C 
BRANCH  24  25
ATOM     25  C   UNL     1       5.815   5.140  14.168  0.00  0.00    +0.000 A 
ATOM     26  C   UNL     1       5.112   4.093  13.558  0.00  0.00    +0.000 A 
ATOM     27  C   UNL     1       5.705   3.329  12.549  0.00  0.00    +0.000 A 
ATOM     28  C   UNL     1       7.010   3.599  12.136  0.00  0.00    +0.000 A 
ATOM     29  C   UNL     1       7.727   4.623  12.750  0.00  0.00    +0.000 A 
ATOM     30  C   UNL     1       7.139   5.384  13.765  0.00  0.00    +0.000 A 
ENDBRANCH  24  25
ENDBRANCH   8  24
TORSDOF 6
ENDMDL
MODEL 3
REMARK VINA RESULT:      -7.1      3.134      6.614
REMARK  Name = 
REMARK  7 active torsions:
REMARK  status: ('A' for Active; 'I' for Inactive)
REMARK    1  A    between atoms: C_1  and  C_2
REMARK    2  A    between atoms: C_2  and  C_3
REMARK    3  A    between atoms: C_3  and  S_4
REMARK    4  A    between atoms: S_4  and  C_5
REMARK    5  A    between atoms: N_12  and  C_13
REMARK    6  A    between atoms: C_13  and  C_14
REMARK    7  A    between atoms: C_20  and  C_21
REMARK                            x       y       z     vdW  Elec       q    Type
REMARK                         _______ _______ _______ _____ _____    ______ ____
ROOT
ATOM      1  C   UNL     1       7.998   8.049  17.873  0.00  0.00    +0.000 A 
ATOM      2  N   UNL     1       8.443   7.383  18.956  0.00  0.00    +0.000 NA
ATOM      3  C   UNL     1       7.894   6.177  19.164  0.00  0.00    +0.000 A 
ATOM      4 CL   UNL     1       8.531   5.320  20.508  0.00  0.00    +0.000 Cl
ATOM      5  C   UNL     1       6.920   5.649  18.368  0.00  0.00    +0.000 A 
ATOM      6  C   UNL     1       6.583   6.401  17.263  0.00  0.00    +0.000 A 
ATOM      7  N   UNL     1       7.098   7.599  16.981  0.00  0.00    +0.000 NA
ATOM      8  N   UNL     1       5.690   5.674  16.496  0.00  0.00    +0.000 N 
ATOM      9  C   UNL     1       5.245   4.567  17.324  0.00  0.00    +0.000 C 
ATOM     10  N   UNL     1       6.291   4.364  18.378  0.00  0.00    +0.000 N 
ATOM     11  H   UNL     1       6.980   3.705  18.019  0.00  0.00    +0.000 HD
ENDROOT
BRANCH   9  12
ATOM     12  C   UNL     1       3.855   4.848  18.039  0.00  0.00    +0.000 C 
ATOM     13  O   UNL     1       3.307   5.955  18.000  0.00  0.00    +0.000 OA
ATOM     14  N   UNL     1       3.253   3.773  18.701  0.00  0.00    +0.000 N 
ATOM     15  C   UNL     1       3.775   2.404  18.741  0.00  0.00    +0.000 C 
ATOM     16  C   UNL     1       2.639   1.408  18.492  0.00  0.00    +0.000 C 
ATOM     17  O   UNL     1       1.578   1.591  19.440  0.00  0.00    +0.000 OA
ATOM     18  C   UNL     1       1.031   2.918  19.349  0.00  0.00    +0.000 C 
ATOM     19  C   UNL     1       2.106   3.987  19.586  0.00  0.00    +0.000 C 
ENDBRANCH   9  12
BRANCH   1  20
ATOM     20  S   UNL     1       8.691   9.656  17.595  0.00  0.00    +0.000 S 
BRANCH  20  21
ATOM     21  C   UNL     1       9.167  10.047  19.309  0.00  0.00    +0.000 C 
BRANCH  21  23
ATOM     22  C   UNL     1      10.550  11.605  17.882  0.00  0.00    +0.000 C 
ATOM     23  C   UNL     1      10.230  11.144  19.297  0.00  0.00    +0.000 C 
ENDBRANCH  21  23
ENDBRANCH  20  21
ENDBRANCH   1  20
BRANCH   8  24
ATOM     24  C   UNL     1       5.167   6.016  15.206  0.00  0.00    +0.000 C 
BRANCH  24  25
ATOM     25  C   UNL     1       5.824   5.173  14.125  0.00  0.00    +0.000 A 
ATOM     26  C   UNL     1       7.130   5.431  13.690  0.00  0.00    +0.000 A 
ATOM     27  C   UNL     1       7.729   4.628  12.716  0.00  0.00    +0.000 A 
ATOM     28  C   UNL     1       7.029   3.556  12.161  0.00  0.00    +0.000 A 
ATOM     29  C   UNL     1       5.722   3.302  12.569  0.00  0.00    +0.000 A 
ATOM     30  C   UNL     1       5.119   4.110  13.538  0.00  0.00    +0.000 A 
ENDBRANCH  24  25
ENDBRANCH   8  24
TORSDOF 6
ENDMDL
MODEL 4
REMARK VINA RESULT:      -6.9      0.956      1.017
REMARK  Name = 
REMARK  7 active torsions:
REMARK  status: ('A' for Active; 'I' for Inactive)
REMARK    1  A    between atoms: C_1  and  C_2
REMARK    2  A    between atoms: C_2  and  C_3
REMARK    3  A    between atoms: C_3  and  S_4
REMARK    4  A    between atoms: S_4  and  C_5
REMARK    5  A    between atoms: N_12  and  C_13
REMARK    6  A    between atoms: C_13  and  C_14
REMARK    7  A    between atoms: C_20  and  C_21
REMARK                            x       y       z     vdW  Elec       q    Type
REMARK                         _______ _______ _______ _____ _____    ______ ____
ROOT
ATOM      1  C   UNL     1       5.596   4.916  15.524  0.00  0.00    +0.000 A 
ATOM      2  N   UNL     1       6.560   5.790  15.874  0.00  0.00    +0.000 NA
ATOM      3  C   UNL     1       6.285   6.564  16.935  0.00  0.00    +0.000 A 
ATOM      4 CL   UNL     1       7.556   7.618  17.403  0.00  0.00    +0.000 Cl
ATOM      5  C   UNL     1       5.101   6.517  17.612  0.00  0.00    +0.000 A 
ATOM      6  C   UNL     1       4.216   5.548  17.192  0.00  0.00    +0.000 A 
ATOM      7  N   UNL     1       4.426   4.731  16.159  0.00  0.00    +0.000 NA
ATOM      8  N   UNL     1       3.135   5.542  18.056  0.00  0.00    +0.000 N 
ATOM      9  C   UNL     1       3.236   6.754  18.849  0.00  0.00    +0.000 C 
ATOM     10  N   UNL     1       4.671   7.187  18.800  0.00  0.00    +0.000 N 
ATOM     11  H   UNL     1       5.163   6.743  19.574  0.00  0.00    +0.000 HD
ENDROOT
BRANCH   9  12
ATOM     12  C   UNL     1       2.333   7.936  18.293  0.00  0.00    +0.000 C 
ATOM     13  O   UNL     1       2.238   8.178  17.084  0.00  0.00    +0.000 OA
ATOM     14  N   UNL     1       1.619   8.685  19.232  0.00  0.00    +0.000 N 
ATOM     15  C   UNL     1       1.596   8.434  20.676  0.00  0.00    +0.000 C 
ATOM     16  C   UNL     1       0.160   8.529  21.197  0.00  0.00    +0.000 C 
ATOM     17  O   UNL     1      -0.418   9.804  20.881  0.00  0.00    +0.000 OA
ATOM     18  C   UNL     1      -0.448  10.015  19.458  0.00  0.00    +0.000 C 
ATOM     19  C   UNL     1       0.957   9.934  18.847  0.00  0.00    +0.000 C 
ENDBRANCH   9  12
BRANCH   1  20
ATOM     20  S   UNL     1       5.928   3.901  14.109  0.00  0.00    +0.000 S 
BRANCH  20  21
ATOM     21  C   UNL     1       7.368   4.807  13.457  0.00  0.00    +0.000 C 
BRANCH  21  23
ATOM     22  C   UNL     1       7.041   3.255  11.493  0.00  0.00    +0.000 C 
ATOM     23  C   UNL     1       7.403   4.665  11.937  0.00  0.00    +0.000 C 
ENDBRANCH  21  23
ENDBRANCH  20  21
ENDBRANCH   1  20
BRANCH   8  24
ATOM     24  C   UNL     1       2.034   4.623  18.071  0.00  0.00    +0.000 C 
BRANCH  24  25
ATOM     25  C   UNL     1       2.071   3.769  19.327  0.00  0.00    +0.000 A 
ATOM     26  C   UNL     1       3.237   3.102  19.724  0.00  0.00    +0.000 A 
ATOM     27  C   UNL     1       3.260   2.345  20.898  0.00  0.00    +0.000 A 
ATOM     28  C   UNL     1       2.118   2.242  21.692  0.00  0.00    +0.000 A 
ATOM     29  C   UNL     1       0.946   2.882  21.297  0.00  0.00    +0.000 A 
ATOM     30  C   UNL     1       0.918   3.634  20.119  0.00  0.00    +0.000 A 
ENDBRANCH  24  25
ENDBRANCH   8  24
TORSDOF 6
ENDMDL
MODEL 5
REMARK VINA RESULT:      -6.8      3.464      7.393
REMARK  Name = 
REMARK  7 active torsions:
REMARK  status: ('A' for Active; 'I' for Inactive)
REMARK    1  A    between atoms: C_1  and  C_2
REMARK    2  A    between atoms: C_2  and  C_3
REMARK    3  A    between atoms: C_3  and  S_4
REMARK    4  A    between atoms: S_4  and  C_5
REMARK    5  A    between atoms: N_12  and  C_13
REMARK    6  A    between atoms: C_13  and  C_14
REMARK    7  A    between atoms: C_20  and  C_21
REMARK                            x       y       z     vdW  Elec       q    Type
REMARK                         _______ _______ _______ _____ _____    ______ ____
ROOT
ATOM      1  C   UNL     1       0.968   8.827  21.200  0.00  0.00    +0.000 A 
ATOM      2  N   UNL     1       1.192   9.739  20.234  0.00  0.00    +0.000 NA
ATOM      3  C   UNL     1       1.754   9.270  19.110  0.00  0.00    +0.000 A 
ATOM      4 CL   UNL     1       1.962  10.438  17.870  0.00  0.00    +0.000 Cl
ATOM      5  C   UNL     1       2.121   7.967  18.942  0.00  0.00    +0.000 A 
ATOM      6  C   UNL     1       1.796   7.120  19.980  0.00  0.00    +0.000 A 
ATOM      7  N   UNL     1       1.220   7.509  21.118  0.00  0.00    +0.000 NA
ATOM      8  N   UNL     1       2.109   5.827  19.602  0.00  0.00    +0.000 N 
ATOM      9  C   UNL     1       2.930   5.935  18.409  0.00  0.00    +0.000 C 
ATOM     10  N   UNL     1       2.641   7.276  17.802  0.00  0.00    +0.000 N 
ATOM     11  H   UNL     1       1.863   7.170  17.153  0.00  0.00    +0.000 HD
ENDROOT
BRANCH   9  12
ATOM     12  C   UNL     1       4.486   5.845  18.716  0.00  0.00    +0.000 C 
ATOM     13  O   UNL     1       4.938   5.971  19.859  0.00  0.00    +0.000 OA
ATOM     14  N   UNL     1       5.332   5.587  17.634  0.00  0.00    +0.000 N 
ATOM     15  C   UNL     1       4.896   5.342  16.257  0.00  0.00    +0.000 C 
ATOM     16  C   UNL     1       5.662   4.152  15.673  0.00  0.00    +0.000 C 
ATOM     17  O   UNL     1       7.078   4.370  15.740  0.00  0.00    +0.000 OA
ATOM     18  C   UNL     1       7.506   4.548  17.102  0.00  0.00    +0.000 C 
ATOM     19  C   UNL     1       6.785   5.725  17.770  0.00  0.00    +0.000 C 
ENDBRANCH   9  12
BRANCH   1  20
ATOM     20  S   UNL     1       0.248   9.431  22.703  0.00  0.00    +0.000 S 
BRANCH  20  21
ATOM     21  C   UNL     1      -0.850  10.697  21.989  0.00  0.00    +0.000 C 
BRANCH  21  23
ATOM     22  C   UNL     1      -2.625  12.252  22.884  0.00  0.00    +0.000 C 
ATOM     23  C   UNL     1      -1.215  11.712  23.070  0.00  0.00    +0.000 C 
ENDBRANCH  21  23
ENDBRANCH  20  21
ENDBRANCH   1  20
BRANCH   8  24
ATOM     24  C   UNL     1       1.833   4.616  20.318  0.00  0.00    +0.000 C 
BRANCH  24  25
ATOM     25  C   UNL     1       2.457   3.425  19.610  0.00  0.00    +0.000 A 
ATOM     26  C   UNL     1       1.944   2.943  18.399  0.00  0.00    +0.000 A 
ATOM     27  C   UNL     1       2.548   1.865  17.748  0.00  0.00    +0.000 A 
ATOM     28  C   UNL     1       3.674   1.251  18.298  0.00  0.00    +0.000 A 
ATOM     29  C   UNL     1       4.181   1.706  19.512  0.00  0.00    +0.000 A 
ATOM     30  C   UNL     1       3.573   2.780  20.170  0.00  0.00    +0.000 A 
ENDBRANCH  24  25
ENDBRANCH   8  24
TORSDOF 6
ENDMDL
MODEL 6
REMARK VINA RESULT:      -6.7      3.613      7.136
REMARK  Name = 
REMARK  7 active torsions:
REMARK  status: ('A' for Active; 'I' for Inactive)
REMARK    1  A    between atoms: C_1  and  C_2
REMARK    2  A    between atoms: C_2  and  C_3
REMARK    3  A    between atoms: C_3  and  S_4
REMARK    4  A    between atoms: S_4  and  C_5
REMARK    5  A    between atoms: N_12  and  C_13
REMARK    6  A    between atoms: C_13  and  C_14
REMARK    7  A    between atoms: C_20  and  C_21
REMARK                            x       y       z     vdW  Elec       q    Type
REMARK                         _______ _______ _______ _____ _____    ______ ____
ROOT
ATOM      1  C   UNL     1       0.708  10.199  18.837  0.00  0.00    +0.000 A 
ATOM      2  N   UNL     1       0.344   9.921  20.104  0.00  0.00    +0.000 NA
ATOM      3  C   UNL     1       0.900   8.826  20.643  0.00  0.00    +0.000 A 
ATOM      4 CL   UNL     1       0.476   8.536  22.280  0.00  0.00    +0.000 Cl
ATOM      5  C   UNL     1       1.754   8.006  19.963  0.00  0.00    +0.000 A 
ATOM      6  C   UNL     1       2.089   8.421  18.693  0.00  0.00    +0.000 A 
ATOM      7  N   UNL     1       1.592   9.507  18.098  0.00  0.00    +0.000 NA
ATOM      8  N   UNL     1       3.055   7.564  18.195  0.00  0.00    +0.000 N 
ATOM      9  C   UNL     1       3.083   6.417  19.084  0.00  0.00    +0.000 C 
ATOM     10  N   UNL     1       2.503   6.866  20.392  0.00  0.00    +0.000 N 
ATOM     11  H   UNL     1       3.262   7.223  20.970  0.00  0.00    +0.000 HD
ENDROOT
BRANCH   9  12
ATOM     12  C   UNL     1       2.225   5.193  18.546  0.00  0.00    +0.000 C 
ATOM     13  O   UNL     1       1.250   5.351  17.803  0.00  0.00    +0.000 OA
ATOM     14  N   UNL     1       2.637   3.913  18.926  0.00  0.00    +0.000 N 
ATOM     15  C   UNL     1       3.820   3.610  19.735  0.00  0.00    +0.000 C 
ATOM     16  C   UNL     1       4.581   2.431  19.121  0.00  0.00    +0.000 C 
ATOM     17  O   UNL     1       3.730   1.284  18.990  0.00  0.00    +0.000 OA
ATOM     18  C   UNL     1       2.603   1.573  18.144  0.00  0.00    +0.000 C 
ATOM     19  C   UNL     1       1.780   2.749  18.685  0.00  0.00    +0.000 C 
ENDBRANCH   9  12
BRANCH   1  20
ATOM     20  S   UNL     1      -0.035  11.628  18.098  0.00  0.00    +0.000 S 
BRANCH  20  21
ATOM     21  C   UNL     1      -1.621  11.604  18.994  0.00  0.00    +0.000 C 
BRANCH  21  23
ATOM     22  C   UNL     1      -2.348  10.878  16.688  0.00  0.00    +0.000 C 
ATOM     23  C   UNL     1      -2.646  10.818  18.179  0.00  0.00    +0.000 C 
ENDBRANCH  21  23
ENDBRANCH  20  21
ENDBRANCH   1  20
BRANCH   8  24
ATOM     24  C   UNL     1       3.776   7.683  16.962  0.00  0.00    +0.000 C 
BRANCH  24  25
ATOM     25  C   UNL     1       4.979   6.755  16.958  0.00  0.00    +0.000 A 
ATOM     26  C   UNL     1       6.195   7.131  17.543  0.00  0.00    +0.000 A 
ATOM     27  C   UNL     1       7.282   6.254  17.556  0.00  0.00    +0.000 A 
ATOM     28  C   UNL     1       7.171   4.987  16.982  0.00  0.00    +0.000 A 
ATOM     29  C   UNL     1       5.975   4.609  16.377  0.00  0.00    +0.000 A 
ATOM     30  C   UNL     1       4.888   5.489  16.356  0.00  0.00    +0.000 A 
ENDBRANCH  24  25
ENDBRANCH   8  24
TORSDOF 6
ENDMDL
MODEL 7
REMARK VINA RESULT:      -6.6      3.613      6.834
REMARK  Name = 
REMARK  7 active torsions:
REMARK  status: ('A' for Active; 'I' for Inactive)
REMARK    1  A    between atoms: C_1  and  C_2
REMARK    2  A    between atoms: C_2  and  C_3
REMARK    3  A    between atoms: C_3  and  S_4
REMARK    4  A    between atoms: S_4  and  C_5
REMARK    5  A    between atoms: N_12  and  C_13
REMARK    6  A    between atoms: C_13  and  C_14
REMARK    7  A    between atoms: C_20  and  C_21
REMARK                            x       y       z     vdW  Elec       q    Type
REMARK                         _______ _______ _______ _____ _____    ______ ____
ROOT
ATOM      1  C   UNL     1       0.690  10.262  18.792  0.00  0.00    +0.000 A 
ATOM      2  N   UNL     1       0.389  10.068  20.091  0.00  0.00    +0.000 NA
ATOM      3  C   UNL     1       0.948   8.991  20.663  0.00  0.00    +0.000 A 
ATOM      4 CL   UNL     1       0.606   8.807  22.335  0.00  0.00    +0.000 Cl
ATOM      5  C   UNL     1       1.745   8.112  19.989  0.00  0.00    +0.000 A 
ATOM      6  C   UNL     1       2.021   8.444  18.681  0.00  0.00    +0.000 A 
ATOM      7  N   UNL     1       1.518   9.505  18.050  0.00  0.00    +0.000 NA
ATOM      8  N   UNL     1       2.938   7.534  18.184  0.00  0.00    +0.000 N 
ATOM      9  C   UNL     1       2.987   6.440  19.137  0.00  0.00    +0.000 C 
ATOM     10  N   UNL     1       2.489   6.979  20.445  0.00  0.00    +0.000 N 
ATOM     11  H   UNL     1       3.287   7.349  20.960  0.00  0.00    +0.000 HD
ENDROOT
BRANCH   9  12
ATOM     12  C   UNL     1       2.074   5.210  18.718  0.00  0.00    +0.000 C 
ATOM     13  O   UNL     1       1.672   5.055  17.559  0.00  0.00    +0.000 OA
ATOM     14  N   UNL     1       1.760   4.283  19.715  0.00  0.00    +0.000 N 
ATOM     15  C   UNL     1       2.248   4.327  21.096  0.00  0.00    +0.000 C 
ATOM     16  C   UNL     1       2.700   2.931  21.533  0.00  0.00    +0.000 C 
ATOM     17  O   UNL     1       1.638   1.978  21.384  0.00  0.00    +0.000 OA
ATOM     18  C   UNL     1       1.209   1.896  20.014  0.00  0.00    +0.000 C 
ATOM     19  C   UNL     1       0.737   3.258  19.490  0.00  0.00    +0.000 C 
ENDBRANCH   9  12
BRANCH   1  20
ATOM     20  S   UNL     1      -0.058  11.665  18.010  0.00  0.00    +0.000 S 
BRANCH  20  21
ATOM     21  C   UNL     1      -1.794  11.115  18.068  0.00  0.00    +0.000 C 
BRANCH  21  23
ATOM     22  C   UNL     1      -2.796  10.622  15.805  0.00  0.00    +0.000 C 
ATOM     23  C   UNL     1      -2.023  10.059  16.989  0.00  0.00    +0.000 C 
ENDBRANCH  21  23
ENDBRANCH  20  21
ENDBRANCH   1  20
BRANCH   8  24
ATOM     24  C   UNL     1       3.594   7.563  16.910  0.00  0.00    +0.000 C 
BRANCH  24  25
ATOM     25  C   UNL     1       4.857   6.718  16.944  0.00  0.00    +0.000 A 
ATOM     26  C   UNL     1       4.890   5.430  16.395  0.00  0.00    +0.000 A 
ATOM     27  C   UNL     1       6.068   4.679  16.409  0.00  0.00    +0.000 A 
ATOM     28  C   UNL     1       7.231   5.204  16.973  0.00  0.00    +0.000 A 
ATOM     29  C   UNL     1       7.206   6.475  17.541  0.00  0.00    +0.000 A 
ATOM     30  C   UNL     1       6.026   7.225  17.535  0.00  0.00    +0.000 A 
ENDBRANCH  24  25
ENDBRANCH   8  24
TORSDOF 6
ENDMDL
MODEL 8
REMARK VINA RESULT:      -6.5      3.602      7.475
REMARK  Name = 
REMARK  7 active torsions:
REMARK  status: ('A' for Active; 'I' for Inactive)
REMARK    1  A    between atoms: C_1  and  C_2
REMARK    2  A    between atoms: C_2  and  C_3
REMARK    3  A    between atoms: C_3  and  S_4
REMARK    4  A    between atoms: S_4  and  C_5
REMARK    5  A    between atoms: N_12  and  C_13
REMARK    6  A    between atoms: C_13  and  C_14
REMARK    7  A    between atoms: C_20  and  C_21
REMARK                            x       y       z     vdW  Elec       q    Type
REMARK                         _______ _______ _______ _____ _____    ______ ____
ROOT
ATOM      1  C   UNL     1       0.782  10.224  18.897  0.00  0.00    +0.000 A 
ATOM      2  N   UNL     1       0.412   9.934  20.159  0.00  0.00    +0.000 NA
ATOM      3  C   UNL     1       0.947   8.820  20.680  0.00  0.00    +0.000 A 
ATOM      4 CL   UNL     1       0.516   8.512  22.313  0.00  0.00    +0.000 Cl
ATOM      5  C   UNL     1       1.784   7.995  19.988  0.00  0.00    +0.000 A 
ATOM      6  C   UNL     1       2.128   8.423  18.724  0.00  0.00    +0.000 A 
ATOM      7  N   UNL     1       1.653   9.527  18.147  0.00  0.00    +0.000 NA
ATOM      8  N   UNL     1       3.077   7.555  18.213  0.00  0.00    +0.000 N 
ATOM      9  C   UNL     1       3.083   6.394  19.084  0.00  0.00    +0.000 C 
ATOM     10  N   UNL     1       2.511   6.833  20.399  0.00  0.00    +0.000 N 
ATOM     11  H   UNL     1       3.277   7.166  20.982  0.00  0.00    +0.000 HD
ENDROOT
BRANCH   9  12
ATOM     12  C   UNL     1       2.201   5.196  18.526  0.00  0.00    +0.000 C 
ATOM     13  O   UNL     1       1.235   5.384  17.779  0.00  0.00    +0.000 OA
ATOM     14  N   UNL     1       2.582   3.903  18.895  0.00  0.00    +0.000 N 
ATOM     15  C   UNL     1       3.753   3.563  19.707  0.00  0.00    +0.000 C 
ATOM     16  C   UNL     1       4.491   2.375  19.084  0.00  0.00    +0.000 C 
ATOM     17  O   UNL     1       3.616   1.249  18.935  0.00  0.00    +0.000 OA
ATOM     18  C   UNL     1       2.501   1.573  18.085  0.00  0.00    +0.000 C 
ATOM     19  C   UNL     1       1.701   2.760  18.635  0.00  0.00    +0.000 C 
ENDBRANCH   9  12
BRANCH   1  20
ATOM     20  S   UNL     1       0.067  11.679  18.181  0.00  0.00    +0.000 S 
BRANCH  20  21
ATOM     21  C   UNL     1      -1.625  11.498  18.828  0.00  0.00    +0.000 C 
BRANCH  21  23
ATOM     22  C   UNL     1      -3.404  12.698  20.159  0.00  0.00    +0.000 C 
ATOM     23  C   UNL     1      -1.937  12.672  19.755  0.00  0.00    +0.000 C 
ENDBRANCH  21  23
ENDBRANCH  20  21
ENDBRANCH   1  20
BRANCH   8  24
ATOM     24  C   UNL     1       3.801   7.680  16.982  0.00  0.00    +0.000 C 
BRANCH  24  25
ATOM     25  C   UNL     1       4.973   6.712  16.954  0.00  0.00    +0.000 A 
ATOM     26  C   UNL     1       4.865   5.449  16.360  0.00  0.00    +0.000 A 
ATOM     27  C   UNL     1       5.961   4.584  16.318  0.00  0.00    +0.000 A 
ATOM     28  C   UNL     1       7.182   4.969  16.872  0.00  0.00    +0.000 A 
ATOM     29  C   UNL     1       7.298   6.214  17.485  0.00  0.00    +0.000 A 
ATOM     30  C   UNL     1       6.199   7.077  17.535  0.00  0.00    +0.000 A 
ENDBRANCH  24  25
ENDBRANCH   8  24
TORSDOF 6
ENDMDL
MODEL 9
REMARK VINA RESULT:      -6.4      3.599      7.241
REMARK  Name = 
REMARK  7 active torsions:
REMARK  status: ('A' for Active; 'I' for Inactive)
REMARK    1  A    between atoms: C_1  and  C_2
REMARK    2  A    between atoms: C_2  and  C_3
REMARK    3  A    between atoms: C_3  and  S_4
REMARK    4  A    between atoms: S_4  and  C_5
REMARK    5  A    between atoms: N_12  and  C_13
REMARK    6  A    between atoms: C_13  and  C_14
REMARK    7  A    between atoms: C_20  and  C_21
REMARK                            x       y       z     vdW  Elec       q    Type
REMARK                         _______ _______ _______ _____ _____    ______ ____
ROOT
ATOM      1  C   UNL     1       0.860  10.286  18.877  0.00  0.00    +0.000 A 
ATOM      2  N   UNL     1       0.471  10.009  20.136  0.00  0.00    +0.000 NA
ATOM      3  C   UNL     1       0.977   8.886  20.667  0.00  0.00    +0.000 A 
ATOM      4 CL   UNL     1       0.524   8.594  22.296  0.00  0.00    +0.000 Cl
ATOM      5  C   UNL     1       1.804   8.041  19.986  0.00  0.00    +0.000 A 
ATOM      6  C   UNL     1       2.169   8.456  18.724  0.00  0.00    +0.000 A 
ATOM      7  N   UNL     1       1.723   9.568  18.138  0.00  0.00    +0.000 NA
ATOM      8  N   UNL     1       3.105   7.567  18.226  0.00  0.00    +0.000 N 
ATOM      9  C   UNL     1       3.077   6.409  19.102  0.00  0.00    +0.000 C 
ATOM     10  N   UNL     1       2.502   6.866  20.409  0.00  0.00    +0.000 N 
ATOM     11  H   UNL     1       3.269   7.185  20.999  0.00  0.00    +0.000 HD
ENDROOT
BRANCH   9  12
ATOM     12  C   UNL     1       2.176   5.228  18.539  0.00  0.00    +0.000 C 
ATOM     13  O   UNL     1       1.225   5.432  17.777  0.00  0.00    +0.000 OA
ATOM     14  N   UNL     1       2.521   3.929  18.922  0.00  0.00    +0.000 N 
ATOM     15  C   UNL     1       3.673   3.568  19.753  0.00  0.00    +0.000 C 
ATOM     16  C   UNL     1       4.392   2.359  19.149  0.00  0.00    +0.000 C 
ATOM     17  O   UNL     1       3.493   1.252  18.995  0.00  0.00    +0.000 OA
ATOM     18  C   UNL     1       2.399   1.596  18.128  0.00  0.00    +0.000 C 
ATOM     19  C   UNL     1       1.619   2.805  18.658  0.00  0.00    +0.000 C 
ENDBRANCH   9  12
BRANCH   1  20
ATOM     20  S   UNL     1       0.183  11.753  18.147  0.00  0.00    +0.000 S 
BRANCH  20  21
ATOM     21  C   UNL     1       0.655  12.944  19.443  0.00  0.00    +0.000 C 
BRANCH  21  23
ATOM     22  C   UNL     1       2.538  14.054  18.181  0.00  0.00    +0.000 C 
ATOM     23  C   UNL     1       2.161  13.189  19.375  0.00  0.00    +0.000 C 
ENDBRANCH  21  23
ENDBRANCH  20  21
ENDBRANCH   1  20
BRANCH   8  24
ATOM     24  C   UNL     1       3.844   7.671  17.002  0.00  0.00    +0.000 C 
BRANCH  24  25
ATOM     25  C   UNL     1       4.995   6.679  16.989  0.00  0.00    +0.000 A 
ATOM     26  C   UNL     1       4.862   5.411  16.408  0.00  0.00    +0.000 A 
ATOM     27  C   UNL     1       5.940   4.523  16.380  0.00  0.00    +0.000 A 
ATOM     28  C   UNL     1       7.167   4.888  16.935  0.00  0.00    +0.000 A 
ATOM     29  C   UNL     1       7.306   6.137  17.535  0.00  0.00    +0.000 A 
ATOM     30  C   UNL     1       6.226   7.024  17.571  0.00  0.00    +0.000 A 
ENDBRANCH  24  25
ENDBRANCH   8  24
TORSDOF 6
ENDMDL
