MODEL 1
REMARK VINA RESULT:      -8.8      0.000      0.000
REMARK  Name = 
REMARK  3 active torsions:
REMARK  status: ('A' for Active; 'I' for Inactive)
REMARK    1  A    between atoms: C_1  and  N_2
REMARK    2  A    between atoms: C_8  and  N_9
REMARK    3  A    between atoms: C_12  and  C_13
REMARK                            x       y       z     vdW  Elec       q    Type
REMARK                         _______ _______ _______ _____ _____    ______ ____
ROOT
ATOM      1  N   UNL     1       1.968   8.154  19.887  0.00  0.00    +0.000 N 
ATOM      2  C   UNL     1       2.101   6.742  20.228  0.00  0.00    +0.000 C 
ATOM      3  C   UNL     1       3.489   6.305  19.766  0.00  0.00    +0.000 C 
ATOM      4  C   UNL     1       3.759   6.562  18.260  0.00  0.00    +0.000 C 
ATOM      5  C   UNL     1       3.319   7.980  17.856  0.00  0.00    +0.000 C 
ATOM      6  C   UNL     1       1.984   8.431  18.446  0.00  0.00    +0.000 C 
ENDROOT
BRANCH   4   7
ATOM      7  C   UNL     1       3.298   5.442  17.286  0.00  0.00    +0.000 C 
ATOM      8  C   UNL     1       2.961   4.068  17.847  0.00  0.00    +0.000 A 
ATOM      9  C   UNL     1       1.864   3.646  18.568  0.00  0.00    +0.000 A 
ATOM     10  F   UNL     1       0.854   4.488  18.817  0.00  0.00    +0.000 F 
ATOM     11  C   UNL     1       1.808   2.330  19.026  0.00  0.00    +0.000 A 
ATOM     12  C   UNL     1       2.830   1.418  18.706  0.00  0.00    +0.000 A 
ATOM     13  C   UNL     1       3.897   1.801  17.887  0.00  0.00    +0.000 A 
ATOM     14  C   UNL     1       3.933   3.113  17.459  0.00  0.00    +0.000 A 
ATOM     15  C   UNL     1       4.823   3.774  16.560  0.00  0.00    +0.000 A 
ATOM     16  C   UNL     1       5.933   3.659  15.775  0.00  0.00    +0.000 A 
ATOM     17  N   UNL     1       6.197   4.877  15.162  0.00  0.00    +0.000 NA
ATOM     18  C   UNL     1       5.258   5.711  15.574  0.00  0.00    +0.000 A 
ATOM     19  N   UNL     1       4.412   5.072  16.401  0.00  0.00    +0.000 N 
ENDBRANCH   4   7
BRANCH   1  27
ATOM     20  C   UNL     1      -1.558  12.385  19.180  0.00  0.00    +0.000 C 
ATOM     21  N   UNL     1      -1.378  11.816  20.497  0.00  0.00    +0.000 N 
ATOM     22  C   UNL     1      -1.987  12.281  21.633  0.00  0.00    +0.000 A 
ATOM     23  C   UNL     1      -1.577  11.493  22.684  0.00  0.00    +0.000 A 
ATOM     24  C   UNL     1      -0.679  10.523  22.167  0.00  0.00    +0.000 A 
ATOM     25  C   UNL     1       0.045   9.474  22.755  0.00  0.00    +0.000 A 
ATOM     26  C   UNL     1       0.890   8.707  21.951  0.00  0.00    +0.000 A 
ATOM     27  C   UNL     1       1.045   8.946  20.578  0.00  0.00    +0.000 A 
ATOM     28  C   UNL     1       0.284   9.963  19.980  0.00  0.00    +0.000 A 
ATOM     29  C   UNL     1      -0.559  10.746  20.794  0.00  0.00    +0.000 A 
ENDBRANCH   1  27
TORSDOF 2
ENDMDL
MODEL 2
REMARK VINA RESULT:      -8.3      1.551      2.385
REMARK  Name = 
REMARK  3 active torsions:
REMARK  status: ('A' for Active; 'I' for Inactive)
REMARK    1  A    between atoms: C_1  and  N_2
REMARK    2  A    between atoms: C_8  and  N_9
REMARK    3  A    between atoms: C_12  and  C_13
REMARK                            x       y       z     vdW  Elec       q    Type
REMARK                         _______ _______ _______ _____ _____    ______ ____
ROOT
ATOM      1  N   UNL     1       0.816   9.315  19.550  0.00  0.00    +0.000 N 
ATOM      2  C   UNL     1       0.809   8.159  20.438  0.00  0.00    +0.000 C 
ATOM      3  C   UNL     1       2.240   7.630  20.488  0.00  0.00    +0.000 C 
ATOM      4  C   UNL     1       2.828   7.282  19.095  0.00  0.00    +0.000 C 
ATOM      5  C   UNL     1       2.548   8.407  18.083  0.00  0.00    +0.000 C 
ATOM      6  C   UNL     1       1.143   9.001  18.154  0.00  0.00    +0.000 C 
ENDROOT
BRANCH   4   7
ATOM      7  C   UNL     1       2.527   5.851  18.568  0.00  0.00    +0.000 C 
ATOM      8  C   UNL     1       2.416   4.706  19.565  0.00  0.00    +0.000 A 
ATOM      9  C   UNL     1       1.411   4.397  20.455  0.00  0.00    +0.000 A 
ATOM     10  F   UNL     1       0.288   5.124  20.487  0.00  0.00    +0.000 F 
ATOM     11  C   UNL     1       1.565   3.311  21.316  0.00  0.00    +0.000 A 
ATOM     12  C   UNL     1       2.710   2.496  21.240  0.00  0.00    +0.000 A 
ATOM     13  C   UNL     1       3.690   2.733  20.270  0.00  0.00    +0.000 A 
ATOM     14  C   UNL     1       3.516   3.822  19.441  0.00  0.00    +0.000 A 
ATOM     15  C   UNL     1       4.278   4.267  18.319  0.00  0.00    +0.000 A 
ATOM     16  C   UNL     1       5.377   4.055  17.539  0.00  0.00    +0.000 A 
ATOM     17  N   UNL     1       5.440   5.029  16.550  0.00  0.00    +0.000 NA
ATOM     18  C   UNL     1       4.392   5.812  16.732  0.00  0.00    +0.000 A 
ATOM     19  N   UNL     1       3.669   5.369  17.777  0.00  0.00    +0.000 N 
ENDBRANCH   4   7
BRANCH   1  27
ATOM     20  C   UNL     1      -1.319  13.012  23.101  0.00  0.00    +0.000 C 
ATOM     21  N   UNL     1      -1.939  12.820  21.809  0.00  0.00    +0.000 N 
ATOM     22  C   UNL     1      -3.077  13.460  21.392  0.00  0.00    +0.000 A 
ATOM     23  C   UNL     1      -3.360  13.027  20.117  0.00  0.00    +0.000 A 
ATOM     24  C   UNL     1      -2.364  12.083  19.753  0.00  0.00    +0.000 A 
ATOM     25  C   UNL     1      -2.139  11.321  18.597  0.00  0.00    +0.000 A 
ATOM     26  C   UNL     1      -1.060  10.436  18.573  0.00  0.00    +0.000 A 
ATOM     27  C   UNL     1      -0.193  10.278  19.663  0.00  0.00    +0.000 A 
ATOM     28  C   UNL     1      -0.387  11.076  20.803  0.00  0.00    +0.000 A 
ATOM     29  C   UNL     1      -1.484  11.960  20.831  0.00  0.00    +0.000 A 
ENDBRANCH   1  27
TORSDOF 2
ENDMDL
MODEL 3
REMARK VINA RESULT:      -8.2      2.046      3.597
REMARK  Name = 
REMARK  3 active torsions:
REMARK  status: ('A' for Active; 'I' for Inactive)
REMARK    1  A    between atoms: C_1  and  N_2
REMARK    2  A    between atoms: C_8  and  N_9
REMARK    3  A    between atoms: C_12  and  C_13
REMARK                            x       y       z     vdW  Elec       q    Type
REMARK                         _______ _______ _______ _____ _____    ______ ____
ROOT
ATOM      1  N   UNL     1       1.347   8.876  19.360  0.00  0.00    +0.000 N 
ATOM      2  C   UNL     1       2.096   8.550  18.152  0.00  0.00    +0.000 C 
ATOM      3  C   UNL     1       1.805   7.085  17.833  0.00  0.00    +0.000 C 
ATOM      4  C   UNL     1       2.137   6.113  18.996  0.00  0.00    +0.000 C 
ATOM      5  C   UNL     1       1.588   6.645  20.331  0.00  0.00    +0.000 C 
ATOM      6  C   UNL     1       1.783   8.144  20.555  0.00  0.00    +0.000 C 
ENDROOT
BRANCH   4   7
ATOM      7  C   UNL     1       3.604   5.604  19.059  0.00  0.00    +0.000 C 
ATOM      8  C   UNL     1       4.397   5.477  17.766  0.00  0.00    +0.000 A 
ATOM      9  C   UNL     1       4.957   6.450  16.967  0.00  0.00    +0.000 A 
ATOM     10  F   UNL     1       4.898   7.738  17.327  0.00  0.00    +0.000 F 
ATOM     11  C   UNL     1       5.599   6.083  15.784  0.00  0.00    +0.000 A 
ATOM     12  C   UNL     1       5.730   4.726  15.434  0.00  0.00    +0.000 A 
ATOM     13  C   UNL     1       5.261   3.721  16.287  0.00  0.00    +0.000 A 
ATOM     14  C   UNL     1       4.619   4.115  17.443  0.00  0.00    +0.000 A 
ATOM     15  C   UNL     1       4.118   3.346  18.536  0.00  0.00    +0.000 A 
ATOM     16  C   UNL     1       3.923   2.096  19.048  0.00  0.00    +0.000 A 
ATOM     17  N   UNL     1       3.297   2.192  20.284  0.00  0.00    +0.000 NA
ATOM     18  C   UNL     1       3.120   3.482  20.512  0.00  0.00    +0.000 A 
ATOM     19  N   UNL     1       3.617   4.198  19.487  0.00  0.00    +0.000 N 
ENDBRANCH   4   7
BRANCH   1  27
ATOM     20  C   UNL     1      -1.344  12.064  23.025  0.00  0.00    +0.000 C 
ATOM     21  N   UNL     1      -0.749  12.667  21.854  0.00  0.00    +0.000 N 
ATOM     22  C   UNL     1      -0.837  13.997  21.535  0.00  0.00    +0.000 A 
ATOM     23  C   UNL     1      -0.150  14.196  20.360  0.00  0.00    +0.000 A 
ATOM     24  C   UNL     1       0.364  12.939  19.946  0.00  0.00    +0.000 A 
ATOM     25  C   UNL     1       1.129  12.530  18.843  0.00  0.00    +0.000 A 
ATOM     26  C   UNL     1       1.445  11.177  18.708  0.00  0.00    +0.000 A 
ATOM     27  C   UNL     1       1.025  10.210  19.633  0.00  0.00    +0.000 A 
ATOM     28  C   UNL     1       0.301  10.625  20.762  0.00  0.00    +0.000 A 
ATOM     29  C   UNL     1      -0.028  11.989  20.891  0.00  0.00    +0.000 A 
ENDBRANCH   1  27
TORSDOF 2
ENDMDL
MODEL 4
REMARK VINA RESULT:      -8.1      2.176      3.406
REMARK  Name = 
REMARK  3 active torsions:
REMARK  status: ('A' for Active; 'I' for Inactive)
REMARK    1  A    between atoms: C_1  and  N_2
REMARK    2  A    between atoms: C_8  and  N_9
REMARK    3  A    between atoms: C_12  and  C_13
REMARK                            x       y       z     vdW  Elec       q    Type
REMARK                         _______ _______ _______ _____ _____    ______ ____
ROOT
ATOM      1  N   UNL     1       1.171   8.691  19.897  0.00  0.00    +0.000 N 
ATOM      2  C   UNL     1       1.968   8.629  18.677  0.00  0.00    +0.000 C 
ATOM      3  C   UNL     1       1.769   7.233  18.089  0.00  0.00    +0.000 C 
ATOM      4  C   UNL     1       2.125   6.084  19.068  0.00  0.00    +0.000 C 
ATOM      5  C   UNL     1       1.512   6.336  20.457  0.00  0.00    +0.000 C 
ATOM      6  C   UNL     1       1.616   7.776  20.955  0.00  0.00    +0.000 C 
ENDROOT
BRANCH   4   7
ATOM      7  C   UNL     1       3.616   5.647  19.091  0.00  0.00    +0.000 C 
ATOM      8  C   UNL     1       4.372   5.535  17.775  0.00  0.00    +0.000 A 
ATOM      9  C   UNL     1       4.858   6.518  16.941  0.00  0.00    +0.000 A 
ATOM     10  F   UNL     1       4.749   7.808  17.281  0.00  0.00    +0.000 F 
ATOM     11  C   UNL     1       5.478   6.161  15.744  0.00  0.00    +0.000 A 
ATOM     12  C   UNL     1       5.664   4.806  15.413  0.00  0.00    +0.000 A 
ATOM     13  C   UNL     1       5.272   3.796  16.297  0.00  0.00    +0.000 A 
ATOM     14  C   UNL     1       4.650   4.179  17.467  0.00  0.00    +0.000 A 
ATOM     15  C   UNL     1       4.222   3.407  18.589  0.00  0.00    +0.000 A 
ATOM     16  C   UNL     1       4.105   2.159  19.128  0.00  0.00    +0.000 A 
ATOM     17  N   UNL     1       3.515   2.248  20.382  0.00  0.00    +0.000 NA
ATOM     18  C   UNL     1       3.283   3.531  20.594  0.00  0.00    +0.000 A 
ATOM     19  N   UNL     1       3.712   4.251  19.541  0.00  0.00    +0.000 N 
ENDBRANCH   4   7
BRANCH   1  27
ATOM     20  C   UNL     1       1.576  14.138  18.899  0.00  0.00    +0.000 C 
ATOM     21  N   UNL     1       0.879  13.677  20.078  0.00  0.00    +0.000 N 
ATOM     22  C   UNL     1       0.333  14.500  21.029  0.00  0.00    +0.000 A 
ATOM     23  C   UNL     1      -0.244  13.705  21.992  0.00  0.00    +0.000 A 
ATOM     24  C   UNL     1      -0.032  12.353  21.618  0.00  0.00    +0.000 A 
ATOM     25  C   UNL     1      -0.384  11.127  22.201  0.00  0.00    +0.000 A 
ATOM     26  C   UNL     1       0.020   9.944  21.580  0.00  0.00    +0.000 A 
ATOM     27  C   UNL     1       0.768   9.935  20.394  0.00  0.00    +0.000 A 
ATOM     28  C   UNL     1       1.080  11.160  19.782  0.00  0.00    +0.000 A 
ATOM     29  C   UNL     1       0.682  12.354  20.417  0.00  0.00    +0.000 A 
ENDBRANCH   1  27
TORSDOF 2
ENDMDL
MODEL 5
REMARK VINA RESULT:      -8.1      0.794      1.667
REMARK  Name = 
REMARK  3 active torsions:
REMARK  status: ('A' for Active; 'I' for Inactive)
REMARK    1  A    between atoms: C_1  and  N_2
REMARK    2  A    between atoms: C_8  and  N_9
REMARK    3  A    between atoms: C_12  and  C_13
REMARK                            x       y       z     vdW  Elec       q    Type
REMARK                         _______ _______ _______ _____ _____    ______ ____
ROOT
ATOM      1  N   UNL     1       1.798   8.624  19.148  0.00  0.00    +0.000 N 
ATOM      2  C   UNL     1       1.538   7.280  19.652  0.00  0.00    +0.000 C 
ATOM      3  C   UNL     1       2.883   6.557  19.695  0.00  0.00    +0.000 C 
ATOM      4  C   UNL     1       3.623   6.528  18.332  0.00  0.00    +0.000 C 
ATOM      5  C   UNL     1       3.614   7.918  17.672  0.00  0.00    +0.000 C 
ATOM      6  C   UNL     1       2.286   8.666  17.764  0.00  0.00    +0.000 C 
ENDROOT
BRANCH   4   7
ATOM      7  C   UNL     1       3.248   5.360  17.379  0.00  0.00    +0.000 C 
ATOM      8  C   UNL     1       2.996   3.978  17.967  0.00  0.00    +0.000 A 
ATOM      9  C   UNL     1       1.922   3.501  18.687  0.00  0.00    +0.000 A 
ATOM     10  F   UNL     1       0.856   4.278  18.908  0.00  0.00    +0.000 F 
ATOM     11  C   UNL     1       1.948   2.194  19.173  0.00  0.00    +0.000 A 
ATOM     12  C   UNL     1       3.032   1.345  18.884  0.00  0.00    +0.000 A 
ATOM     13  C   UNL     1       4.080   1.781  18.066  0.00  0.00    +0.000 A 
ATOM     14  C   UNL     1       4.033   3.082  17.610  0.00  0.00    +0.000 A 
ATOM     15  C   UNL     1       4.888   3.781  16.705  0.00  0.00    +0.000 A 
ATOM     16  C   UNL     1       6.011   3.723  15.932  0.00  0.00    +0.000 A 
ATOM     17  N   UNL     1       6.201   4.943  15.295  0.00  0.00    +0.000 NA
ATOM     18  C   UNL     1       5.204   5.721  15.679  0.00  0.00    +0.000 A 
ATOM     19  N   UNL     1       4.393   5.045  16.513  0.00  0.00    +0.000 N 
ENDBRANCH   4   7
BRANCH   1  27
ATOM     20  C   UNL     1      -1.198  10.791  23.291  0.00  0.00    +0.000 C 
ATOM     21  N   UNL     1      -1.317  11.341  21.959  0.00  0.00    +0.000 N 
ATOM     22  C   UNL     1      -2.172  12.354  21.610  0.00  0.00    +0.000 A 
ATOM     23  C   UNL     1      -2.003  12.605  20.268  0.00  0.00    +0.000 A 
ATOM     24  C   UNL     1      -1.017  11.705  19.784  0.00  0.00    +0.000 A 
ATOM     25  C   UNL     1      -0.444  11.495  18.520  0.00  0.00    +0.000 A 
ATOM     26  C   UNL     1       0.498  10.478  18.369  0.00  0.00    +0.000 A 
ATOM     27  C   UNL     1       0.894   9.653  19.432  0.00  0.00    +0.000 A 
ATOM     28  C   UNL     1       0.358   9.893  20.708  0.00  0.00    +0.000 A 
ATOM     29  C   UNL     1      -0.603  10.913  20.858  0.00  0.00    +0.000 A 
ENDBRANCH   1  27
TORSDOF 2
ENDMDL
MODEL 6
REMARK VINA RESULT:      -7.9      2.572      3.956
REMARK  Name = 
REMARK  3 active torsions:
REMARK  status: ('A' for Active; 'I' for Inactive)
REMARK    1  A    between atoms: C_1  and  N_2
REMARK    2  A    between atoms: C_8  and  N_9
REMARK    3  A    between atoms: C_12  and  C_13
REMARK                            x       y       z     vdW  Elec       q    Type
REMARK                         _______ _______ _______ _____ _____    ______ ____
ROOT
ATOM      1  N   UNL     1       1.285   9.138  19.011  0.00  0.00    +0.000 N 
ATOM      2  C   UNL     1       1.990   8.609  17.849  0.00  0.00    +0.000 C 
ATOM      3  C   UNL     1       1.694   7.111  17.797  0.00  0.00    +0.000 C 
ATOM      4  C   UNL     1       2.072   6.352  19.096  0.00  0.00    +0.000 C 
ATOM      5  C   UNL     1       1.571   7.106  20.340  0.00  0.00    +0.000 C 
ATOM      6  C   UNL     1       1.768   8.620  20.297  0.00  0.00    +0.000 C 
ENDROOT
BRANCH   4   7
ATOM      7  C   UNL     1       3.542   5.857  19.190  0.00  0.00    +0.000 C 
ATOM      8  C   UNL     1       4.324   5.615  17.907  0.00  0.00    +0.000 A 
ATOM      9  C   UNL     1       4.871   6.512  17.016  0.00  0.00    +0.000 A 
ATOM     10  F   UNL     1       4.808   7.828  17.256  0.00  0.00    +0.000 F 
ATOM     11  C   UNL     1       5.503   6.041  15.866  0.00  0.00    +0.000 A 
ATOM     12  C   UNL     1       5.638   4.659  15.641  0.00  0.00    +0.000 A 
ATOM     13  C   UNL     1       5.182   3.735  16.587  0.00  0.00    +0.000 A 
ATOM     14  C   UNL     1       4.550   4.230  17.709  0.00  0.00    +0.000 A 
ATOM     15  C   UNL     1       4.064   3.563  18.873  0.00  0.00    +0.000 A 
ATOM     16  C   UNL     1       3.880   2.365  19.499  0.00  0.00    +0.000 A 
ATOM     17  N   UNL     1       3.265   2.572  20.728  0.00  0.00    +0.000 NA
ATOM     18  C   UNL     1       3.084   3.876  20.837  0.00  0.00    +0.000 A 
ATOM     19  N   UNL     1       3.567   4.496  19.746  0.00  0.00    +0.000 N 
ENDBRANCH   4   7
BRANCH   1  27
ATOM     20  C   UNL     1       3.488  14.173  18.215  0.00  0.00    +0.000 C 
ATOM     21  N   UNL     1       2.128  14.054  18.691  0.00  0.00    +0.000 N 
ATOM     22  C   UNL     1       1.325  15.115  19.021  0.00  0.00    +0.000 A 
ATOM     23  C   UNL     1       0.111  14.614  19.428  0.00  0.00    +0.000 A 
ATOM     24  C   UNL     1       0.183  13.199  19.352  0.00  0.00    +0.000 A 
ATOM     25  C   UNL     1      -0.731  12.173  19.637  0.00  0.00    +0.000 A 
ATOM     26  C   UNL     1      -0.322  10.847  19.487  0.00  0.00    +0.000 A 
ATOM     27  C   UNL     1       0.969  10.500  19.063  0.00  0.00    +0.000 A 
ATOM     28  C   UNL     1       1.869  11.525  18.731  0.00  0.00    +0.000 A 
ATOM     29  C   UNL     1       1.460  12.864  18.895  0.00  0.00    +0.000 A 
ENDBRANCH   1  27
TORSDOF 2
ENDMDL
MODEL 7
REMARK VINA RESULT:      -7.8      2.259      8.811
REMARK  Name = 
REMARK  3 active torsions:
REMARK  status: ('A' for Active; 'I' for Inactive)
REMARK    1  A    between atoms: C_1  and  N_2
REMARK    2  A    between atoms: C_8  and  N_9
REMARK    3  A    between atoms: C_12  and  C_13
REMARK                            x       y       z     vdW  Elec       q    Type
REMARK                         _______ _______ _______ _____ _____    ______ ____
ROOT
ATOM      1  N   UNL     1       2.074   7.629  18.764  0.00  0.00    +0.000 N 
ATOM      2  C   UNL     1       1.863   7.712  20.204  0.00  0.00    +0.000 C 
ATOM      3  C   UNL     1       0.502   8.371  20.415  0.00  0.00    +0.000 C 
ATOM      4  C   UNL     1       0.365   9.757  19.732  0.00  0.00    +0.000 C 
ATOM      5  C   UNL     1       0.888   9.713  18.286  0.00  0.00    +0.000 C 
ATOM      6  C   UNL     1       2.186   8.931  18.095  0.00  0.00    +0.000 C 
ENDROOT
BRANCH   4   7
ATOM      7  C   UNL     1       0.863  10.975  20.560  0.00  0.00    +0.000 C 
ATOM      8  C   UNL     1      -0.127  11.721  21.444  0.00  0.00    +0.000 A 
ATOM      9  C   UNL     1      -0.692  11.360  22.648  0.00  0.00    +0.000 A 
ATOM     10  F   UNL     1      -0.337  10.216  23.246  0.00  0.00    +0.000 F 
ATOM     11  C   UNL     1      -1.629  12.201  23.247  0.00  0.00    +0.000 A 
ATOM     12  C   UNL     1      -1.955  13.439  22.663  0.00  0.00    +0.000 A 
ATOM     13  C   UNL     1      -1.312  13.868  21.497  0.00  0.00    +0.000 A 
ATOM     14  C   UNL     1      -0.399  13.009  20.920  0.00  0.00    +0.000 A 
ATOM     15  C   UNL     1       0.468  13.190  19.801  0.00  0.00    +0.000 A 
ATOM     16  C   UNL     1       0.865  14.024  18.797  0.00  0.00    +0.000 A 
ATOM     17  N   UNL     1       1.851  13.405  18.040  0.00  0.00    +0.000 NA
ATOM     18  C   UNL     1       2.045  12.216  18.583  0.00  0.00    +0.000 A 
ATOM     19  N   UNL     1       1.239  12.066  19.650  0.00  0.00    +0.000 N 
ENDBRANCH   4   7
BRANCH   1  27
ATOM     20  C   UNL     1       7.366   7.000  17.205  0.00  0.00    +0.000 C 
ATOM     21  N   UNL     1       6.438   5.903  17.044  0.00  0.00    +0.000 N 
ATOM     22  C   UNL     1       6.753   4.697  16.475  0.00  0.00    +0.000 A 
ATOM     23  C   UNL     1       5.623   3.912  16.498  0.00  0.00    +0.000 A 
ATOM     24  C   UNL     1       4.584   4.674  17.094  0.00  0.00    +0.000 A 
ATOM     25  C   UNL     1       3.236   4.405  17.378  0.00  0.00    +0.000 A 
ATOM     26  C   UNL     1       2.455   5.410  17.950  0.00  0.00    +0.000 A 
ATOM     27  C   UNL     1       2.966   6.681  18.251  0.00  0.00    +0.000 A 
ATOM     28  C   UNL     1       4.327   6.936  18.013  0.00  0.00    +0.000 A 
ATOM     29  C   UNL     1       5.111   5.925  17.423  0.00  0.00    +0.000 A 
ENDBRANCH   1  27
TORSDOF 2
ENDMDL
MODEL 8
REMARK VINA RESULT:      -7.8      2.366      3.930
REMARK  Name = 
REMARK  3 active torsions:
REMARK  status: ('A' for Active; 'I' for Inactive)
REMARK    1  A    between atoms: C_1  and  N_2
REMARK    2  A    between atoms: C_8  and  N_9
REMARK    3  A    between atoms: C_12  and  C_13
REMARK                            x       y       z     vdW  Elec       q    Type
REMARK                         _______ _______ _______ _____ _____    ______ ____
ROOT
ATOM      1  N   UNL     1       1.389   9.493  19.004  0.00  0.00    +0.000 N 
ATOM      2  C   UNL     1       2.101   8.881  17.888  0.00  0.00    +0.000 C 
ATOM      3  C   UNL     1       1.666   7.418  17.834  0.00  0.00    +0.000 C 
ATOM      4  C   UNL     1       1.899   6.646  19.159  0.00  0.00    +0.000 C 
ATOM      5  C   UNL     1       1.406   7.462  20.366  0.00  0.00    +0.000 C 
ATOM      6  C   UNL     1       1.749   8.950  20.319  0.00  0.00    +0.000 C 
ENDROOT
BRANCH   4   7
ATOM      7  C   UNL     1       3.308   6.015  19.339  0.00  0.00    +0.000 C 
ATOM      8  C   UNL     1       4.102   5.616  18.103  0.00  0.00    +0.000 A 
ATOM      9  C   UNL     1       4.765   6.396  17.181  0.00  0.00    +0.000 A 
ATOM     10  F   UNL     1       4.828   7.724  17.339  0.00  0.00    +0.000 F 
ATOM     11  C   UNL     1       5.383   5.792  16.087  0.00  0.00    +0.000 A 
ATOM     12  C   UNL     1       5.385   4.392  15.951  0.00  0.00    +0.000 A 
ATOM     13  C   UNL     1       4.808   3.579  16.932  0.00  0.00    +0.000 A 
ATOM     14  C   UNL     1       4.194   4.206  17.997  0.00  0.00    +0.000 A 
ATOM     15  C   UNL     1       3.605   3.665  19.180  0.00  0.00    +0.000 A 
ATOM     16  C   UNL     1       3.282   2.533  19.870  0.00  0.00    +0.000 A 
ATOM     17  N   UNL     1       2.652   2.878  21.060  0.00  0.00    +0.000 NA
ATOM     18  C   UNL     1       2.600   4.198  21.083  0.00  0.00    +0.000 A 
ATOM     19  N   UNL     1       3.178   4.697  19.976  0.00  0.00    +0.000 N 
ENDBRANCH   4   7
BRANCH   1  27
ATOM     20  C   UNL     1      -2.114  13.403  20.813  0.00  0.00    +0.000 C 
ATOM     21  N   UNL     1      -0.961  13.783  20.029  0.00  0.00    +0.000 N 
ATOM     22  C   UNL     1      -0.676  15.066  19.638  0.00  0.00    +0.000 A 
ATOM     23  C   UNL     1       0.493  15.036  18.913  0.00  0.00    +0.000 A 
ATOM     24  C   UNL     1       0.926  13.686  18.853  0.00  0.00    +0.000 A 
ATOM     25  C   UNL     1       2.030  13.056  18.259  0.00  0.00    +0.000 A 
ATOM     26  C   UNL     1       2.147  11.669  18.357  0.00  0.00    +0.000 A 
ATOM     27  C   UNL     1       1.201  10.879  19.026  0.00  0.00    +0.000 A 
ATOM     28  C   UNL     1       0.121  11.512  19.662  0.00  0.00    +0.000 A 
ATOM     29  C   UNL     1      -0.003  12.911  19.552  0.00  0.00    +0.000 A 
ENDBRANCH   1  27
TORSDOF 2
ENDMDL
MODEL 9
REMARK VINA RESULT:      -7.7      2.730      8.957
REMARK  Name = 
REMARK  3 active torsions:
REMARK  status: ('A' for Active; 'I' for Inactive)
REMARK    1  A    between atoms: C_1  and  N_2
REMARK    2  A    between atoms: C_8  and  N_9
REMARK    3  A    between atoms: C_12  and  C_13
REMARK                            x       y       z     vdW  Elec       q    Type
REMARK                         _______ _______ _______ _____ _____    ______ ____
ROOT
ATOM      1  N   UNL     1       1.510   7.915  19.651  0.00  0.00    +0.000 N 
ATOM      2  C   UNL     1       1.066   8.235  21.003  0.00  0.00    +0.000 C 
ATOM      3  C   UNL     1      -0.155   9.142  20.864  0.00  0.00    +0.000 C 
ATOM      4  C   UNL     1       0.107  10.421  20.026  0.00  0.00    +0.000 C 
ATOM      5  C   UNL     1       0.859  10.084  18.727  0.00  0.00    +0.000 C 
ATOM      6  C   UNL     1       1.992   9.071  18.885  0.00  0.00    +0.000 C 
ENDROOT
BRANCH   4   7
ATOM      7  C   UNL     1       0.678  11.640  20.804  0.00  0.00    +0.000 C 
ATOM      8  C   UNL     1      -0.280  12.541  21.571  0.00  0.00    +0.000 A 
ATOM      9  C   UNL     1      -0.949  12.324  22.756  0.00  0.00    +0.000 A 
ATOM     10  F   UNL     1      -0.749  11.196  23.449  0.00  0.00    +0.000 F 
ATOM     11  C   UNL     1      -1.828  13.293  23.237  0.00  0.00    +0.000 A 
ATOM     12  C   UNL     1      -1.989  14.513  22.554  0.00  0.00    +0.000 A 
ATOM     13  C   UNL     1      -1.238  14.792  21.407  0.00  0.00    +0.000 A 
ATOM     14  C   UNL     1      -0.386  13.809  20.948  0.00  0.00    +0.000 A 
ATOM     15  C   UNL     1       0.560  13.822  19.879  0.00  0.00    +0.000 A 
ATOM     16  C   UNL     1       1.099  14.540  18.852  0.00  0.00    +0.000 A 
ATOM     17  N   UNL     1       2.059  13.774  18.202  0.00  0.00    +0.000 NA
ATOM     18  C   UNL     1       2.096  12.614  18.833  0.00  0.00    +0.000 A 
ATOM     19  N   UNL     1       1.218  12.621  19.853  0.00  0.00    +0.000 N 
ENDBRANCH   4   7
BRANCH   1  27
ATOM     20  C   UNL     1       2.310   2.764  21.562  0.00  0.00    +0.000 C 
ATOM     21  N   UNL     1       3.139   3.266  20.490  0.00  0.00    +0.000 N 
ATOM     22  C   UNL     1       4.173   2.571  19.918  0.00  0.00    +0.000 A 
ATOM     23  C   UNL     1       4.723   3.365  18.938  0.00  0.00    +0.000 A 
ATOM     24  C   UNL     1       4.002   4.587  18.921  0.00  0.00    +0.000 A 
ATOM     25  C   UNL     1       4.108   5.755  18.151  0.00  0.00    +0.000 A 
ATOM     26  C   UNL     1       3.245   6.819  18.419  0.00  0.00    +0.000 A 
ATOM     27  C   UNL     1       2.276   6.765  19.431  0.00  0.00    +0.000 A 
ATOM     28  C   UNL     1       2.136   5.580  20.171  0.00  0.00    +0.000 A 
ATOM     29  C   UNL     1       3.016   4.511  19.908  0.00  0.00    +0.000 A 
ENDBRANCH   1  27
TORSDOF 2
ENDMDL
