MODEL 1
REMARK VINA RESULT:      -7.0      0.000      0.000
REMARK  Name = 
REMARK  6 active torsions:
REMARK  status: ('A' for Active; 'I' for Inactive)
REMARK    1  A    between atoms: C_1  and  S_2
REMARK    2  A    between atoms: S_2  and  C_5
REMARK    3  A    between atoms: C_5  and  C_6
REMARK    4  A    between atoms: N_8  and  C_9
REMARK    5  A    between atoms: C_9  and  C_10
REMARK    6  A    between atoms: C_10  and  C_11
REMARK                            x       y       z     vdW  Elec       q    Type
REMARK                         _______ _______ _______ _____ _____    ______ ____
ROOT
ATOM      1  C   UNL     1       5.586   5.613  18.249  0.00  0.00    +0.000 C 
ENDROOT
BRANCH   1   4
ATOM      2  C   UNL     1       4.064   3.780  18.921  0.00  0.00    +0.000 C 
ATOM      3  O   UNL     1       3.536   3.725  17.813  0.00  0.00    +0.000 OA
ATOM      4  N   UNL     1       5.074   4.663  19.227  0.00  0.00    +0.000 N 
ATOM      5  H   UNL     1       5.357   4.785  20.195  0.00  0.00    +0.000 HD
BRANCH   2   6
ATOM      6  C   UNL     1       3.645   2.868  20.032  0.00  0.00    +0.000 C 
BRANCH   6   8
ATOM      7  C   UNL     1       0.830   3.098  20.001  0.00  0.00    +0.000 C 
ATOM      8  S   UNL     1       2.286   3.583  20.904  0.00  0.00    +0.000 S 
ATOM      9  O   UNL     1       2.416   5.025  20.822  0.00  0.00    +0.000 OA
ATOM     10  O   UNL     1       2.225   2.933  22.202  0.00  0.00    +0.000 OA
ENDBRANCH   6   8
ENDBRANCH   2   6
ENDBRANCH   1   4
BRANCH   1  11
ATOM     11  C   UNL     1       6.964   5.237  17.704  0.00  0.00    +0.000 C 
BRANCH  11  12
ATOM     12  C   UNL     1       6.859   4.841  16.276  0.00  0.00    +0.000 A 
ATOM     13  N   UNL     1       6.057   3.943  15.733  0.00  0.00    +0.000 NA
ATOM     14  C   UNL     1       6.351   4.015  14.394  0.00  0.00    +0.000 A 
ATOM     15  C   UNL     1       5.826   3.319  13.296  0.00  0.00    +0.000 A 
ATOM     16  C   UNL     1       6.329   3.619  12.022  0.00  0.00    +0.000 A 
ATOM     17  C   UNL     1       7.330   4.583  11.845  0.00  0.00    +0.000 A 
ATOM     18  C   UNL     1       7.866   5.284  12.934  0.00  0.00    +0.000 A 
ATOM     19  C   UNL     1       7.339   4.960  14.180  0.00  0.00    +0.000 A 
ATOM     20  O   UNL     1       7.674   5.497  15.389  0.00  0.00    +0.000 OA
ENDBRANCH  11  12
ENDBRANCH   1  11
TORSDOF 5
ENDMDL
MODEL 2
REMARK VINA RESULT:      -7.0      1.729      2.238
REMARK  Name = 
REMARK  6 active torsions:
REMARK  status: ('A' for Active; 'I' for Inactive)
REMARK    1  A    between atoms: C_1  and  S_2
REMARK    2  A    between atoms: S_2  and  C_5
REMARK    3  A    between atoms: C_5  and  C_6
REMARK    4  A    between atoms: N_8  and  C_9
REMARK    5  A    between atoms: C_9  and  C_10
REMARK    6  A    between atoms: C_10  and  C_11
REMARK                            x       y       z     vdW  Elec       q    Type
REMARK                         _______ _______ _______ _____ _____    ______ ____
ROOT
ATOM      1  C   UNL     1       5.241   5.380  18.318  0.00  0.00    +0.000 C 
ENDROOT
BRANCH   1   4
ATOM      2  C   UNL     1       2.795   5.130  18.036  0.00  0.00    +0.000 C 
ATOM      3  O   UNL     1       2.570   6.286  18.386  0.00  0.00    +0.000 OA
ATOM      4  N   UNL     1       4.063   4.600  17.966  0.00  0.00    +0.000 N 
ATOM      5  H   UNL     1       4.181   3.599  17.838  0.00  0.00    +0.000 HD
BRANCH   2   6
ATOM      6  C   UNL     1       1.686   4.204  17.645  0.00  0.00    +0.000 C 
BRANCH   6   8
ATOM      7  C   UNL     1       1.044   3.906  20.380  0.00  0.00    +0.000 C 
ATOM      8  S   UNL     1       1.454   2.992  18.908  0.00  0.00    +0.000 S 
ATOM      9  O   UNL     1       2.725   2.326  19.122  0.00  0.00    +0.000 OA
ATOM     10  O   UNL     1       0.282   2.216  18.542  0.00  0.00    +0.000 OA
ENDBRANCH   6   8
ENDBRANCH   2   6
ENDBRANCH   1   4
BRANCH   1  11
ATOM     11  C   UNL     1       6.554   4.703  17.925  0.00  0.00    +0.000 C 
BRANCH  11  12
ATOM     12  C   UNL     1       6.695   4.679  16.446  0.00  0.00    +0.000 A 
ATOM     13  N   UNL     1       7.540   5.360  15.693  0.00  0.00    +0.000 NA
ATOM     14  C   UNL     1       7.262   4.926  14.421  0.00  0.00    +0.000 A 
ATOM     15  C   UNL     1       7.829   5.266  13.186  0.00  0.00    +0.000 A 
ATOM     16  C   UNL     1       7.333   4.639  12.034  0.00  0.00    +0.000 A 
ATOM     17  C   UNL     1       6.296   3.699  12.110  0.00  0.00    +0.000 A 
ATOM     18  C   UNL     1       5.717   3.351  13.338  0.00  0.00    +0.000 A 
ATOM     19  C   UNL     1       6.239   3.993  14.455  0.00  0.00    +0.000 A 
ATOM     20  O   UNL     1       5.866   3.829  15.759  0.00  0.00    +0.000 OA
ENDBRANCH  11  12
ENDBRANCH   1  11
TORSDOF 5
ENDMDL
MODEL 3
REMARK VINA RESULT:      -7.0      3.341      6.645
REMARK  Name = 
REMARK  6 active torsions:
REMARK  status: ('A' for Active; 'I' for Inactive)
REMARK    1  A    between atoms: C_1  and  S_2
REMARK    2  A    between atoms: S_2  and  C_5
REMARK    3  A    between atoms: C_5  and  C_6
REMARK    4  A    between atoms: N_8  and  C_9
REMARK    5  A    between atoms: C_9  and  C_10
REMARK    6  A    between atoms: C_10  and  C_11
REMARK                            x       y       z     vdW  Elec       q    Type
REMARK                         _______ _______ _______ _____ _____    ______ ____
ROOT
ATOM      1  C   UNL     1       3.729   7.829  17.248  0.00  0.00    +0.000 C 
ENDROOT
BRANCH   1   4
ATOM      2  C   UNL     1       5.237   6.084  16.351  0.00  0.00    +0.000 C 
ATOM      3  O   UNL     1       5.257   6.585  15.230  0.00  0.00    +0.000 OA
ATOM      4  N   UNL     1       4.525   6.620  17.401  0.00  0.00    +0.000 N 
ATOM      5  H   UNL     1       4.405   6.080  18.252  0.00  0.00    +0.000 HD
BRANCH   2   6
ATOM      6  C   UNL     1       6.005   4.837  16.663  0.00  0.00    +0.000 C 
BRANCH   6   8
ATOM      7  C   UNL     1       6.660   5.232  19.383  0.00  0.00    +0.000 C 
ATOM      8  S   UNL     1       7.350   5.225  17.740  0.00  0.00    +0.000 S 
ATOM      9  O   UNL     1       7.797   6.569  17.427  0.00  0.00    +0.000 OA
ATOM     10  O   UNL     1       8.284   4.115  17.670  0.00  0.00    +0.000 OA
ENDBRANCH   6   8
ENDBRANCH   2   6
ENDBRANCH   1   4
BRANCH   1  11
ATOM     11  C   UNL     1       2.462   7.831  18.105  0.00  0.00    +0.000 C 
BRANCH  11  12
ATOM     12  C   UNL     1       2.288   6.511  18.763  0.00  0.00    +0.000 A 
ATOM     13  N   UNL     1       2.347   6.224  20.051  0.00  0.00    +0.000 NA
ATOM     14  C   UNL     1       2.074   4.880  20.096  0.00  0.00    +0.000 A 
ATOM     15  C   UNL     1       1.979   3.995  21.179  0.00  0.00    +0.000 A 
ATOM     16  C   UNL     1       1.672   2.653  20.910  0.00  0.00    +0.000 A 
ATOM     17  C   UNL     1       1.469   2.204  19.599  0.00  0.00    +0.000 A 
ATOM     18  C   UNL     1       1.563   3.077  18.507  0.00  0.00    +0.000 A 
ATOM     19  C   UNL     1       1.866   4.399  18.815  0.00  0.00    +0.000 A 
ATOM     20  O   UNL     1       2.003   5.445  17.948  0.00  0.00    +0.000 OA
ENDBRANCH  11  12
ENDBRANCH   1  11
TORSDOF 5
ENDMDL
MODEL 4
REMARK VINA RESULT:      -6.9      2.696      6.130
REMARK  Name = 
REMARK  6 active torsions:
REMARK  status: ('A' for Active; 'I' for Inactive)
REMARK    1  A    between atoms: C_1  and  S_2
REMARK    2  A    between atoms: S_2  and  C_5
REMARK    3  A    between atoms: C_5  and  C_6
REMARK    4  A    between atoms: N_8  and  C_9
REMARK    5  A    between atoms: C_9  and  C_10
REMARK    6  A    between atoms: C_10  and  C_11
REMARK                            x       y       z     vdW  Elec       q    Type
REMARK                         _______ _______ _______ _____ _____    ______ ____
ROOT
ATOM      1  C   UNL     1       7.368   6.223  18.260  0.00  0.00    +0.000 C 
ENDROOT
BRANCH   1   4
ATOM      2  C   UNL     1       5.847   6.377  16.313  0.00  0.00    +0.000 C 
ATOM      3  O   UNL     1       5.420   7.479  16.651  0.00  0.00    +0.000 OA
ATOM      4  N   UNL     1       6.800   5.689  17.030  0.00  0.00    +0.000 N 
ATOM      5  H   UNL     1       6.992   4.718  16.804  0.00  0.00    +0.000 HD
BRANCH   2   6
ATOM      6  C   UNL     1       5.358   5.697  15.072  0.00  0.00    +0.000 C 
BRANCH   6   8
ATOM      7  C   UNL     1       5.937   3.849  13.016  0.00  0.00    +0.000 C 
ATOM      8  S   UNL     1       6.496   4.431  14.603  0.00  0.00    +0.000 S 
ATOM      9  O   UNL     1       6.371   3.346  15.558  0.00  0.00    +0.000 OA
ATOM     10  O   UNL     1       7.784   5.071  14.398  0.00  0.00    +0.000 OA
ENDBRANCH   6   8
ENDBRANCH   2   6
ENDBRANCH   1   4
BRANCH   1  11
ATOM     11  C   UNL     1       6.844   5.531  19.518  0.00  0.00    +0.000 C 
BRANCH  11  12
ATOM     12  C   UNL     1       5.503   4.945  19.260  0.00  0.00    +0.000 A 
ATOM     13  N   UNL     1       4.322   5.525  19.367  0.00  0.00    +0.000 NA
ATOM     14  C   UNL     1       3.444   4.547  18.972  0.00  0.00    +0.000 A 
ATOM     15  C   UNL     1       2.047   4.552  18.858  0.00  0.00    +0.000 A 
ATOM     16  C   UNL     1       1.415   3.383  18.412  0.00  0.00    +0.000 A 
ATOM     17  C   UNL     1       2.153   2.236  18.092  0.00  0.00    +0.000 A 
ATOM     18  C   UNL     1       3.550   2.215  18.203  0.00  0.00    +0.000 A 
ATOM     19  C   UNL     1       4.139   3.394  18.646  0.00  0.00    +0.000 A 
ATOM     20  O   UNL     1       5.469   3.642  18.830  0.00  0.00    +0.000 OA
ENDBRANCH  11  12
ENDBRANCH   1  11
TORSDOF 5
ENDMDL
MODEL 5
REMARK VINA RESULT:      -6.8      1.489      1.794
REMARK  Name = 
REMARK  6 active torsions:
REMARK  status: ('A' for Active; 'I' for Inactive)
REMARK    1  A    between atoms: C_1  and  S_2
REMARK    2  A    between atoms: S_2  and  C_5
REMARK    3  A    between atoms: C_5  and  C_6
REMARK    4  A    between atoms: N_8  and  C_9
REMARK    5  A    between atoms: C_9  and  C_10
REMARK    6  A    between atoms: C_10  and  C_11
REMARK                            x       y       z     vdW  Elec       q    Type
REMARK                         _______ _______ _______ _____ _____    ______ ____
ROOT
ATOM      1  C   UNL     1       7.357   4.808  18.264  0.00  0.00    +0.000 C 
ENDROOT
BRANCH   1   4
ATOM      2  C   UNL     1       5.169   4.410  19.351  0.00  0.00    +0.000 C 
ATOM      3  O   UNL     1       5.137   5.534  19.846  0.00  0.00    +0.000 OA
ATOM      4  N   UNL     1       6.206   3.967  18.561  0.00  0.00    +0.000 N 
ATOM      5  H   UNL     1       6.266   2.983  18.320  0.00  0.00    +0.000 HD
BRANCH   2   6
ATOM      6  C   UNL     1       4.059   3.429  19.568  0.00  0.00    +0.000 C 
BRANCH   6   8
ATOM      7  C   UNL     1       2.512   2.161  17.573  0.00  0.00    +0.000 C 
ATOM      8  S   UNL     1       2.774   3.720  18.392  0.00  0.00    +0.000 S 
ATOM      9  O   UNL     1       3.273   4.671  17.415  0.00  0.00    +0.000 OA
ATOM     10  O   UNL     1       1.568   4.020  19.145  0.00  0.00    +0.000 OA
ENDBRANCH   6   8
ENDBRANCH   2   6
ENDBRANCH   1   4
BRANCH   1  11
ATOM     11  C   UNL     1       7.066   5.881  17.214  0.00  0.00    +0.000 C 
BRANCH  11  12
ATOM     12  C   UNL     1       6.827   5.251  15.890  0.00  0.00    +0.000 A 
ATOM     13  N   UNL     1       5.853   4.431  15.538  0.00  0.00    +0.000 NA
ATOM     14  C   UNL     1       6.094   4.195  14.208  0.00  0.00    +0.000 A 
ATOM     15  C   UNL     1       5.404   3.416  13.270  0.00  0.00    +0.000 A 
ATOM     16  C   UNL     1       5.893   3.374  11.956  0.00  0.00    +0.000 A 
ATOM     17  C   UNL     1       7.041   4.086  11.587  0.00  0.00    +0.000 A 
ATOM     18  C   UNL     1       7.744   4.868  12.514  0.00  0.00    +0.000 A 
ATOM     19  C   UNL     1       7.225   4.885  13.805  0.00  0.00    +0.000 A 
ATOM     20  O   UNL     1       7.705   5.568  14.885  0.00  0.00    +0.000 OA
ENDBRANCH  11  12
ENDBRANCH   1  11
TORSDOF 5
ENDMDL
MODEL 6
REMARK VINA RESULT:      -6.8      1.552      1.751
REMARK  Name = 
REMARK  6 active torsions:
REMARK  status: ('A' for Active; 'I' for Inactive)
REMARK    1  A    between atoms: C_1  and  S_2
REMARK    2  A    between atoms: S_2  and  C_5
REMARK    3  A    between atoms: C_5  and  C_6
REMARK    4  A    between atoms: N_8  and  C_9
REMARK    5  A    between atoms: C_9  and  C_10
REMARK    6  A    between atoms: C_10  and  C_11
REMARK                            x       y       z     vdW  Elec       q    Type
REMARK                         _______ _______ _______ _____ _____    ______ ____
ROOT
ATOM      1  C   UNL     1       6.085   5.172  18.716  0.00  0.00    +0.000 C 
ENDROOT
BRANCH   1   4
ATOM      2  C   UNL     1       4.286   3.738  19.629  0.00  0.00    +0.000 C 
ATOM      3  O   UNL     1       5.064   2.829  19.911  0.00  0.00    +0.000 OA
ATOM      4  N   UNL     1       4.691   4.919  19.050  0.00  0.00    +0.000 N 
ATOM      5  H   UNL     1       3.994   5.562  18.684  0.00  0.00    +0.000 HD
BRANCH   2   6
ATOM      6  C   UNL     1       2.820   3.626  19.910  0.00  0.00    +0.000 C 
BRANCH   6   8
ATOM      7  C   UNL     1       2.921   2.163  17.496  0.00  0.00    +0.000 C 
ATOM      8  S   UNL     1       1.948   3.349  18.400  0.00  0.00    +0.000 S 
ATOM      9  O   UNL     1       1.939   4.595  17.657  0.00  0.00    +0.000 OA
ATOM     10  O   UNL     1       0.693   2.703  18.747  0.00  0.00    +0.000 OA
ENDBRANCH   6   8
ENDBRANCH   2   6
ENDBRANCH   1   4
BRANCH   1  11
ATOM     11  C   UNL     1       6.263   6.195  17.594  0.00  0.00    +0.000 C 
BRANCH  11  12
ATOM     12  C   UNL     1       6.246   5.515  16.273  0.00  0.00    +0.000 A 
ATOM     13  N   UNL     1       5.333   4.694  15.787  0.00  0.00    +0.000 NA
ATOM     14  C   UNL     1       5.798   4.402  14.529  0.00  0.00    +0.000 A 
ATOM     15  C   UNL     1       5.267   3.594  13.515  0.00  0.00    +0.000 A 
ATOM     16  C   UNL     1       5.977   3.492  12.310  0.00  0.00    +0.000 A 
ATOM     17  C   UNL     1       7.187   4.174  12.121  0.00  0.00    +0.000 A 
ATOM     18  C   UNL     1       7.731   4.983  13.128  0.00  0.00    +0.000 A 
ATOM     19  C   UNL     1       6.995   5.060  14.305  0.00  0.00    +0.000 A 
ATOM     20  O   UNL     1       7.293   5.780  15.427  0.00  0.00    +0.000 OA
ENDBRANCH  11  12
ENDBRANCH   1  11
TORSDOF 5
ENDMDL
MODEL 7
REMARK VINA RESULT:      -6.8      1.281      1.790
REMARK  Name = 
REMARK  6 active torsions:
REMARK  status: ('A' for Active; 'I' for Inactive)
REMARK    1  A    between atoms: C_1  and  S_2
REMARK    2  A    between atoms: S_2  and  C_5
REMARK    3  A    between atoms: C_5  and  C_6
REMARK    4  A    between atoms: N_8  and  C_9
REMARK    5  A    between atoms: C_9  and  C_10
REMARK    6  A    between atoms: C_10  and  C_11
REMARK                            x       y       z     vdW  Elec       q    Type
REMARK                         _______ _______ _______ _____ _____    ______ ____
ROOT
ATOM      1  C   UNL     1       5.525   5.690  18.311  0.00  0.00    +0.000 C 
ENDROOT
BRANCH   1   4
ATOM      2  C   UNL     1       3.284   5.204  19.243  0.00  0.00    +0.000 C 
ATOM      3  O   UNL     1       2.745   5.244  18.139  0.00  0.00    +0.000 OA
ATOM      4  N   UNL     1       4.633   5.403  19.426  0.00  0.00    +0.000 N 
ATOM      5  H   UNL     1       4.997   5.529  20.366  0.00  0.00    +0.000 HD
BRANCH   2   6
ATOM      6  C   UNL     1       2.498   4.921  20.485  0.00  0.00    +0.000 C 
BRANCH   6   8
ATOM      7  C   UNL     1       1.172   2.536  19.756  0.00  0.00    +0.000 C 
ATOM      8  S   UNL     1       2.473   3.181  20.787  0.00  0.00    +0.000 S 
ATOM      9  O   UNL     1       2.101   2.977  22.174  0.00  0.00    +0.000 OA
ATOM     10  O   UNL     1       3.726   2.645  20.286  0.00  0.00    +0.000 OA
ENDBRANCH   6   8
ENDBRANCH   2   6
ENDBRANCH   1   4
BRANCH   1  11
ATOM     11  C   UNL     1       6.314   4.469  17.839  0.00  0.00    +0.000 C 
BRANCH  11  12
ATOM     12  C   UNL     1       6.538   4.540  16.372  0.00  0.00    +0.000 A 
ATOM     13  N   UNL     1       7.398   5.292  15.710  0.00  0.00    +0.000 NA
ATOM     14  C   UNL     1       7.207   4.927  14.401  0.00  0.00    +0.000 A 
ATOM     15  C   UNL     1       7.830   5.360  13.223  0.00  0.00    +0.000 A 
ATOM     16  C   UNL     1       7.421   4.788  12.010  0.00  0.00    +0.000 A 
ATOM     17  C   UNL     1       6.416   3.813  11.970  0.00  0.00    +0.000 A 
ATOM     18  C   UNL     1       5.782   3.372  13.139  0.00  0.00    +0.000 A 
ATOM     19  C   UNL     1       6.218   3.961  14.321  0.00  0.00    +0.000 A 
ATOM     20  O   UNL     1       5.779   3.706  15.589  0.00  0.00    +0.000 OA
ENDBRANCH  11  12
ENDBRANCH   1  11
TORSDOF 5
ENDMDL
MODEL 8
REMARK VINA RESULT:      -6.7      1.838      2.407
REMARK  Name = 
REMARK  6 active torsions:
REMARK  status: ('A' for Active; 'I' for Inactive)
REMARK    1  A    between atoms: C_1  and  S_2
REMARK    2  A    between atoms: S_2  and  C_5
REMARK    3  A    between atoms: C_5  and  C_6
REMARK    4  A    between atoms: N_8  and  C_9
REMARK    5  A    between atoms: C_9  and  C_10
REMARK    6  A    between atoms: C_10  and  C_11
REMARK                            x       y       z     vdW  Elec       q    Type
REMARK                         _______ _______ _______ _____ _____    ______ ____
ROOT
ATOM      1  C   UNL     1       4.423   6.353  17.725  0.00  0.00    +0.000 C 
ENDROOT
BRANCH   1   4
ATOM      2  C   UNL     1       2.745   5.330  19.229  0.00  0.00    +0.000 C 
ATOM      3  O   UNL     1       2.329   6.421  19.614  0.00  0.00    +0.000 OA
ATOM      4  N   UNL     1       3.758   5.196  18.307  0.00  0.00    +0.000 N 
ATOM      5  H   UNL     1       4.176   4.284  18.153  0.00  0.00    +0.000 HD
BRANCH   2   6
ATOM      6  C   UNL     1       2.162   4.049  19.738  0.00  0.00    +0.000 C 
BRANCH   6   8
ATOM      7  C   UNL     1       2.659   1.981  17.879  0.00  0.00    +0.000 C 
ATOM      8  S   UNL     1       1.429   3.159  18.401  0.00  0.00    +0.000 S 
ATOM      9  O   UNL     1       1.204   4.095  17.315  0.00  0.00    +0.000 OA
ATOM     10  O   UNL     1       0.316   2.405  18.951  0.00  0.00    +0.000 OA
ENDBRANCH   6   8
ENDBRANCH   2   6
ENDBRANCH   1   4
BRANCH   1  11
ATOM     11  C   UNL     1       5.922   6.142  17.506  0.00  0.00    +0.000 C 
BRANCH  11  12
ATOM     12  C   UNL     1       6.170   5.610  16.141  0.00  0.00    +0.000 A 
ATOM     13  N   UNL     1       7.233   5.781  15.377  0.00  0.00    +0.000 NA
ATOM     14  C   UNL     1       6.948   5.044  14.255  0.00  0.00    +0.000 A 
ATOM     15  C   UNL     1       7.688   4.818  13.087  0.00  0.00    +0.000 A 
ATOM     16  C   UNL     1       7.129   3.996  12.098  0.00  0.00    +0.000 A 
ATOM     17  C   UNL     1       5.864   3.418  12.265  0.00  0.00    +0.000 A 
ATOM     18  C   UNL     1       5.111   3.637  13.427  0.00  0.00    +0.000 A 
ATOM     19  C   UNL     1       5.701   4.455  14.384  0.00  0.00    +0.000 A 
ATOM     20  O   UNL     1       5.192   4.816  15.598  0.00  0.00    +0.000 OA
ENDBRANCH  11  12
ENDBRANCH   1  11
TORSDOF 5
ENDMDL
MODEL 9
REMARK VINA RESULT:      -6.7      1.321      1.334
REMARK  Name = 
REMARK  6 active torsions:
REMARK  status: ('A' for Active; 'I' for Inactive)
REMARK    1  A    between atoms: C_1  and  S_2
REMARK    2  A    between atoms: S_2  and  C_5
REMARK    3  A    between atoms: C_5  and  C_6
REMARK    4  A    between atoms: N_8  and  C_9
REMARK    5  A    between atoms: C_9  and  C_10
REMARK    6  A    between atoms: C_10  and  C_11
REMARK                            x       y       z     vdW  Elec       q    Type
REMARK                         _______ _______ _______ _____ _____    ______ ____
ROOT
ATOM      1  C   UNL     1       6.105   4.456  18.663  0.00  0.00    +0.000 C 
ENDROOT
BRANCH   1   4
ATOM      2  C   UNL     1       4.352   2.876  19.409  0.00  0.00    +0.000 C 
ATOM      3  O   UNL     1       5.094   2.338  20.227  0.00  0.00    +0.000 OA
ATOM      4  N   UNL     1       4.752   3.919  18.605  0.00  0.00    +0.000 N 
ATOM      5  H   UNL     1       4.161   4.212  17.834  0.00  0.00    +0.000 HD
BRANCH   2   6
ATOM      6  C   UNL     1       2.933   2.434  19.232  0.00  0.00    +0.000 C 
BRANCH   6   8
ATOM      7  C   UNL     1       1.439   4.391  17.848  0.00  0.00    +0.000 C 
ATOM      8  S   UNL     1       1.850   3.806  19.479  0.00  0.00    +0.000 S 
ATOM      9  O   UNL     1       2.597   4.845  20.162  0.00  0.00    +0.000 OA
ATOM     10  O   UNL     1       0.629   3.284  20.070  0.00  0.00    +0.000 OA
ENDBRANCH   6   8
ENDBRANCH   2   6
ENDBRANCH   1   4
BRANCH   1  11
ATOM     11  C   UNL     1       6.332   5.625  17.704  0.00  0.00    +0.000 C 
BRANCH  11  12
ATOM     12  C   UNL     1       6.383   5.135  16.302  0.00  0.00    +0.000 A 
ATOM     13  N   UNL     1       5.574   4.281  15.703  0.00  0.00    +0.000 NA
ATOM     14  C   UNL     1       6.055   4.224  14.420  0.00  0.00    +0.000 A 
ATOM     15  C   UNL     1       5.615   3.503  13.301  0.00  0.00    +0.000 A 
ATOM     16  C   UNL     1       6.317   3.657  12.097  0.00  0.00    +0.000 A 
ATOM     17  C   UNL     1       7.429   4.504  12.009  0.00  0.00    +0.000 A 
ATOM     18  C   UNL     1       7.882   5.230  13.119  0.00  0.00    +0.000 A 
ATOM     19  C   UNL     1       7.158   5.052  14.293  0.00  0.00    +0.000 A 
ATOM     20  O   UNL     1       7.378   5.642  15.504  0.00  0.00    +0.000 OA
ENDBRANCH  11  12
ENDBRANCH   1  11
TORSDOF 5
ENDMDL
