MODEL 1
REMARK VINA RESULT:      -7.4      0.000      0.000
REMARK  Name = 
REMARK  15 active torsions:
REMARK  status: ('A' for Active; 'I' for Inactive)
REMARK    1  A    between atoms: C_1  and  O_2
REMARK    2  A    between atoms: O_2  and  C_3
REMARK    3  A    between atoms: C_5  and  N_6
REMARK    4  A    between atoms: N_6  and  C_7
REMARK    5  A    between atoms: C_7  and  C_8
REMARK    6  A    between atoms: C_7  and  C_9
REMARK    7  A    between atoms: C_9  and  C_10
REMARK    8  A    between atoms: C_10  and  C_11
REMARK    9  A    between atoms: C_11  and  N_12
REMARK   10  A    between atoms: C_15  and  C_16
REMARK   11  A    between atoms: C_16  and  C_17
REMARK   12  A    between atoms: C_17  and  C_18
REMARK   13  A    between atoms: C_17  and  C_19
REMARK   14  A    between atoms: C_21  and  C_22
REMARK   15  A    between atoms: C_21  and  C_23
REMARK                            x       y       z     vdW  Elec       q    Type
REMARK                         _______ _______ _______ _____ _____    ______ ____
ROOT
ATOM      1  C   UNL     1       1.334   7.794  20.574  0.00  0.00    +0.000 C 
ATOM      2  C   UNL     1       1.402   8.609  21.863  0.00  0.00    +0.000 C 
ENDROOT
BRANCH   1   3
ATOM      3  N   UNL     1       2.394   6.797  20.528  0.00  0.00    +0.000 N 
ATOM      4  H   UNL     1       2.694   6.363  21.401  0.00  0.00    +0.000 HD
BRANCH   3   7
ATOM      5  C   UNL     1       4.086   5.660  17.409  0.00  0.00    +0.000 A 
ATOM      6  C   UNL     1       3.710   6.439  18.500  0.00  0.00    +0.000 A 
ATOM      7  C   UNL     1       2.729   6.022  19.412  0.00  0.00    +0.000 A 
ATOM      8  C   UNL     1       2.137   4.746  19.252  0.00  0.00    +0.000 A 
ATOM      9  N   UNL     1       1.223   4.293  20.143  0.00  0.00    +0.000 NA
ATOM     10  C   UNL     1       0.705   3.057  19.970  0.00  0.00    +0.000 A 
ATOM     11  C   UNL     1       1.038   2.220  18.925  0.00  0.00    +0.000 A 
ATOM     12  C   UNL     1       1.965   2.679  18.000  0.00  0.00    +0.000 A 
ATOM     13  C   UNL     1       2.536   3.951  18.149  0.00  0.00    +0.000 A 
ATOM     14  C   UNL     1       3.493   4.416  17.237  0.00  0.00    +0.000 A 
BRANCH   5  16
ATOM     15  C   UNL     1       6.092   6.831  16.909  0.00  0.00    +0.000 C 
ATOM     16  O   UNL     1       5.014   6.012  16.465  0.00  0.00    +0.000 OA
ENDBRANCH   5  16
ENDBRANCH   3   7
ENDBRANCH   1   3
BRANCH   1  17
ATOM     17  C   UNL     1       1.434   8.688  19.326  0.00  0.00    +0.000 C 
BRANCH  17  18
ATOM     18  C   UNL     1       0.976  10.136  19.577  0.00  0.00    +0.000 C 
BRANCH  18  19
ATOM     19  C   UNL     1       0.337  10.777  18.351  0.00  0.00    +0.000 C 
BRANCH  19  20
ATOM     20  N   UNL     1      -1.085  11.072  18.480  0.00  0.00    +0.000 N 
ATOM     21  C   UNL     1      -1.989  10.517  17.589  0.00  0.00    +0.000 C 
ATOM     22  O   UNL     1      -1.863   9.479  16.960  0.00  0.00    +0.000 OA
ATOM     23  C   UNL     1      -3.074  11.553  17.413  0.00  0.00    +0.000 C 
ATOM     24  N   UNL     1      -2.964  12.432  18.591  0.00  0.00    +0.000 NA
ATOM     25  C   UNL     1      -1.613  12.240  19.161  0.00  0.00    +0.000 C 
ATOM     26  C   UNL     1      -1.784  11.973  20.664  0.00  0.00    +0.000 C 
ATOM     27  C   UNL     1      -0.826  13.533  18.935  0.00  0.00    +0.000 C 
ATOM     28  H   UNL     1      -3.650  12.124  19.278  0.00  0.00    +0.000 HD
BRANCH  23  29
ATOM     29  C   UNL     1      -4.476  10.977  17.214  0.00  0.00    +0.000 C 
BRANCH  29  30
ATOM     30  C   UNL     1      -5.549  11.670  18.085  0.00  0.00    +0.000 C 
ATOM     31  C   UNL     1      -6.402  12.659  17.280  0.00  0.00    +0.000 C 
ATOM     32  C   UNL     1      -6.455  10.629  18.744  0.00  0.00    +0.000 C 
ENDBRANCH  29  30
ENDBRANCH  23  29
ENDBRANCH  19  20
ENDBRANCH  18  19
ENDBRANCH  17  18
ENDBRANCH   1  17
TORSDOF 9
ENDMDL
MODEL 2
REMARK VINA RESULT:      -7.4      2.587      3.777
REMARK  Name = 
REMARK  15 active torsions:
REMARK  status: ('A' for Active; 'I' for Inactive)
REMARK    1  A    between atoms: C_1  and  O_2
REMARK    2  A    between atoms: O_2  and  C_3
REMARK    3  A    between atoms: C_5  and  N_6
REMARK    4  A    between atoms: N_6  and  C_7
REMARK    5  A    between atoms: C_7  and  C_8
REMARK    6  A    between atoms: C_7  and  C_9
REMARK    7  A    between atoms: C_9  and  C_10
REMARK    8  A    between atoms: C_10  and  C_11
REMARK    9  A    between atoms: C_11  and  N_12
REMARK   10  A    between atoms: C_15  and  C_16
REMARK   11  A    between atoms: C_16  and  C_17
REMARK   12  A    between atoms: C_17  and  C_18
REMARK   13  A    between atoms: C_17  and  C_19
REMARK   14  A    between atoms: C_21  and  C_22
REMARK   15  A    between atoms: C_21  and  C_23
REMARK                            x       y       z     vdW  Elec       q    Type
REMARK                         _______ _______ _______ _____ _____    ______ ____
ROOT
ATOM      1  C   UNL     1       2.273   8.105  18.682  0.00  0.00    +0.000 C 
ATOM      2  C   UNL     1       1.626   9.093  17.716  0.00  0.00    +0.000 C 
ENDROOT
BRANCH   1   3
ATOM      3  N   UNL     1       2.234   6.750  18.150  0.00  0.00    +0.000 N 
ATOM      4  H   UNL     1       1.781   6.592  17.250  0.00  0.00    +0.000 HD
BRANCH   3   7
ATOM      5  C   UNL     1       5.388   4.784  18.425  0.00  0.00    +0.000 A 
ATOM      6  C   UNL     1       4.473   5.772  18.072  0.00  0.00    +0.000 A 
ATOM      7  C   UNL     1       3.131   5.726  18.476  0.00  0.00    +0.000 A 
ATOM      8  C   UNL     1       2.700   4.671  19.315  0.00  0.00    +0.000 A 
ATOM      9  N   UNL     1       1.422   4.624  19.764  0.00  0.00    +0.000 NA
ATOM     10  C   UNL     1       1.061   3.616  20.588  0.00  0.00    +0.000 A 
ATOM     11  C   UNL     1       1.911   2.609  20.995  0.00  0.00    +0.000 A 
ATOM     12  C   UNL     1       3.219   2.641  20.532  0.00  0.00    +0.000 A 
ATOM     13  C   UNL     1       3.639   3.677  19.686  0.00  0.00    +0.000 A 
ATOM     14  C   UNL     1       4.964   3.736  19.232  0.00  0.00    +0.000 A 
BRANCH   5  16
ATOM     15  C   UNL     1       7.600   5.573  18.787  0.00  0.00    +0.000 C 
ATOM     16  O   UNL     1       6.703   4.748  18.047  0.00  0.00    +0.000 OA
ENDBRANCH   5  16
ENDBRANCH   3   7
ENDBRANCH   1   3
BRANCH   1  17
ATOM     17  C   UNL     1       1.590   8.120  20.061  0.00  0.00    +0.000 C 
BRANCH  17  18
ATOM     18  C   UNL     1       1.252   9.539  20.555  0.00  0.00    +0.000 C 
BRANCH  18  19
ATOM     19  C   UNL     1      -0.248   9.790  20.656  0.00  0.00    +0.000 C 
BRANCH  19  20
ATOM     20  N   UNL     1      -0.622  11.148  21.028  0.00  0.00    +0.000 N 
ATOM     21  C   UNL     1      -0.916  11.448  22.349  0.00  0.00    +0.000 C 
ATOM     22  O   UNL     1      -0.510  10.870  23.343  0.00  0.00    +0.000 OA
ATOM     23  C   UNL     1      -1.988  12.509  22.296  0.00  0.00    +0.000 C 
ATOM     24  N   UNL     1      -1.888  13.094  20.946  0.00  0.00    +0.000 NA
ATOM     25  C   UNL     1      -1.160  12.125  20.099  0.00  0.00    +0.000 C 
ATOM     26  C   UNL     1      -0.033  12.893  19.390  0.00  0.00    +0.000 C 
ATOM     27  C   UNL     1      -2.151  11.568  19.075  0.00  0.00    +0.000 C 
ATOM     28  H   UNL     1      -1.332  13.945  21.014  0.00  0.00    +0.000 HD
BRANCH  23  29
ATOM     29  C   UNL     1      -1.909  13.548  23.415  0.00  0.00    +0.000 C 
BRANCH  29  30
ATOM     30  C   UNL     1      -3.282  13.866  24.050  0.00  0.00    +0.000 C 
ATOM     31  C   UNL     1      -4.051  12.597  24.438  0.00  0.00    +0.000 C 
ATOM     32  C   UNL     1      -3.105  14.755  25.282  0.00  0.00    +0.000 C 
ENDBRANCH  29  30
ENDBRANCH  23  29
ENDBRANCH  19  20
ENDBRANCH  18  19
ENDBRANCH  17  18
ENDBRANCH   1  17
TORSDOF 9
ENDMDL
MODEL 3
REMARK VINA RESULT:      -7.4      1.282      1.724
REMARK  Name = 
REMARK  15 active torsions:
REMARK  status: ('A' for Active; 'I' for Inactive)
REMARK    1  A    between atoms: C_1  and  O_2
REMARK    2  A    between atoms: O_2  and  C_3
REMARK    3  A    between atoms: C_5  and  N_6
REMARK    4  A    between atoms: N_6  and  C_7
REMARK    5  A    between atoms: C_7  and  C_8
REMARK    6  A    between atoms: C_7  and  C_9
REMARK    7  A    between atoms: C_9  and  C_10
REMARK    8  A    between atoms: C_10  and  C_11
REMARK    9  A    between atoms: C_11  and  N_12
REMARK   10  A    between atoms: C_15  and  C_16
REMARK   11  A    between atoms: C_16  and  C_17
REMARK   12  A    between atoms: C_17  and  C_18
REMARK   13  A    between atoms: C_17  and  C_19
REMARK   14  A    between atoms: C_21  and  C_22
REMARK   15  A    between atoms: C_21  and  C_23
REMARK                            x       y       z     vdW  Elec       q    Type
REMARK                         _______ _______ _______ _____ _____    ______ ____
ROOT
ATOM      1  C   UNL     1       0.988   8.253  20.957  0.00  0.00    +0.000 C 
ATOM      2  C   UNL     1      -0.465   7.880  21.234  0.00  0.00    +0.000 C 
ENDROOT
BRANCH   1   3
ATOM      3  N   UNL     1       1.842   7.075  20.964  0.00  0.00    +0.000 N 
ATOM      4  H   UNL     1       1.846   6.480  21.792  0.00  0.00    +0.000 HD
BRANCH   3   7
ATOM      5  C   UNL     1       3.654   6.347  17.789  0.00  0.00    +0.000 A 
ATOM      6  C   UNL     1       3.154   7.018  18.902  0.00  0.00    +0.000 A 
ATOM      7  C   UNL     1       2.300   6.400  19.827  0.00  0.00    +0.000 A 
ATOM      8  C   UNL     1       1.976   5.033  19.657  0.00  0.00    +0.000 A 
ATOM      9  N   UNL     1       1.194   4.391  20.559  0.00  0.00    +0.000 NA
ATOM     10  C   UNL     1       0.933   3.078  20.375  0.00  0.00    +0.000 A 
ATOM     11  C   UNL     1       1.403   2.340  19.308  0.00  0.00    +0.000 A 
ATOM     12  C   UNL     1       2.195   2.990  18.372  0.00  0.00    +0.000 A 
ATOM     13  C   UNL     1       2.500   4.349  18.532  0.00  0.00    +0.000 A 
ATOM     14  C   UNL     1       3.321   5.011  17.608  0.00  0.00    +0.000 A 
BRANCH   5  16
ATOM     15  C   UNL     1       5.184   5.974  16.010  0.00  0.00    +0.000 C 
ATOM     16  O   UNL     1       4.468   6.892  16.833  0.00  0.00    +0.000 OA
ENDBRANCH   5  16
ENDBRANCH   3   7
ENDBRANCH   1   3
BRANCH   1  17
ATOM     17  C   UNL     1       1.525   9.268  21.981  0.00  0.00    +0.000 C 
BRANCH  17  18
ATOM     18  C   UNL     1       0.618  10.501  22.149  0.00  0.00    +0.000 C 
BRANCH  18  19
ATOM     19  C   UNL     1       0.780  11.513  21.021  0.00  0.00    +0.000 C 
BRANCH  19  20
ATOM     20  N   UNL     1      -0.419  11.745  20.225  0.00  0.00    +0.000 N 
ATOM     21  C   UNL     1      -0.514  11.219  18.947  0.00  0.00    +0.000 C 
ATOM     22  O   UNL     1       0.055  10.230  18.513  0.00  0.00    +0.000 OA
ATOM     23  C   UNL     1      -1.312  12.223  18.151  0.00  0.00    +0.000 C 
ATOM     24  N   UNL     1      -2.035  13.025  19.155  0.00  0.00    +0.000 NA
ATOM     25  C   UNL     1      -1.340  12.845  20.447  0.00  0.00    +0.000 C 
ATOM     26  C   UNL     1      -2.404  12.473  21.491  0.00  0.00    +0.000 C 
ATOM     27  C   UNL     1      -0.682  14.178  20.810  0.00  0.00    +0.000 C 
ATOM     28  H   UNL     1      -2.977  12.646  19.240  0.00  0.00    +0.000 HD
BRANCH  23  29
ATOM     29  C   UNL     1      -2.227  11.610  17.091  0.00  0.00    +0.000 C 
BRANCH  29  30
ATOM     30  C   UNL     1      -3.526  11.013  17.677  0.00  0.00    +0.000 C 
ATOM     31  C   UNL     1      -4.777  11.499  16.935  0.00  0.00    +0.000 C 
ATOM     32  C   UNL     1      -3.473   9.485  17.645  0.00  0.00    +0.000 C 
ENDBRANCH  29  30
ENDBRANCH  23  29
ENDBRANCH  19  20
ENDBRANCH  18  19
ENDBRANCH  17  18
ENDBRANCH   1  17
TORSDOF 9
ENDMDL
MODEL 4
REMARK VINA RESULT:      -7.3      6.583      9.951
REMARK  Name = 
REMARK  15 active torsions:
REMARK  status: ('A' for Active; 'I' for Inactive)
REMARK    1  A    between atoms: C_1  and  O_2
REMARK    2  A    between atoms: O_2  and  C_3
REMARK    3  A    between atoms: C_5  and  N_6
REMARK    4  A    between atoms: N_6  and  C_7
REMARK    5  A    between atoms: C_7  and  C_8
REMARK    6  A    between atoms: C_7  and  C_9
REMARK    7  A    between atoms: C_9  and  C_10
REMARK    8  A    between atoms: C_10  and  C_11
REMARK    9  A    between atoms: C_11  and  N_12
REMARK   10  A    between atoms: C_15  and  C_16
REMARK   11  A    between atoms: C_16  and  C_17
REMARK   12  A    between atoms: C_17  and  C_18
REMARK   13  A    between atoms: C_17  and  C_19
REMARK   14  A    between atoms: C_21  and  C_22
REMARK   15  A    between atoms: C_21  and  C_23
REMARK                            x       y       z     vdW  Elec       q    Type
REMARK                         _______ _______ _______ _____ _____    ______ ____
ROOT
ATOM      1  C   UNL     1       7.274   7.917  18.046  0.00  0.00    +0.000 C 
ATOM      2  C   UNL     1       8.040   6.687  18.526  0.00  0.00    +0.000 C 
ENDROOT
BRANCH   1   3
ATOM      3  N   UNL     1       6.331   7.569  16.993  0.00  0.00    +0.000 N 
ATOM      4  H   UNL     1       6.425   8.022  16.084  0.00  0.00    +0.000 HD
BRANCH   3   7
ATOM      5  C   UNL     1       3.808   4.921  17.707  0.00  0.00    +0.000 A 
ATOM      6  C   UNL     1       4.562   6.087  17.800  0.00  0.00    +0.000 A 
ATOM      7  C   UNL     1       5.612   6.371  16.913  0.00  0.00    +0.000 A 
ATOM      8  C   UNL     1       5.882   5.470  15.856  0.00  0.00    +0.000 A 
ATOM      9  N   UNL     1       6.857   5.739  14.953  0.00  0.00    +0.000 NA
ATOM     10  C   UNL     1       7.063   4.867  13.942  0.00  0.00    +0.000 A 
ATOM     11  C   UNL     1       6.348   3.699  13.772  0.00  0.00    +0.000 A 
ATOM     12  C   UNL     1       5.356   3.408  14.698  0.00  0.00    +0.000 A 
ATOM     13  C   UNL     1       5.102   4.293  15.755  0.00  0.00    +0.000 A 
ATOM     14  C   UNL     1       4.084   4.024  16.682  0.00  0.00    +0.000 A 
BRANCH   5  16
ATOM     15  C   UNL     1       1.586   4.110  17.934  0.00  0.00    +0.000 C 
ATOM     16  O   UNL     1       2.789   4.565  18.549  0.00  0.00    +0.000 OA
ENDBRANCH   5  16
ENDBRANCH   3   7
ENDBRANCH   1   3
BRANCH   1  17
ATOM     17  C   UNL     1       8.220   9.015  17.528  0.00  0.00    +0.000 C 
BRANCH  17  18
ATOM     18  C   UNL     1       8.846   9.859  18.654  0.00  0.00    +0.000 C 
BRANCH  18  19
ATOM     19  C   UNL     1       9.808  10.920  18.135  0.00  0.00    +0.000 C 
BRANCH  19  20
ATOM     20  N   UNL     1       9.805  12.172  18.880  0.00  0.00    +0.000 N 
ATOM     21  C   UNL     1       9.335  13.331  18.283  0.00  0.00    +0.000 C 
ATOM     22  O   UNL     1       8.523  13.416  17.376  0.00  0.00    +0.000 OA
ATOM     23  C   UNL     1      10.173  14.451  18.852  0.00  0.00    +0.000 C 
ATOM     24  N   UNL     1      10.741  13.912  20.102  0.00  0.00    +0.000 NA
ATOM     25  C   UNL     1      10.656  12.438  20.025  0.00  0.00    +0.000 C 
ATOM     26  C   UNL     1      10.003  11.948  21.326  0.00  0.00    +0.000 C 
ATOM     27  C   UNL     1      12.084  11.897  19.909  0.00  0.00    +0.000 C 
ATOM     28  H   UNL     1      10.156  14.228  20.874  0.00  0.00    +0.000 HD
BRANCH  23  29
ATOM     29  C   UNL     1       9.424  15.769  19.045  0.00  0.00    +0.000 C 
BRANCH  29  30
ATOM     30  C   UNL     1       9.735  16.813  17.948  0.00  0.00    +0.000 C 
ATOM     31  C   UNL     1       9.001  18.139  18.182  0.00  0.00    +0.000 C 
ATOM     32  C   UNL     1      11.241  17.068  17.867  0.00  0.00    +0.000 C 
ENDBRANCH  29  30
ENDBRANCH  23  29
ENDBRANCH  19  20
ENDBRANCH  18  19
ENDBRANCH  17  18
ENDBRANCH   1  17
TORSDOF 9
ENDMDL
MODEL 5
REMARK VINA RESULT:      -7.3      2.385      4.071
REMARK  Name = 
REMARK  15 active torsions:
REMARK  status: ('A' for Active; 'I' for Inactive)
REMARK    1  A    between atoms: C_1  and  O_2
REMARK    2  A    between atoms: O_2  and  C_3
REMARK    3  A    between atoms: C_5  and  N_6
REMARK    4  A    between atoms: N_6  and  C_7
REMARK    5  A    between atoms: C_7  and  C_8
REMARK    6  A    between atoms: C_7  and  C_9
REMARK    7  A    between atoms: C_9  and  C_10
REMARK    8  A    between atoms: C_10  and  C_11
REMARK    9  A    between atoms: C_11  and  N_12
REMARK   10  A    between atoms: C_15  and  C_16
REMARK   11  A    between atoms: C_16  and  C_17
REMARK   12  A    between atoms: C_17  and  C_18
REMARK   13  A    between atoms: C_17  and  C_19
REMARK   14  A    between atoms: C_21  and  C_22
REMARK   15  A    between atoms: C_21  and  C_23
REMARK                            x       y       z     vdW  Elec       q    Type
REMARK                         _______ _______ _______ _____ _____    ______ ____
ROOT
ATOM      1  C   UNL     1       1.770   7.922  18.877  0.00  0.00    +0.000 C 
ATOM      2  C   UNL     1       1.933   7.690  20.377  0.00  0.00    +0.000 C 
ENDROOT
BRANCH   1   3
ATOM      3  N   UNL     1       2.942   7.464  18.145  0.00  0.00    +0.000 N 
ATOM      4  H   UNL     1       3.769   8.059  18.125  0.00  0.00    +0.000 HD
BRANCH   3   7
ATOM      5  C   UNL     1       2.547   3.797  17.609  0.00  0.00    +0.000 A 
ATOM      6  C   UNL     1       2.271   5.123  17.931  0.00  0.00    +0.000 A 
ATOM      7  C   UNL     1       3.247   6.128  17.861  0.00  0.00    +0.000 A 
ATOM      8  C   UNL     1       4.542   5.797  17.397  0.00  0.00    +0.000 A 
ATOM      9  N   UNL     1       5.495   6.754  17.270  0.00  0.00    +0.000 NA
ATOM     10  C   UNL     1       6.709   6.401  16.795  0.00  0.00    +0.000 A 
ATOM     11  C   UNL     1       7.055   5.113  16.440  0.00  0.00    +0.000 A 
ATOM     12  C   UNL     1       6.091   4.124  16.577  0.00  0.00    +0.000 A 
ATOM     13  C   UNL     1       4.814   4.450  17.054  0.00  0.00    +0.000 A 
ATOM     14  C   UNL     1       3.823   3.465  17.173  0.00  0.00    +0.000 A 
BRANCH   5  16
ATOM     15  C   UNL     1       0.967   2.596  18.916  0.00  0.00    +0.000 C 
ATOM     16  O   UNL     1       1.655   2.761  17.678  0.00  0.00    +0.000 OA
ENDBRANCH   5  16
ENDBRANCH   3   7
ENDBRANCH   1   3
BRANCH   1  17
ATOM     17  C   UNL     1       1.525   9.406  18.551  0.00  0.00    +0.000 C 
BRANCH  17  18
ATOM     18  C   UNL     1       0.972  10.208  19.744  0.00  0.00    +0.000 C 
BRANCH  18  19
ATOM     19  C   UNL     1      -0.550  10.212  19.799  0.00  0.00    +0.000 C 
BRANCH  19  20
ATOM     20  N   UNL     1      -1.153  11.511  20.074  0.00  0.00    +0.000 N 
ATOM     21  C   UNL     1      -1.618  11.802  21.347  0.00  0.00    +0.000 C 
ATOM     22  O   UNL     1      -1.234  11.320  22.400  0.00  0.00    +0.000 OA
ATOM     23  C   UNL     1      -2.822  12.691  21.146  0.00  0.00    +0.000 C 
ATOM     24  N   UNL     1      -2.673  13.243  19.788  0.00  0.00    +0.000 NA
ATOM     25  C   UNL     1      -1.730  12.370  19.057  0.00  0.00    +0.000 C 
ATOM     26  C   UNL     1      -0.662  13.275  18.425  0.00  0.00    +0.000 C 
ATOM     27  C   UNL     1      -2.523  11.641  17.968  0.00  0.00    +0.000 C 
ATOM     28  H   UNL     1      -2.255  14.169  19.870  0.00  0.00    +0.000 HD
BRANCH  23  29
ATOM     29  C   UNL     1      -3.007  13.762  22.220  0.00  0.00    +0.000 C 
BRANCH  29  30
ATOM     30  C   UNL     1      -4.279  13.558  23.073  0.00  0.00    +0.000 C 
ATOM     31  C   UNL     1      -5.448  13.002  22.251  0.00  0.00    +0.000 C 
ATOM     32  C   UNL     1      -3.989  12.622  24.248  0.00  0.00    +0.000 C 
ENDBRANCH  29  30
ENDBRANCH  23  29
ENDBRANCH  19  20
ENDBRANCH  18  19
ENDBRANCH  17  18
ENDBRANCH   1  17
TORSDOF 9
ENDMDL
MODEL 6
REMARK VINA RESULT:      -7.2      2.424      3.536
REMARK  Name = 
REMARK  15 active torsions:
REMARK  status: ('A' for Active; 'I' for Inactive)
REMARK    1  A    between atoms: C_1  and  O_2
REMARK    2  A    between atoms: O_2  and  C_3
REMARK    3  A    between atoms: C_5  and  N_6
REMARK    4  A    between atoms: N_6  and  C_7
REMARK    5  A    between atoms: C_7  and  C_8
REMARK    6  A    between atoms: C_7  and  C_9
REMARK    7  A    between atoms: C_9  and  C_10
REMARK    8  A    between atoms: C_10  and  C_11
REMARK    9  A    between atoms: C_11  and  N_12
REMARK   10  A    between atoms: C_15  and  C_16
REMARK   11  A    between atoms: C_16  and  C_17
REMARK   12  A    between atoms: C_17  and  C_18
REMARK   13  A    between atoms: C_17  and  C_19
REMARK   14  A    between atoms: C_21  and  C_22
REMARK   15  A    between atoms: C_21  and  C_23
REMARK                            x       y       z     vdW  Elec       q    Type
REMARK                         _______ _______ _______ _____ _____    ______ ____
ROOT
ATOM      1  C   UNL     1       2.217   8.141  18.882  0.00  0.00    +0.000 C 
ATOM      2  C   UNL     1       1.838   9.126  17.780  0.00  0.00    +0.000 C 
ENDROOT
BRANCH   1   3
ATOM      3  N   UNL     1       1.952   6.770  18.473  0.00  0.00    +0.000 N 
ATOM      4  H   UNL     1       1.009   6.523  18.172  0.00  0.00    +0.000 HD
BRANCH   3   7
ATOM      5  C   UNL     1       5.122   5.422  17.048  0.00  0.00    +0.000 A 
ATOM      6  C   UNL     1       4.140   6.308  17.486  0.00  0.00    +0.000 A 
ATOM      7  C   UNL     1       2.910   5.867  17.996  0.00  0.00    +0.000 A 
ATOM      8  C   UNL     1       2.675   4.478  18.122  0.00  0.00    +0.000 A 
ATOM      9  N   UNL     1       1.517   4.019  18.657  0.00  0.00    +0.000 NA
ATOM     10  C   UNL     1       1.346   2.685  18.787  0.00  0.00    +0.000 A 
ATOM     11  C   UNL     1       2.276   1.745  18.392  0.00  0.00    +0.000 A 
ATOM     12  C   UNL     1       3.460   2.203  17.832  0.00  0.00    +0.000 A 
ATOM     13  C   UNL     1       3.683   3.580  17.691  0.00  0.00    +0.000 A 
ATOM     14  C   UNL     1       4.886   4.057  17.151  0.00  0.00    +0.000 A 
BRANCH   5  16
ATOM     15  C   UNL     1       6.961   4.817  15.671  0.00  0.00    +0.000 C 
ATOM     16  O   UNL     1       6.331   5.778  16.516  0.00  0.00    +0.000 OA
ENDBRANCH   5  16
ENDBRANCH   3   7
ENDBRANCH   1   3
BRANCH   1  17
ATOM     17  C   UNL     1       1.461   8.428  20.191  0.00  0.00    +0.000 C 
BRANCH  17  18
ATOM     18  C   UNL     1       1.035   9.900  20.337  0.00  0.00    +0.000 C 
BRANCH  18  19
ATOM     19  C   UNL     1      -0.457  10.061  20.600  0.00  0.00    +0.000 C 
BRANCH  19  20
ATOM     20  N   UNL     1      -0.868  11.396  21.018  0.00  0.00    +0.000 N 
ATOM     21  C   UNL     1      -1.106  11.658  22.358  0.00  0.00    +0.000 C 
ATOM     22  O   UNL     1      -0.624  11.080  23.319  0.00  0.00    +0.000 OA
ATOM     23  C   UNL     1      -2.223  12.673  22.382  0.00  0.00    +0.000 C 
ATOM     24  N   UNL     1      -2.218  13.286  21.041  0.00  0.00    +0.000 NA
ATOM     25  C   UNL     1      -1.495  12.366  20.138  0.00  0.00    +0.000 C 
ATOM     26  C   UNL     1      -0.440  13.194  19.388  0.00  0.00    +0.000 C 
ATOM     27  C   UNL     1      -2.514  11.784  19.155  0.00  0.00    +0.000 C 
ATOM     28  H   UNL     1      -1.696  14.159  21.097  0.00  0.00    +0.000 HD
BRANCH  23  29
ATOM     29  C   UNL     1      -2.130  13.694  23.516  0.00  0.00    +0.000 C 
BRANCH  29  30
ATOM     30  C   UNL     1      -3.420  13.787  24.361  0.00  0.00    +0.000 C 
ATOM     31  C   UNL     1      -4.395  14.841  23.821  0.00  0.00    +0.000 C 
ATOM     32  C   UNL     1      -4.118  12.426  24.420  0.00  0.00    +0.000 C 
ENDBRANCH  29  30
ENDBRANCH  23  29
ENDBRANCH  19  20
ENDBRANCH  18  19
ENDBRANCH  17  18
ENDBRANCH   1  17
TORSDOF 9
ENDMDL
MODEL 7
REMARK VINA RESULT:      -7.2      2.314      8.961
REMARK  Name = 
REMARK  15 active torsions:
REMARK  status: ('A' for Active; 'I' for Inactive)
REMARK    1  A    between atoms: C_1  and  O_2
REMARK    2  A    between atoms: O_2  and  C_3
REMARK    3  A    between atoms: C_5  and  N_6
REMARK    4  A    between atoms: N_6  and  C_7
REMARK    5  A    between atoms: C_7  and  C_8
REMARK    6  A    between atoms: C_7  and  C_9
REMARK    7  A    between atoms: C_9  and  C_10
REMARK    8  A    between atoms: C_10  and  C_11
REMARK    9  A    between atoms: C_11  and  N_12
REMARK   10  A    between atoms: C_15  and  C_16
REMARK   11  A    between atoms: C_16  and  C_17
REMARK   12  A    between atoms: C_17  and  C_18
REMARK   13  A    between atoms: C_17  and  C_19
REMARK   14  A    between atoms: C_21  and  C_22
REMARK   15  A    between atoms: C_21  and  C_23
REMARK                            x       y       z     vdW  Elec       q    Type
REMARK                         _______ _______ _______ _____ _____    ______ ____
ROOT
ATOM      1  C   UNL     1       2.074   8.699  18.742  0.00  0.00    +0.000 C 
ATOM      2  C   UNL     1       1.955   7.525  19.710  0.00  0.00    +0.000 C 
ENDROOT
BRANCH   1   3
ATOM      3  N   UNL     1       0.761   9.190  18.350  0.00  0.00    +0.000 N 
ATOM      4  H   UNL     1       0.177   8.602  17.756  0.00  0.00    +0.000 HD
BRANCH   3   7
ATOM      5  C   UNL     1      -0.180  11.797  20.842  0.00  0.00    +0.000 A 
ATOM      6  C   UNL     1       0.536  10.815  20.162  0.00  0.00    +0.000 A 
ATOM      7  C   UNL     1       0.011  10.142  19.049  0.00  0.00    +0.000 A 
ATOM      8  C   UNL     1      -1.268  10.508  18.565  0.00  0.00    +0.000 A 
ATOM      9  N   UNL     1      -1.784   9.912  17.461  0.00  0.00    +0.000 NA
ATOM     10  C   UNL     1      -2.995  10.311  17.015  0.00  0.00    +0.000 A 
ATOM     11  C   UNL     1      -3.759  11.286  17.623  0.00  0.00    +0.000 A 
ATOM     12  C   UNL     1      -3.245  11.894  18.760  0.00  0.00    +0.000 A 
ATOM     13  C   UNL     1      -1.987  11.518  19.249  0.00  0.00    +0.000 A 
ATOM     14  C   UNL     1      -1.444  12.143  20.381  0.00  0.00    +0.000 A 
BRANCH   5  16
ATOM     15  C   UNL     1      -0.299  13.772  22.157  0.00  0.00    +0.000 C 
ATOM     16  O   UNL     1       0.255  12.475  21.948  0.00  0.00    +0.000 OA
ENDBRANCH   5  16
ENDBRANCH   3   7
ENDBRANCH   1   3
BRANCH   1  17
ATOM     17  C   UNL     1       2.866   8.322  17.478  0.00  0.00    +0.000 C 
BRANCH  17  18
ATOM     18  C   UNL     1       4.243   7.706  17.785  0.00  0.00    +0.000 C 
BRANCH  18  19
ATOM     19  C   UNL     1       4.656   6.644  16.773  0.00  0.00    +0.000 C 
BRANCH  19  20
ATOM     20  N   UNL     1       4.831   5.305  17.322  0.00  0.00    +0.000 N 
ATOM     21  C   UNL     1       3.737   4.613  17.817  0.00  0.00    +0.000 C 
ATOM     22  O   UNL     1       2.568   4.752  17.493  0.00  0.00    +0.000 OA
ATOM     23  C   UNL     1       4.262   3.791  18.970  0.00  0.00    +0.000 C 
ATOM     24  N   UNL     1       5.717   3.700  18.747  0.00  0.00    +0.000 NA
ATOM     25  C   UNL     1       6.092   4.790  17.823  0.00  0.00    +0.000 C 
ATOM     26  C   UNL     1       6.923   4.167  16.691  0.00  0.00    +0.000 C 
ATOM     27  C   UNL     1       6.935   5.797  18.611  0.00  0.00    +0.000 C 
ATOM     28  H   UNL     1       5.908   2.810  18.290  0.00  0.00    +0.000 HD
BRANCH  23  29
ATOM     29  C   UNL     1       3.587   2.431  19.141  0.00  0.00    +0.000 C 
BRANCH  29  30
ATOM     30  C   UNL     1       2.374   2.468  20.098  0.00  0.00    +0.000 C 
ATOM     31  C   UNL     1       2.369   3.720  20.983  0.00  0.00    +0.000 C 
ATOM     32  C   UNL     1       1.068   2.395  19.306  0.00  0.00    +0.000 C 
ENDBRANCH  29  30
ENDBRANCH  23  29
ENDBRANCH  19  20
ENDBRANCH  18  19
ENDBRANCH  17  18
ENDBRANCH   1  17
TORSDOF 9
ENDMDL
MODEL 8
REMARK VINA RESULT:      -7.2      2.137      9.203
REMARK  Name = 
REMARK  15 active torsions:
REMARK  status: ('A' for Active; 'I' for Inactive)
REMARK    1  A    between atoms: C_1  and  O_2
REMARK    2  A    between atoms: O_2  and  C_3
REMARK    3  A    between atoms: C_5  and  N_6
REMARK    4  A    between atoms: N_6  and  C_7
REMARK    5  A    between atoms: C_7  and  C_8
REMARK    6  A    between atoms: C_7  and  C_9
REMARK    7  A    between atoms: C_9  and  C_10
REMARK    8  A    between atoms: C_10  and  C_11
REMARK    9  A    between atoms: C_11  and  N_12
REMARK   10  A    between atoms: C_15  and  C_16
REMARK   11  A    between atoms: C_16  and  C_17
REMARK   12  A    between atoms: C_17  and  C_18
REMARK   13  A    between atoms: C_17  and  C_19
REMARK   14  A    between atoms: C_21  and  C_22
REMARK   15  A    between atoms: C_21  and  C_23
REMARK                            x       y       z     vdW  Elec       q    Type
REMARK                         _______ _______ _______ _____ _____    ______ ____
ROOT
ATOM      1  C   UNL     1       1.761   8.076  18.902  0.00  0.00    +0.000 C 
ATOM      2  C   UNL     1       2.776   8.297  17.784  0.00  0.00    +0.000 C 
ENDROOT
BRANCH   1   3
ATOM      3  N   UNL     1       1.269   9.343  19.422  0.00  0.00    +0.000 N 
ATOM      4  H   UNL     1       1.925   9.965  19.895  0.00  0.00    +0.000 HD
BRANCH   3   7
ATOM      5  C   UNL     1      -1.701  10.243  17.359  0.00  0.00    +0.000 A 
ATOM      6  C   UNL     1      -0.550   9.603  17.810  0.00  0.00    +0.000 A 
ATOM      7  C   UNL     1       0.138  10.024  18.957  0.00  0.00    +0.000 A 
ATOM      8  C   UNL     1      -0.381  11.101  19.715  0.00  0.00    +0.000 A 
ATOM      9  N   UNL     1       0.232  11.501  20.856  0.00  0.00    +0.000 NA
ATOM     10  C   UNL     1      -0.314  12.513  21.565  0.00  0.00    +0.000 A 
ATOM     11  C   UNL     1      -1.459  13.187  21.193  0.00  0.00    +0.000 A 
ATOM     12  C   UNL     1      -2.088  12.793  20.020  0.00  0.00    +0.000 A 
ATOM     13  C   UNL     1      -1.562  11.739  19.262  0.00  0.00    +0.000 A 
ATOM     14  C   UNL     1      -2.202  11.314  18.089  0.00  0.00    +0.000 A 
BRANCH   5  16
ATOM     15  C   UNL     1      -3.089  10.968  15.571  0.00  0.00    +0.000 C 
ATOM     16  O   UNL     1      -2.409   9.906  16.237  0.00  0.00    +0.000 OA
ENDBRANCH   5  16
ENDBRANCH   3   7
ENDBRANCH   1   3
BRANCH   1  17
ATOM     17  C   UNL     1       2.355   7.256  20.062  0.00  0.00    +0.000 C 
BRANCH  17  18
ATOM     18  C   UNL     1       1.612   5.930  20.311  0.00  0.00    +0.000 C 
BRANCH  18  19
ATOM     19  C   UNL     1       2.552   4.779  20.648  0.00  0.00    +0.000 C 
BRANCH  19  20
ATOM     20  N   UNL     1       3.243   4.193  19.507  0.00  0.00    +0.000 N 
ATOM     21  C   UNL     1       4.425   4.757  19.051  0.00  0.00    +0.000 C 
ATOM     22  O   UNL     1       5.226   5.414  19.696  0.00  0.00    +0.000 OA
ATOM     23  C   UNL     1       4.421   4.555  17.555  0.00  0.00    +0.000 C 
ATOM     24  N   UNL     1       3.466   3.458  17.315  0.00  0.00    +0.000 NA
ATOM     25  C   UNL     1       2.601   3.357  18.510  0.00  0.00    +0.000 C 
ATOM     26  C   UNL     1       2.594   1.884  18.947  0.00  0.00    +0.000 C 
ATOM     27  C   UNL     1       1.193   3.799  18.103  0.00  0.00    +0.000 C 
ATOM     28  H   UNL     1       3.997   2.593  17.228  0.00  0.00    +0.000 HD
BRANCH  23  29
ATOM     29  C   UNL     1       5.800   4.303  16.944  0.00  0.00    +0.000 C 
BRANCH  29  30
ATOM     30  C   UNL     1       6.320   5.491  16.103  0.00  0.00    +0.000 C 
ATOM     31  C   UNL     1       7.232   6.421  16.912  0.00  0.00    +0.000 C 
ATOM     32  C   UNL     1       7.070   4.982  14.870  0.00  0.00    +0.000 C 
ENDBRANCH  29  30
ENDBRANCH  23  29
ENDBRANCH  19  20
ENDBRANCH  18  19
ENDBRANCH  17  18
ENDBRANCH   1  17
TORSDOF 9
ENDMDL
MODEL 9
REMARK VINA RESULT:      -7.2      2.151      2.870
REMARK  Name = 
REMARK  15 active torsions:
REMARK  status: ('A' for Active; 'I' for Inactive)
REMARK    1  A    between atoms: C_1  and  O_2
REMARK    2  A    between atoms: O_2  and  C_3
REMARK    3  A    between atoms: C_5  and  N_6
REMARK    4  A    between atoms: N_6  and  C_7
REMARK    5  A    between atoms: C_7  and  C_8
REMARK    6  A    between atoms: C_7  and  C_9
REMARK    7  A    between atoms: C_9  and  C_10
REMARK    8  A    between atoms: C_10  and  C_11
REMARK    9  A    between atoms: C_11  and  N_12
REMARK   10  A    between atoms: C_15  and  C_16
REMARK   11  A    between atoms: C_16  and  C_17
REMARK   12  A    between atoms: C_17  and  C_18
REMARK   13  A    between atoms: C_17  and  C_19
REMARK   14  A    between atoms: C_21  and  C_22
REMARK   15  A    between atoms: C_21  and  C_23
REMARK                            x       y       z     vdW  Elec       q    Type
REMARK                         _______ _______ _______ _____ _____    ______ ____
ROOT
ATOM      1  C   UNL     1       1.546   7.733  20.070  0.00  0.00    +0.000 C 
ATOM      2  C   UNL     1       1.263   8.224  21.487  0.00  0.00    +0.000 C 
ENDROOT
BRANCH   1   3
ATOM      3  N   UNL     1       2.740   6.902  20.033  0.00  0.00    +0.000 N 
ATOM      4  H   UNL     1       3.207   6.677  20.911  0.00  0.00    +0.000 HD
BRANCH   3   7
ATOM      5  C   UNL     1       4.448   5.352  17.105  0.00  0.00    +0.000 A 
ATOM      6  C   UNL     1       4.085   6.262  18.094  0.00  0.00    +0.000 A 
ATOM      7  C   UNL     1       3.063   5.994  19.017  0.00  0.00    +0.000 A 
ATOM      8  C   UNL     1       2.414   4.737  18.980  0.00  0.00    +0.000 A 
ATOM      9  N   UNL     1       1.457   4.427  19.889  0.00  0.00    +0.000 NA
ATOM     10  C   UNL     1       0.884   3.205  19.836  0.00  0.00    +0.000 A 
ATOM     11  C   UNL     1       1.200   2.244  18.898  0.00  0.00    +0.000 A 
ATOM     12  C   UNL     1       2.170   2.555  17.956  0.00  0.00    +0.000 A 
ATOM     13  C   UNL     1       2.799   3.807  17.982  0.00  0.00    +0.000 A 
ATOM     14  C   UNL     1       3.799   4.125  17.053  0.00  0.00    +0.000 A 
BRANCH   5  16
ATOM     15  C   UNL     1       5.411   4.660  15.046  0.00  0.00    +0.000 C 
ATOM     16  O   UNL     1       5.413   5.554  16.156  0.00  0.00    +0.000 OA
ENDBRANCH   5  16
ENDBRANCH   3   7
ENDBRANCH   1   3
BRANCH   1  17
ATOM     17  C   UNL     1       1.718   8.901  19.083  0.00  0.00    +0.000 C 
BRANCH  17  18
ATOM     18  C   UNL     1       0.569   9.925  19.147  0.00  0.00    +0.000 C 
BRANCH  18  19
ATOM     19  C   UNL     1       1.048  11.331  19.489  0.00  0.00    +0.000 C 
BRANCH  19  20
ATOM     20  N   UNL     1       0.009  12.236  19.964  0.00  0.00    +0.000 N 
ATOM     21  C   UNL     1      -0.521  12.073  21.234  0.00  0.00    +0.000 C 
ATOM     22  O   UNL     1       0.022  11.562  22.200  0.00  0.00    +0.000 OA
ATOM     23  C   UNL     1      -1.970  12.483  21.126  0.00  0.00    +0.000 C 
ATOM     24  N   UNL     1      -2.047  13.315  19.911  0.00  0.00    +0.000 NA
ATOM     25  C   UNL     1      -0.853  13.012  19.093  0.00  0.00    +0.000 C 
ATOM     26  C   UNL     1      -0.201  14.352  18.719  0.00  0.00    +0.000 C 
ATOM     27  C   UNL     1      -1.327  12.282  17.834  0.00  0.00    +0.000 C 
ATOM     28  H   UNL     1      -2.001  14.292  20.197  0.00  0.00    +0.000 HD
BRANCH  23  29
ATOM     29  C   UNL     1      -2.531  13.172  22.369  0.00  0.00    +0.000 C 
BRANCH  29  30
ATOM     30  C   UNL     1      -3.791  12.478  22.935  0.00  0.00    +0.000 C 
ATOM     31  C   UNL     1      -3.949  12.701  24.445  0.00  0.00    +0.000 C 
ATOM     32  C   UNL     1      -5.043  12.973  22.210  0.00  0.00    +0.000 C 
ENDBRANCH  29  30
ENDBRANCH  23  29
ENDBRANCH  19  20
ENDBRANCH  18  19
ENDBRANCH  17  18
ENDBRANCH   1  17
TORSDOF 9
ENDMDL
