MODEL 1
REMARK VINA RESULT:      -7.8      0.000      0.000
REMARK  Name = 
REMARK  2 active torsions:
REMARK  status: ('A' for Active; 'I' for Inactive)
REMARK    1  A    between atoms: C_14  and  S_15
REMARK    2  A    between atoms: S_15  and  C_16
REMARK                            x       y       z     vdW  Elec       q    Type
REMARK                         _______ _______ _______ _____ _____    ______ ____
ROOT
ATOM      1  O   UNL     1       3.323   7.969  16.701  0.00  0.00    +0.000 OA
ATOM      2  C   UNL     1       2.796   7.789  17.794  0.00  0.00    +0.000 C 
ATOM      3  C   UNL     1       2.120   8.905  18.480  0.00  0.00    +0.000 A 
ATOM      4  C   UNL     1       2.086  10.172  17.879  0.00  0.00    +0.000 A 
ATOM      5  C   UNL     1       1.450  11.235  18.521  0.00  0.00    +0.000 A 
ATOM      6  C   UNL     1       0.846  11.039  19.762  0.00  0.00    +0.000 A 
ATOM      7  C   UNL     1       0.880   9.779  20.362  0.00  0.00    +0.000 A 
ATOM      8  C   UNL     1       1.518   8.708  19.719  0.00  0.00    +0.000 A 
ATOM      9  C   UNL     1       1.545   7.378  20.364  0.00  0.00    +0.000 C 
ATOM     10  O   UNL     1       1.004   7.237  21.451  0.00  0.00    +0.000 OA
ATOM     11  C   UNL     1       2.229   6.265  19.681  0.00  0.00    +0.000 A 
ATOM     12  C   UNL     1       2.842   6.452  18.430  0.00  0.00    +0.000 A 
ATOM     13  C   UNL     1       3.534   5.417  17.742  0.00  0.00    +0.000 A 
ATOM     14  C   UNL     1       3.670   4.108  18.239  0.00  0.00    +0.000 A 
ATOM     15  C   UNL     1       3.070   3.853  19.504  0.00  0.00    +0.000 A 
ATOM     16  N   UNL     1       3.082   2.693  20.184  0.00  0.00    +0.000 NA
ATOM     17  S   UNL     1       2.262   2.947  21.597  0.00  0.00    +0.000 S 
ATOM     18  N   UNL     1       1.842   4.533  21.419  0.00  0.00    +0.000 NA
ATOM     19  C   UNL     1       2.329   4.960  20.243  0.00  0.00    +0.000 A 
ENDROOT
BRANCH  14  20
ATOM     20  S   UNL     1       4.663   2.884  17.437  0.00  0.00    +0.000 S 
BRANCH  20  21
ATOM     21  C   UNL     1       5.562   3.845  16.225  0.00  0.00    +0.000 A 
ATOM     22  C   UNL     1       5.191   3.705  14.877  0.00  0.00    +0.000 A 
ATOM     23  C   UNL     1       5.912   4.344  13.863  0.00  0.00    +0.000 A 
ATOM     24  C   UNL     1       7.014   5.132  14.182  0.00  0.00    +0.000 A 
ATOM     25  C   UNL     1       7.394   5.286  15.514  0.00  0.00    +0.000 A 
ATOM     26  C   UNL     1       6.679   4.640  16.533  0.00  0.00    +0.000 A 
ATOM     27 BR   UNL     1       7.323   4.880  18.305  0.00  0.00    +0.000 Br
ENDBRANCH  20  21
ENDBRANCH  14  20
TORSDOF 2
ENDMDL
MODEL 2
REMARK VINA RESULT:      -7.7      4.215      7.635
REMARK  Name = 
REMARK  2 active torsions:
REMARK  status: ('A' for Active; 'I' for Inactive)
REMARK    1  A    between atoms: C_14  and  S_15
REMARK    2  A    between atoms: S_15  and  C_16
REMARK                            x       y       z     vdW  Elec       q    Type
REMARK                         _______ _______ _______ _____ _____    ______ ____
ROOT
ATOM      1  O   UNL     1       3.361   7.972  16.605  0.00  0.00    +0.000 OA
ATOM      2  C   UNL     1       3.069   7.445  17.673  0.00  0.00    +0.000 C 
ATOM      3  C   UNL     1       3.555   6.088  17.983  0.00  0.00    +0.000 A 
ATOM      4  C   UNL     1       4.346   5.403  17.050  0.00  0.00    +0.000 A 
ATOM      5  C   UNL     1       4.809   4.118  17.333  0.00  0.00    +0.000 A 
ATOM      6  C   UNL     1       4.485   3.512  18.546  0.00  0.00    +0.000 A 
ATOM      7  C   UNL     1       3.696   4.192  19.475  0.00  0.00    +0.000 A 
ATOM      8  C   UNL     1       3.230   5.484  19.194  0.00  0.00    +0.000 A 
ATOM      9  C   UNL     1       2.397   6.194  20.188  0.00  0.00    +0.000 C 
ATOM     10  O   UNL     1       2.133   5.638  21.244  0.00  0.00    +0.000 OA
ATOM     11  C   UNL     1       1.906   7.548  19.873  0.00  0.00    +0.000 A 
ATOM     12  C   UNL     1       2.226   8.168  18.653  0.00  0.00    +0.000 A 
ATOM     13  C   UNL     1       1.756   9.462  18.293  0.00  0.00    +0.000 A 
ATOM     14  C   UNL     1       0.934  10.249  19.118  0.00  0.00    +0.000 A 
ATOM     15  C   UNL     1       0.574   9.678  20.371  0.00  0.00    +0.000 A 
ATOM     16  N   UNL     1      -0.211  10.229  21.313  0.00  0.00    +0.000 NA
ATOM     17  S   UNL     1      -0.322   9.141  22.554  0.00  0.00    +0.000 S 
ATOM     18  N   UNL     1       0.623   7.921  21.968  0.00  0.00    +0.000 NA
ATOM     19  C   UNL     1       1.074   8.292  20.759  0.00  0.00    +0.000 A 
ENDROOT
BRANCH  14  20
ATOM     20  S   UNL     1       0.242  11.786  18.584  0.00  0.00    +0.000 S 
BRANCH  20  21
ATOM     21  C   UNL     1      -1.469  11.360  18.282  0.00  0.00    +0.000 A 
ATOM     22  C   UNL     1      -1.743  10.472  17.229  0.00  0.00    +0.000 A 
ATOM     23  C   UNL     1      -3.060  10.171  16.866  0.00  0.00    +0.000 A 
ATOM     24  C   UNL     1      -4.123  10.752  17.553  0.00  0.00    +0.000 A 
ATOM     25  C   UNL     1      -3.869  11.631  18.604  0.00  0.00    +0.000 A 
ATOM     26  C   UNL     1      -2.550  11.942  18.965  0.00  0.00    +0.000 A 
ATOM     27 BR   UNL     1      -2.329  13.196  20.377  0.00  0.00    +0.000 Br
ENDBRANCH  20  21
ENDBRANCH  14  20
TORSDOF 2
ENDMDL
MODEL 3
REMARK VINA RESULT:      -7.1      1.447      2.028
REMARK  Name = 
REMARK  2 active torsions:
REMARK  status: ('A' for Active; 'I' for Inactive)
REMARK    1  A    between atoms: C_14  and  S_15
REMARK    2  A    between atoms: S_15  and  C_16
REMARK                            x       y       z     vdW  Elec       q    Type
REMARK                         _______ _______ _______ _____ _____    ______ ____
ROOT
ATOM      1  O   UNL     1       2.226   9.187  17.074  0.00  0.00    +0.000 OA
ATOM      2  C   UNL     1       1.910   8.866  18.214  0.00  0.00    +0.000 C 
ATOM      3  C   UNL     1       1.386   9.880  19.148  0.00  0.00    +0.000 A 
ATOM      4  C   UNL     1       1.257  11.211  18.726  0.00  0.00    +0.000 A 
ATOM      5  C   UNL     1       0.764  12.179  19.603  0.00  0.00    +0.000 A 
ATOM      6  C   UNL     1       0.400  11.823  20.900  0.00  0.00    +0.000 A 
ATOM      7  C   UNL     1       0.529  10.498  21.321  0.00  0.00    +0.000 A 
ATOM      8  C   UNL     1       1.023   9.523  20.443  0.00  0.00    +0.000 A 
ATOM      9  C   UNL     1       1.153   8.124  20.901  0.00  0.00    +0.000 C 
ATOM     10  O   UNL     1       0.822   7.842  22.043  0.00  0.00    +0.000 OA
ATOM     11  C   UNL     1       1.684   7.112  19.969  0.00  0.00    +0.000 A 
ATOM     12  C   UNL     1       2.056   7.461  18.658  0.00  0.00    +0.000 A 
ATOM     13  C   UNL     1       2.595   6.527  17.730  0.00  0.00    +0.000 A 
ATOM     14  C   UNL     1       2.805   5.168  18.026  0.00  0.00    +0.000 A 
ATOM     15  C   UNL     1       2.448   4.751  19.338  0.00  0.00    +0.000 A 
ATOM     16  N   UNL     1       2.572   3.515  19.854  0.00  0.00    +0.000 NA
ATOM     17  S   UNL     1       2.031   3.581  21.416  0.00  0.00    +0.000 S 
ATOM     18  N   UNL     1       1.605   5.172  21.518  0.00  0.00    +0.000 NA
ATOM     19  C   UNL     1       1.871   5.749  20.335  0.00  0.00    +0.000 A 
ENDROOT
BRANCH  14  20
ATOM     20  S   UNL     1       3.617   4.065  16.907  0.00  0.00    +0.000 S 
BRANCH  20  21
ATOM     21  C   UNL     1       5.346   4.333  17.281  0.00  0.00    +0.000 A 
ATOM     22  C   UNL     1       5.683   4.657  18.606  0.00  0.00    +0.000 A 
ATOM     23  C   UNL     1       6.999   4.980  18.954  0.00  0.00    +0.000 A 
ATOM     24  C   UNL     1       7.996   4.983  17.983  0.00  0.00    +0.000 A 
ATOM     25  C   UNL     1       7.680   4.659  16.665  0.00  0.00    +0.000 A 
ATOM     26  C   UNL     1       6.361   4.342  16.310  0.00  0.00    +0.000 A 
ATOM     27 BR   UNL     1       6.041   3.971  14.473  0.00  0.00    +0.000 Br
ENDBRANCH  20  21
ENDBRANCH  14  20
TORSDOF 2
ENDMDL
MODEL 4
REMARK VINA RESULT:      -7.0      5.189      8.542
REMARK  Name = 
REMARK  2 active torsions:
REMARK  status: ('A' for Active; 'I' for Inactive)
REMARK    1  A    between atoms: C_14  and  S_15
REMARK    2  A    between atoms: S_15  and  C_16
REMARK                            x       y       z     vdW  Elec       q    Type
REMARK                         _______ _______ _______ _____ _____    ______ ____
ROOT
ATOM      1  O   UNL     1       2.323   9.338  17.200  0.00  0.00    +0.000 OA
ATOM      2  C   UNL     1       1.950   9.020  18.324  0.00  0.00    +0.000 C 
ATOM      3  C   UNL     1       2.241   7.672  18.844  0.00  0.00    +0.000 A 
ATOM      4  C   UNL     1       2.942   6.756  18.046  0.00  0.00    +0.000 A 
ATOM      5  C   UNL     1       3.221   5.477  18.529  0.00  0.00    +0.000 A 
ATOM      6  C   UNL     1       2.803   5.108  19.806  0.00  0.00    +0.000 A 
ATOM      7  C   UNL     1       2.105   6.018  20.601  0.00  0.00    +0.000 A 
ATOM      8  C   UNL     1       1.823   7.305  20.120  0.00  0.00    +0.000 A 
ATOM      9  C   UNL     1       1.084   8.260  20.972  0.00  0.00    +0.000 C 
ATOM     10  O   UNL     1       0.735   7.908  22.089  0.00  0.00    +0.000 OA
ATOM     11  C   UNL     1       0.787   9.605  20.448  0.00  0.00    +0.000 A 
ATOM     12  C   UNL     1       1.203   9.988  19.160  0.00  0.00    +0.000 A 
ATOM     13  C   UNL     1       0.919  11.264  18.600  0.00  0.00    +0.000 A 
ATOM     14  C   UNL     1       0.203  12.269  19.276  0.00  0.00    +0.000 A 
ATOM     15  C   UNL     1      -0.246  11.944  20.586  0.00  0.00    +0.000 A 
ATOM     16  N   UNL     1      -0.959  12.730  21.413  0.00  0.00    +0.000 NA
ATOM     17  S   UNL     1      -1.231  11.864  22.795  0.00  0.00    +0.000 S 
ATOM     18  N   UNL     1      -0.456  10.455  22.424  0.00  0.00    +0.000 NA
ATOM     19  C   UNL     1       0.055  10.577  21.188  0.00  0.00    +0.000 A 
ENDROOT
BRANCH  14  20
ATOM     20  S   UNL     1      -0.266  13.788  18.501  0.00  0.00    +0.000 S 
BRANCH  20  21
ATOM     21  C   UNL     1       1.092  14.875  18.921  0.00  0.00    +0.000 A 
ATOM     22  C   UNL     1       2.253  14.292  19.455  0.00  0.00    +0.000 A 
ATOM     23  C   UNL     1       3.315  15.084  19.902  0.00  0.00    +0.000 A 
ATOM     24  C   UNL     1       3.232  16.471  19.822  0.00  0.00    +0.000 A 
ATOM     25  C   UNL     1       2.090  17.067  19.291  0.00  0.00    +0.000 A 
ATOM     26  C   UNL     1       1.019  16.276  18.849  0.00  0.00    +0.000 A 
ATOM     27 BR   UNL     1      -0.507  17.202  18.195  0.00  0.00    +0.000 Br
ENDBRANCH  20  21
ENDBRANCH  14  20
TORSDOF 2
ENDMDL
MODEL 5
REMARK VINA RESULT:      -7.0      3.930      7.343
REMARK  Name = 
REMARK  2 active torsions:
REMARK  status: ('A' for Active; 'I' for Inactive)
REMARK    1  A    between atoms: C_14  and  S_15
REMARK    2  A    between atoms: S_15  and  C_16
REMARK                            x       y       z     vdW  Elec       q    Type
REMARK                         _______ _______ _______ _____ _____    ______ ____
ROOT
ATOM      1  O   UNL     1       3.309   8.195  16.621  0.00  0.00    +0.000 OA
ATOM      2  C   UNL     1       3.004   7.651  17.677  0.00  0.00    +0.000 C 
ATOM      3  C   UNL     1       3.472   6.282  17.963  0.00  0.00    +0.000 A 
ATOM      4  C   UNL     1       4.262   5.607  17.022  0.00  0.00    +0.000 A 
ATOM      5  C   UNL     1       4.708   4.311  17.283  0.00  0.00    +0.000 A 
ATOM      6  C   UNL     1       4.369   3.686  18.482  0.00  0.00    +0.000 A 
ATOM      7  C   UNL     1       3.581   4.357  19.419  0.00  0.00    +0.000 A 
ATOM      8  C   UNL     1       3.132   5.659  19.161  0.00  0.00    +0.000 A 
ATOM      9  C   UNL     1       2.300   6.359  20.162  0.00  0.00    +0.000 C 
ATOM     10  O   UNL     1       2.023   5.786  21.206  0.00  0.00    +0.000 OA
ATOM     11  C   UNL     1       1.826   7.724  19.871  0.00  0.00    +0.000 A 
ATOM     12  C   UNL     1       2.162   8.365  18.665  0.00  0.00    +0.000 A 
ATOM     13  C   UNL     1       1.709   9.670  18.327  0.00  0.00    +0.000 A 
ATOM     14  C   UNL     1       0.890  10.451  19.162  0.00  0.00    +0.000 A 
ATOM     15  C   UNL     1       0.515   9.860  20.401  0.00  0.00    +0.000 A 
ATOM     16  N   UNL     1      -0.270  10.401  21.349  0.00  0.00    +0.000 NA
ATOM     17  S   UNL     1      -0.401   9.291  22.567  0.00  0.00    +0.000 S 
ATOM     18  N   UNL     1       0.534   8.072  21.964  0.00  0.00    +0.000 NA
ATOM     19  C   UNL     1       0.997   8.461  20.765  0.00  0.00    +0.000 A 
ENDROOT
BRANCH  14  20
ATOM     20  S   UNL     1       0.219  12.006  18.654  0.00  0.00    +0.000 S 
BRANCH  20  21
ATOM     21  C   UNL     1       1.556  13.142  19.008  0.00  0.00    +0.000 A 
ATOM     22  C   UNL     1       2.610  13.217  18.083  0.00  0.00    +0.000 A 
ATOM     23  C   UNL     1       3.737  14.004  18.339  0.00  0.00    +0.000 A 
ATOM     24  C   UNL     1       3.827  14.728  19.525  0.00  0.00    +0.000 A 
ATOM     25  C   UNL     1       2.788  14.669  20.452  0.00  0.00    +0.000 A 
ATOM     26  C   UNL     1       1.660  13.875  20.202  0.00  0.00    +0.000 A 
ATOM     27 BR   UNL     1       0.333  13.830  21.564  0.00  0.00    +0.000 Br
ENDBRANCH  20  21
ENDBRANCH  14  20
TORSDOF 2
ENDMDL
MODEL 6
REMARK VINA RESULT:      -7.0      4.843      8.448
REMARK  Name = 
REMARK  2 active torsions:
REMARK  status: ('A' for Active; 'I' for Inactive)
REMARK    1  A    between atoms: C_14  and  S_15
REMARK    2  A    between atoms: S_15  and  C_16
REMARK                            x       y       z     vdW  Elec       q    Type
REMARK                         _______ _______ _______ _____ _____    ______ ____
ROOT
ATOM      1  O   UNL     1       2.320   9.285  16.968  0.00  0.00    +0.000 OA
ATOM      2  C   UNL     1       2.156   8.724  18.045  0.00  0.00    +0.000 C 
ATOM      3  C   UNL     1       2.757   7.399  18.286  0.00  0.00    +0.000 A 
ATOM      4  C   UNL     1       3.511   6.785  17.277  0.00  0.00    +0.000 A 
ATOM      5  C   UNL     1       4.082   5.530  17.494  0.00  0.00    +0.000 A 
ATOM      6  C   UNL     1       3.903   4.886  18.717  0.00  0.00    +0.000 A 
ATOM      7  C   UNL     1       3.151   5.496  19.722  0.00  0.00    +0.000 A 
ATOM      8  C   UNL     1       2.577   6.757  19.508  0.00  0.00    +0.000 A 
ATOM      9  C   UNL     1       1.784   7.393  20.581  0.00  0.00    +0.000 C 
ATOM     10  O   UNL     1       1.648   6.804  21.644  0.00  0.00    +0.000 OA
ATOM     11  C   UNL     1       1.178   8.714  20.336  0.00  0.00    +0.000 A 
ATOM     12  C   UNL     1       1.351   9.373  19.106  0.00  0.00    +0.000 A 
ATOM     13  C   UNL     1       0.767  10.636  18.813  0.00  0.00    +0.000 A 
ATOM     14  C   UNL     1      -0.035  11.353  19.720  0.00  0.00    +0.000 A 
ATOM     15  C   UNL     1      -0.249  10.739  20.986  0.00  0.00    +0.000 A 
ATOM     16  N   UNL     1      -0.987  11.221  22.002  0.00  0.00    +0.000 NA
ATOM     17  S   UNL     1      -0.918  10.110  23.225  0.00  0.00    +0.000 S 
ATOM     18  N   UNL     1       0.054   8.967  22.538  0.00  0.00    +0.000 NA
ATOM     19  C   UNL     1       0.375   9.386  21.303  0.00  0.00    +0.000 A 
ENDROOT
BRANCH  14  20
ATOM     20  S   UNL     1      -0.872  12.846  19.277  0.00  0.00    +0.000 S 
BRANCH  20  21
ATOM     21  C   UNL     1      -2.571  12.308  19.119  0.00  0.00    +0.000 A 
ATOM     22  C   UNL     1      -2.886  11.447  18.055  0.00  0.00    +0.000 A 
ATOM     23  C   UNL     1      -4.209  11.066  17.806  0.00  0.00    +0.000 A 
ATOM     24  C   UNL     1      -5.235  11.540  18.618  0.00  0.00    +0.000 A 
ATOM     25  C   UNL     1      -4.940  12.391  19.681  0.00  0.00    +0.000 A 
ATOM     26  C   UNL     1      -3.617  12.782  19.929  0.00  0.00    +0.000 A 
ATOM     27 BR   UNL     1      -3.344  13.989  21.373  0.00  0.00    +0.000 Br
ENDBRANCH  20  21
ENDBRANCH  14  20
TORSDOF 2
ENDMDL
MODEL 7
REMARK VINA RESULT:      -6.9      8.659     11.310
REMARK  Name = 
REMARK  2 active torsions:
REMARK  status: ('A' for Active; 'I' for Inactive)
REMARK    1  A    between atoms: C_14  and  S_15
REMARK    2  A    between atoms: S_15  and  C_16
REMARK                            x       y       z     vdW  Elec       q    Type
REMARK                         _______ _______ _______ _____ _____    ______ ____
ROOT
ATOM      1  O   UNL     1       7.676  12.524  17.001  0.00  0.00    +0.000 OA
ATOM      2  C   UNL     1       8.108  13.254  17.886  0.00  0.00    +0.000 C 
ATOM      3  C   UNL     1       9.420  12.976  18.498  0.00  0.00    +0.000 A 
ATOM      4  C   UNL     1      10.168  11.871  18.065  0.00  0.00    +0.000 A 
ATOM      5  C   UNL     1      11.410  11.598  18.639  0.00  0.00    +0.000 A 
ATOM      6  C   UNL     1      11.910  12.425  19.644  0.00  0.00    +0.000 A 
ATOM      7  C   UNL     1      11.167  13.524  20.076  0.00  0.00    +0.000 A 
ATOM      8  C   UNL     1       9.918  13.802  19.501  0.00  0.00    +0.000 A 
ATOM      9  C   UNL     1       9.141  14.970  19.967  0.00  0.00    +0.000 C 
ATOM     10  O   UNL     1       9.608  15.678  20.847  0.00  0.00    +0.000 OA
ATOM     11  C   UNL     1       7.826  15.242  19.360  0.00  0.00    +0.000 A 
ATOM     12  C   UNL     1       7.311  14.415  18.347  0.00  0.00    +0.000 A 
ATOM     13  C   UNL     1       6.037  14.621  17.748  0.00  0.00    +0.000 A 
ATOM     14  C   UNL     1       5.171  15.671  18.103  0.00  0.00    +0.000 A 
ATOM     15  C   UNL     1       5.634  16.547  19.124  0.00  0.00    +0.000 A 
ATOM     16  N   UNL     1       4.981  17.603  19.639  0.00  0.00    +0.000 NA
ATOM     17  S   UNL     1       5.954  18.258  20.805  0.00  0.00    +0.000 S 
ATOM     18  N   UNL     1       7.255  17.246  20.714  0.00  0.00    +0.000 NA
ATOM     19  C   UNL     1       6.998  16.327  19.769  0.00  0.00    +0.000 A 
ENDROOT
BRANCH  14  20
ATOM     20  S   UNL     1       3.534  15.815  17.451  0.00  0.00    +0.000 S 
BRANCH  20  21
ATOM     21  C   UNL     1       2.605  14.682  18.477  0.00  0.00    +0.000 A 
ATOM     22  C   UNL     1       2.730  13.308  18.210  0.00  0.00    +0.000 A 
ATOM     23  C   UNL     1       1.959  12.368  18.901  0.00  0.00    +0.000 A 
ATOM     24  C   UNL     1       1.051  12.787  19.869  0.00  0.00    +0.000 A 
ATOM     25  C   UNL     1       0.917  14.145  20.151  0.00  0.00    +0.000 A 
ATOM     26  C   UNL     1       1.683  15.092  19.455  0.00  0.00    +0.000 A 
ATOM     27 BR   UNL     1       1.374  16.918  19.886  0.00  0.00    +0.000 Br
ENDBRANCH  20  21
ENDBRANCH  14  20
TORSDOF 2
ENDMDL
MODEL 8
REMARK VINA RESULT:      -6.9      5.583      8.729
REMARK  Name = 
REMARK  2 active torsions:
REMARK  status: ('A' for Active; 'I' for Inactive)
REMARK    1  A    between atoms: C_14  and  S_15
REMARK    2  A    between atoms: S_15  and  C_16
REMARK                            x       y       z     vdW  Elec       q    Type
REMARK                         _______ _______ _______ _____ _____    ______ ____
ROOT
ATOM      1  O   UNL     1       2.163  10.042  17.441  0.00  0.00    +0.000 OA
ATOM      2  C   UNL     1       1.754   9.771  18.564  0.00  0.00    +0.000 C 
ATOM      3  C   UNL     1       1.889   8.399  19.088  0.00  0.00    +0.000 A 
ATOM      4  C   UNL     1       2.482   7.408  18.293  0.00  0.00    +0.000 A 
ATOM      5  C   UNL     1       2.613   6.107  18.779  0.00  0.00    +0.000 A 
ATOM      6  C   UNL     1       2.154   5.790  20.056  0.00  0.00    +0.000 A 
ATOM      7  C   UNL     1       1.562   6.776  20.848  0.00  0.00    +0.000 A 
ATOM      8  C   UNL     1       1.430   8.085  20.364  0.00  0.00    +0.000 A 
ATOM      9  C   UNL     1       0.803   9.120  21.212  0.00  0.00    +0.000 C 
ATOM     10  O   UNL     1       0.413   8.813  22.330  0.00  0.00    +0.000 OA
ATOM     11  C   UNL     1       0.661  10.489  20.685  0.00  0.00    +0.000 A 
ATOM     12  C   UNL     1       1.120  10.820  19.397  0.00  0.00    +0.000 A 
ATOM     13  C   UNL     1       0.985  12.119  18.834  0.00  0.00    +0.000 A 
ATOM     14  C   UNL     1       0.387  13.200  19.506  0.00  0.00    +0.000 A 
ATOM     15  C   UNL     1      -0.099  12.931  20.817  0.00  0.00    +0.000 A 
ATOM     16  N   UNL     1      -0.719  13.795  21.640  0.00  0.00    +0.000 NA
ATOM     17  S   UNL     1      -1.090  12.968  23.023  0.00  0.00    +0.000 S 
ATOM     18  N   UNL     1      -0.480  11.479  22.657  0.00  0.00    +0.000 NA
ATOM     19  C   UNL     1       0.044  11.540  21.422  0.00  0.00    +0.000 A 
ENDROOT
BRANCH  14  20
ATOM     20  S   UNL     1       0.095  14.761  18.728  0.00  0.00    +0.000 S 
BRANCH  20  21
ATOM     21  C   UNL     1       1.703  15.543  18.808  0.00  0.00    +0.000 A 
ATOM     22  C   UNL     1       2.678  15.123  17.889  0.00  0.00    +0.000 A 
ATOM     23  C   UNL     1       3.987  15.614  17.955  0.00  0.00    +0.000 A 
ATOM     24  C   UNL     1       4.338  16.530  18.942  0.00  0.00    +0.000 A 
ATOM     25  C   UNL     1       3.382  16.961  19.859  0.00  0.00    +0.000 A 
ATOM     26  C   UNL     1       2.071  16.466  19.801  0.00  0.00    +0.000 A 
ATOM     27 BR   UNL     1       0.870  17.084  21.139  0.00  0.00    +0.000 Br
ENDBRANCH  20  21
ENDBRANCH  14  20
TORSDOF 2
ENDMDL
MODEL 9
REMARK VINA RESULT:      -6.8      2.560      6.435
REMARK  Name = 
REMARK  2 active torsions:
REMARK  status: ('A' for Active; 'I' for Inactive)
REMARK    1  A    between atoms: C_14  and  S_15
REMARK    2  A    between atoms: S_15  and  C_16
REMARK                            x       y       z     vdW  Elec       q    Type
REMARK                         _______ _______ _______ _____ _____    ______ ____
ROOT
ATOM      1  O   UNL     1       4.517   7.580  17.049  0.00  0.00    +0.000 OA
ATOM      2  C   UNL     1       4.414   6.363  17.158  0.00  0.00    +0.000 C 
ATOM      3  C   UNL     1       5.089   5.476  16.192  0.00  0.00    +0.000 A 
ATOM      4  C   UNL     1       5.843   6.031  15.149  0.00  0.00    +0.000 A 
ATOM      5  C   UNL     1       6.484   5.200  14.229  0.00  0.00    +0.000 A 
ATOM      6  C   UNL     1       6.374   3.815  14.347  0.00  0.00    +0.000 A 
ATOM      7  C   UNL     1       5.623   3.262  15.385  0.00  0.00    +0.000 A 
ATOM      8  C   UNL     1       4.978   4.094  16.311  0.00  0.00    +0.000 A 
ATOM      9  C   UNL     1       4.187   3.495  17.406  0.00  0.00    +0.000 C 
ATOM     10  O   UNL     1       4.112   2.277  17.486  0.00  0.00    +0.000 OA
ATOM     11  C   UNL     1       3.506   4.383  18.366  0.00  0.00    +0.000 A 
ATOM     12  C   UNL     1       3.609   5.781  18.256  0.00  0.00    +0.000 A 
ATOM     13  C   UNL     1       2.952   6.680  19.142  0.00  0.00    +0.000 A 
ATOM     14  C   UNL     1       2.142   6.264  20.214  0.00  0.00    +0.000 A 
ATOM     15  C   UNL     1       1.998   4.858  20.381  0.00  0.00    +0.000 A 
ATOM     16  N   UNL     1       1.267   4.227  21.316  0.00  0.00    +0.000 NA
ATOM     17  S   UNL     1       1.428   2.603  21.049  0.00  0.00    +0.000 S 
ATOM     18  N   UNL     1       2.437   2.613  19.743  0.00  0.00    +0.000 NA
ATOM     19  C   UNL     1       2.699   3.893  19.433  0.00  0.00    +0.000 A 
ENDROOT
BRANCH  14  20
ATOM     20  S   UNL     1       1.217   7.399  21.205  0.00  0.00    +0.000 S 
BRANCH  20  21
ATOM     21  C   UNL     1       1.112   8.841  20.150  0.00  0.00    +0.000 A 
ATOM     22  C   UNL     1       1.697   8.760  18.875  0.00  0.00    +0.000 A 
ATOM     23  C   UNL     1       1.746   9.876  18.034  0.00  0.00    +0.000 A 
ATOM     24  C   UNL     1       1.208  11.089  18.454  0.00  0.00    +0.000 A 
ATOM     25  C   UNL     1       0.619  11.187  19.713  0.00  0.00    +0.000 A 
ATOM     26  C   UNL     1       0.576  10.072  20.563  0.00  0.00    +0.000 A 
ATOM     27 BR   UNL     1      -0.203  10.340  22.277  0.00  0.00    +0.000 Br
ENDBRANCH  20  21
ENDBRANCH  14  20
TORSDOF 2
ENDMDL
