MODEL 1
REMARK VINA RESULT:      -8.0      0.000      0.000
REMARK  Name = 
REMARK  7 active torsions:
REMARK  status: ('A' for Active; 'I' for Inactive)
REMARK    1  A    between atoms: C_1  and  N_2
REMARK    2  A    between atoms: N_2  and  C_3
REMARK    3  A    between atoms: N_2  and  C_4
REMARK    4  A    between atoms: N_7  and  C_8
REMARK    5  A    between atoms: C_18  and  N_19
REMARK    6  A    between atoms: N_19  and  C_20
REMARK    7  A    between atoms: C_24  and  C_25
REMARK                            x       y       z     vdW  Elec       q    Type
REMARK                         _______ _______ _______ _____ _____    ______ ____
ROOT
ATOM      1  C   UNL     1       0.571   9.494  20.488  0.00  0.00    +0.000 A 
ATOM      2  C   UNL     1      -0.421  10.317  19.968  0.00  0.00    +0.000 A 
ATOM      3  C   UNL     1      -1.010  11.303  20.765  0.00  0.00    +0.000 A 
ATOM      4  C   UNL     1      -0.617  11.464  22.093  0.00  0.00    +0.000 A 
ATOM      5  N   UNL     1      -1.125  12.469  22.911  0.00  0.00    +0.000 N 
ATOM      6  C   UNL     1      -2.426  12.952  22.963  0.00  0.00    +0.000 A 
ATOM      7  N   UNL     1      -2.728  13.840  23.918  0.00  0.00    +0.000 NA
ATOM      8  C   UNL     1      -4.013  14.254  23.976  0.00  0.00    +0.000 A 
ATOM      9  C   UNL     1      -5.014  13.784  23.152  0.00  0.00    +0.000 A 
ATOM     10 CL   UNL     1      -6.636  14.307  23.337  0.00  0.00    +0.000 Cl
ATOM     11  C   UNL     1      -4.628  12.841  22.217  0.00  0.00    +0.000 A 
ATOM     12  N   UNL     1      -3.342  12.468  22.117  0.00  0.00    +0.000 NA
ATOM     13  N   UNL     1       0.315  10.666  22.641  0.00  0.00    +0.000 NA
ATOM     14  C   UNL     1       0.853   9.707  21.844  0.00  0.00    +0.000 A 
ATOM     15  H   UNL     1      -0.687  12.487  23.818  0.00  0.00    +0.000 HD
ENDROOT
BRANCH   1  19
ATOM     16  C   UNL     1       2.711   6.395  18.402  0.00  0.00    +0.000 C 
ATOM     17  C   UNL     1       2.044   7.589  17.669  0.00  0.00    +0.000 C 
ATOM     18  C   UNL     1       1.966   8.851  18.532  0.00  0.00    +0.000 C 
ATOM     19  N   UNL     1       1.234   8.514  19.759  0.00  0.00    +0.000 N 
ATOM     20  C   UNL     1       1.929   7.495  20.563  0.00  0.00    +0.000 C 
ATOM     21  C   UNL     1       1.972   6.206  19.748  0.00  0.00    +0.000 C 
BRANCH  16  23
ATOM     22  C   UNL     1       4.766   5.350  19.231  0.00  0.00    +0.000 C 
ATOM     23  N   UNL     1       4.190   6.525  18.557  0.00  0.00    +0.000 NA
ATOM     24  C   UNL     1       4.861   6.666  17.256  0.00  0.00    +0.000 C 
ENDBRANCH  16  23
ENDBRANCH   1  19
BRANCH  11  25
ATOM     25  N   UNL     1      -5.554  12.218  21.359  0.00  0.00    +0.000 N 
ATOM     26  H   UNL     1      -5.955  11.371  21.741  0.00  0.00    +0.000 HD
BRANCH  25  27
ATOM     27  C   UNL     1      -5.588  12.273  19.949  0.00  0.00    +0.000 A 
ATOM     28  C   UNL     1      -6.593  12.949  19.245  0.00  0.00    +0.000 A 
ATOM     29  C   UNL     1      -6.587  13.009  17.851  0.00  0.00    +0.000 A 
ATOM     30  C   UNL     1      -5.580  12.376  17.132  0.00  0.00    +0.000 A 
ATOM     31  C   UNL     1      -4.575  11.664  17.804  0.00  0.00    +0.000 A 
ATOM     32  C   UNL     1      -4.598  11.611  19.212  0.00  0.00    +0.000 A 
BRANCH  31  33
ATOM     33  C   UNL     1      -3.483  10.963  17.039  0.00  0.00    +0.000 C 
ATOM     34  F   UNL     1      -3.783  10.754  15.726  0.00  0.00    +0.000 F 
ATOM     35  F   UNL     1      -2.314  11.665  17.045  0.00  0.00    +0.000 F 
ATOM     36  F   UNL     1      -3.184   9.738  17.553  0.00  0.00    +0.000 F 
ENDBRANCH  31  33
ENDBRANCH  25  27
ENDBRANCH  11  25
TORSDOF 5
ENDMDL
MODEL 2
REMARK VINA RESULT:      -7.9      5.567     10.264
REMARK  Name = 
REMARK  7 active torsions:
REMARK  status: ('A' for Active; 'I' for Inactive)
REMARK    1  A    between atoms: C_1  and  N_2
REMARK    2  A    between atoms: N_2  and  C_3
REMARK    3  A    between atoms: N_2  and  C_4
REMARK    4  A    between atoms: N_7  and  C_8
REMARK    5  A    between atoms: C_18  and  N_19
REMARK    6  A    between atoms: N_19  and  C_20
REMARK    7  A    between atoms: C_24  and  C_25
REMARK                            x       y       z     vdW  Elec       q    Type
REMARK                         _______ _______ _______ _____ _____    ______ ____
ROOT
ATOM      1  C   UNL     1       0.970  10.774  19.983  0.00  0.00    +0.000 A 
ATOM      2  C   UNL     1       0.763   9.738  19.082  0.00  0.00    +0.000 A 
ATOM      3  C   UNL     1       0.918   8.409  19.486  0.00  0.00    +0.000 A 
ATOM      4  C   UNL     1       1.294   8.109  20.795  0.00  0.00    +0.000 A 
ATOM      5  N   UNL     1       1.402   6.804  21.265  0.00  0.00    +0.000 N 
ATOM      6  C   UNL     1       1.887   5.690  20.593  0.00  0.00    +0.000 A 
ATOM      7  N   UNL     1       2.019   4.549  21.281  0.00  0.00    +0.000 NA
ATOM      8  C   UNL     1       2.541   3.496  20.614  0.00  0.00    +0.000 A 
ATOM      9  C   UNL     1       2.976   3.549  19.307  0.00  0.00    +0.000 A 
ATOM     10 CL   UNL     1       3.693   2.186  18.553  0.00  0.00    +0.000 Cl
ATOM     11  C   UNL     1       2.839   4.772  18.677  0.00  0.00    +0.000 A 
ATOM     12  N   UNL     1       2.269   5.807  19.317  0.00  0.00    +0.000 NA
ATOM     13  N   UNL     1       1.536   9.085  21.686  0.00  0.00    +0.000 NA
ATOM     14  C   UNL     1       1.394  10.365  21.255  0.00  0.00    +0.000 A 
ATOM     15  H   UNL     1       1.617   6.765  22.249  0.00  0.00    +0.000 HD
ENDROOT
BRANCH   1  19
ATOM     16  C   UNL     1       0.652  14.970  19.071  0.00  0.00    +0.000 C 
ATOM     17  C   UNL     1      -0.584  14.085  19.377  0.00  0.00    +0.000 C 
ATOM     18  C   UNL     1      -0.264  12.909  20.303  0.00  0.00    +0.000 C 
ATOM     19  N   UNL     1       0.804  12.120  19.678  0.00  0.00    +0.000 N 
ATOM     20  C   UNL     1       2.050  12.888  19.523  0.00  0.00    +0.000 C 
ATOM     21  C   UNL     1       1.775  14.037  18.558  0.00  0.00    +0.000 C 
BRANCH  16  23
ATOM     22  C   UNL     1       2.090  16.819  19.792  0.00  0.00    +0.000 C 
ATOM     23  N   UNL     1       1.081  15.832  20.211  0.00  0.00    +0.000 NA
ATOM     24  C   UNL     1      -0.052  16.571  20.789  0.00  0.00    +0.000 C 
ENDBRANCH  16  23
ENDBRANCH   1  19
BRANCH  11  25
ATOM     25  N   UNL     1       3.306   4.995  17.369  0.00  0.00    +0.000 N 
ATOM     26  H   UNL     1       2.695   4.627  16.650  0.00  0.00    +0.000 HD
BRANCH  25  27
ATOM     27  C   UNL     1       4.646   5.139  16.949  0.00  0.00    +0.000 A 
ATOM     28  C   UNL     1       5.244   4.270  16.026  0.00  0.00    +0.000 A 
ATOM     29  C   UNL     1       6.563   4.452  15.608  0.00  0.00    +0.000 A 
ATOM     30  C   UNL     1       7.317   5.500  16.122  0.00  0.00    +0.000 A 
ATOM     31  C   UNL     1       6.760   6.370  17.071  0.00  0.00    +0.000 A 
ATOM     32  C   UNL     1       5.427   6.171  17.483  0.00  0.00    +0.000 A 
BRANCH  31  33
ATOM     33  C   UNL     1       7.567   7.505  17.645  0.00  0.00    +0.000 C 
ATOM     34  F   UNL     1       8.247   7.172  18.778  0.00  0.00    +0.000 F 
ATOM     35  F   UNL     1       8.506   7.967  16.772  0.00  0.00    +0.000 F 
ATOM     36  F   UNL     1       6.801   8.582  17.973  0.00  0.00    +0.000 F 
ENDBRANCH  31  33
ENDBRANCH  25  27
ENDBRANCH  11  25
TORSDOF 5
ENDMDL
MODEL 3
REMARK VINA RESULT:      -7.8      1.149      1.243
REMARK  Name = 
REMARK  7 active torsions:
REMARK  status: ('A' for Active; 'I' for Inactive)
REMARK    1  A    between atoms: C_1  and  N_2
REMARK    2  A    between atoms: N_2  and  C_3
REMARK    3  A    between atoms: N_2  and  C_4
REMARK    4  A    between atoms: N_7  and  C_8
REMARK    5  A    between atoms: C_18  and  N_19
REMARK    6  A    between atoms: N_19  and  C_20
REMARK    7  A    between atoms: C_24  and  C_25
REMARK                            x       y       z     vdW  Elec       q    Type
REMARK                         _______ _______ _______ _____ _____    ______ ____
ROOT
ATOM      1  C   UNL     1       0.893   8.946  20.371  0.00  0.00    +0.000 A 
ATOM      2  C   UNL     1       0.481  10.201  19.940  0.00  0.00    +0.000 A 
ATOM      3  C   UNL     1      -0.169  11.070  20.820  0.00  0.00    +0.000 A 
ATOM      4  C   UNL     1      -0.422  10.684  22.136  0.00  0.00    +0.000 A 
ATOM      5  N   UNL     1      -1.009  11.534  23.069  0.00  0.00    +0.000 N 
ATOM      6  C   UNL     1      -2.031  12.451  22.865  0.00  0.00    +0.000 A 
ATOM      7  N   UNL     1      -2.534  13.079  23.936  0.00  0.00    +0.000 NA
ATOM      8  C   UNL     1      -3.561  13.928  23.713  0.00  0.00    +0.000 A 
ATOM      9  C   UNL     1      -4.135  14.139  22.477  0.00  0.00    +0.000 A 
ATOM     10 CL   UNL     1      -5.484  15.180  22.289  0.00  0.00    +0.000 Cl
ATOM     11  C   UNL     1      -3.583  13.426  21.429  0.00  0.00    +0.000 A 
ATOM     12  N   UNL     1      -2.525  12.624  21.635  0.00  0.00    +0.000 NA
ATOM     13  N   UNL     1      -0.068   9.466  22.580  0.00  0.00    +0.000 NA
ATOM     14  C   UNL     1       0.544   8.640  21.694  0.00  0.00    +0.000 A 
ATOM     15  H   UNL     1      -1.058  11.123  23.987  0.00  0.00    +0.000 HD
ENDROOT
BRANCH   1  19
ATOM     16  C   UNL     1       3.088   6.037  18.078  0.00  0.00    +0.000 C 
ATOM     17  C   UNL     1       2.454   7.300  17.438  0.00  0.00    +0.000 C 
ATOM     18  C   UNL     1       2.352   8.477  18.413  0.00  0.00    +0.000 C 
ATOM     19  N   UNL     1       1.577   8.032  19.576  0.00  0.00    +0.000 N 
ATOM     20  C   UNL     1       2.237   6.936  20.305  0.00  0.00    +0.000 C 
ATOM     21  C   UNL     1       2.302   5.729  19.374  0.00  0.00    +0.000 C 
BRANCH  16  23
ATOM     22  C   UNL     1       5.121   4.874  18.800  0.00  0.00    +0.000 C 
ATOM     23  N   UNL     1       4.561   6.139  18.295  0.00  0.00    +0.000 NA
ATOM     24  C   UNL     1       5.271   6.474  17.051  0.00  0.00    +0.000 C 
ENDBRANCH  16  23
ENDBRANCH   1  19
BRANCH  11  25
ATOM     25  N   UNL     1      -4.110  13.484  20.126  0.00  0.00    +0.000 N 
ATOM     26  H   UNL     1      -4.648  14.322  19.942  0.00  0.00    +0.000 HD
BRANCH  25  27
ATOM     27  C   UNL     1      -4.454  12.399  19.291  0.00  0.00    +0.000 A 
ATOM     28  C   UNL     1      -5.723  11.805  19.311  0.00  0.00    +0.000 A 
ATOM     29  C   UNL     1      -6.044  10.751  18.454  0.00  0.00    +0.000 A 
ATOM     30  C   UNL     1      -5.091  10.259  17.570  0.00  0.00    +0.000 A 
ATOM     31  C   UNL     1      -3.802  10.811  17.544  0.00  0.00    +0.000 A 
ATOM     32  C   UNL     1      -3.494  11.873  18.418  0.00  0.00    +0.000 A 
BRANCH  31  33
ATOM     33  C   UNL     1      -2.754  10.282  16.599  0.00  0.00    +0.000 C 
ATOM     34  F   UNL     1      -2.291  11.214  15.721  0.00  0.00    +0.000 F 
ATOM     35  F   UNL     1      -1.656   9.811  17.255  0.00  0.00    +0.000 F 
ATOM     36  F   UNL     1      -3.207   9.246  15.840  0.00  0.00    +0.000 F 
ENDBRANCH  31  33
ENDBRANCH  25  27
ENDBRANCH  11  25
TORSDOF 5
ENDMDL
MODEL 4
REMARK VINA RESULT:      -7.8      0.933      1.180
REMARK  Name = 
REMARK  7 active torsions:
REMARK  status: ('A' for Active; 'I' for Inactive)
REMARK    1  A    between atoms: C_1  and  N_2
REMARK    2  A    between atoms: N_2  and  C_3
REMARK    3  A    between atoms: N_2  and  C_4
REMARK    4  A    between atoms: N_7  and  C_8
REMARK    5  A    between atoms: C_18  and  N_19
REMARK    6  A    between atoms: N_19  and  C_20
REMARK    7  A    between atoms: C_24  and  C_25
REMARK                            x       y       z     vdW  Elec       q    Type
REMARK                         _______ _______ _______ _____ _____    ______ ____
ROOT
ATOM      1  C   UNL     1       0.913   8.905  20.445  0.00  0.00    +0.000 A 
ATOM      2  C   UNL     1      -0.001   9.728  19.801  0.00  0.00    +0.000 A 
ATOM      3  C   UNL     1      -0.504  10.863  20.443  0.00  0.00    +0.000 A 
ATOM      4  C   UNL     1      -0.103  11.175  21.742  0.00  0.00    +0.000 A 
ATOM      5  N   UNL     1      -0.524  12.325  22.403  0.00  0.00    +0.000 N 
ATOM      6  C   UNL     1      -1.778  12.920  22.367  0.00  0.00    +0.000 A 
ATOM      7  N   UNL     1      -2.005  13.957  23.184  0.00  0.00    +0.000 NA
ATOM      8  C   UNL     1      -3.248  14.484  23.163  0.00  0.00    +0.000 A 
ATOM      9  C   UNL     1      -4.283  13.991  22.397  0.00  0.00    +0.000 A 
ATOM     10 CL   UNL     1      -5.854  14.673  22.481  0.00  0.00    +0.000 Cl
ATOM     11  C   UNL     1      -3.979  12.897  21.608  0.00  0.00    +0.000 A 
ATOM     12  N   UNL     1      -2.729  12.404  21.582  0.00  0.00    +0.000 NA
ATOM     13  N   UNL     1       0.754  10.384  22.410  0.00  0.00    +0.000 NA
ATOM     14  C   UNL     1       1.208   9.280  21.763  0.00  0.00    +0.000 A 
ATOM     15  H   UNL     1      -0.090  12.431  23.305  0.00  0.00    +0.000 HD
ENDROOT
BRANCH   1  19
ATOM     16  C   UNL     1       2.752   5.353  18.851  0.00  0.00    +0.000 C 
ATOM     17  C   UNL     1       2.399   6.580  17.969  0.00  0.00    +0.000 C 
ATOM     18  C   UNL     1       2.423   7.900  18.744  0.00  0.00    +0.000 C 
ATOM     19  N   UNL     1       1.491   7.778  19.871  0.00  0.00    +0.000 N 
ATOM     20  C   UNL     1       1.892   6.725  20.818  0.00  0.00    +0.000 C 
ATOM     21  C   UNL     1       1.823   5.388  20.087  0.00  0.00    +0.000 C 
BRANCH  16  23
ATOM     22  C   UNL     1       4.588   3.867  19.504  0.00  0.00    +0.000 C 
ATOM     23  N   UNL     1       4.199   5.256  19.206  0.00  0.00    +0.000 NA
ATOM     24  C   UNL     1       5.060   5.735  18.114  0.00  0.00    +0.000 C 
ENDBRANCH  16  23
ENDBRANCH   1  19
BRANCH  11  25
ATOM     25  N   UNL     1      -4.952  12.242  20.831  0.00  0.00    +0.000 N 
ATOM     26  H   UNL     1      -5.381  11.452  21.297  0.00  0.00    +0.000 HD
BRANCH  25  27
ATOM     27  C   UNL     1      -5.019  12.170  19.423  0.00  0.00    +0.000 A 
ATOM     28  C   UNL     1      -6.088  12.703  18.691  0.00  0.00    +0.000 A 
ATOM     29  C   UNL     1      -6.115  12.640  17.297  0.00  0.00    +0.000 A 
ATOM     30  C   UNL     1      -5.077  12.025  16.608  0.00  0.00    +0.000 A 
ATOM     31  C   UNL     1      -4.005  11.454  17.311  0.00  0.00    +0.000 A 
ATOM     32  C   UNL     1      -3.995  11.524  18.718  0.00  0.00    +0.000 A 
BRANCH  31  33
ATOM     33  C   UNL     1      -2.877  10.775  16.580  0.00  0.00    +0.000 C 
ATOM     34  F   UNL     1      -1.664  10.935  17.178  0.00  0.00    +0.000 F 
ATOM     35  F   UNL     1      -3.064   9.428  16.476  0.00  0.00    +0.000 F 
ATOM     36  F   UNL     1      -2.728  11.229  15.305  0.00  0.00    +0.000 F 
ENDBRANCH  31  33
ENDBRANCH  25  27
ENDBRANCH  11  25
TORSDOF 5
ENDMDL
MODEL 5
REMARK VINA RESULT:      -7.7      6.168     10.130
REMARK  Name = 
REMARK  7 active torsions:
REMARK  status: ('A' for Active; 'I' for Inactive)
REMARK    1  A    between atoms: C_1  and  N_2
REMARK    2  A    between atoms: N_2  and  C_3
REMARK    3  A    between atoms: N_2  and  C_4
REMARK    4  A    between atoms: N_7  and  C_8
REMARK    5  A    between atoms: C_18  and  N_19
REMARK    6  A    between atoms: N_19  and  C_20
REMARK    7  A    between atoms: C_24  and  C_25
REMARK                            x       y       z     vdW  Elec       q    Type
REMARK                         _______ _______ _______ _____ _____    ______ ____
ROOT
ATOM      1  C   UNL     1       1.353  10.030  19.863  0.00  0.00    +0.000 A 
ATOM      2  C   UNL     1       1.775   9.042  18.983  0.00  0.00    +0.000 A 
ATOM      3  C   UNL     1       1.722   7.696  19.355  0.00  0.00    +0.000 A 
ATOM      4  C   UNL     1       1.257   7.330  20.618  0.00  0.00    +0.000 A 
ATOM      5  N   UNL     1       1.125   6.003  21.016  0.00  0.00    +0.000 N 
ATOM      6  C   UNL     1       1.969   4.938  20.731  0.00  0.00    +0.000 A 
ATOM      7  N   UNL     1       1.719   3.764  21.323  0.00  0.00    +0.000 NA
ATOM      8  C   UNL     1       2.586   2.759  21.066  0.00  0.00    +0.000 A 
ATOM      9  C   UNL     1       3.712   2.893  20.282  0.00  0.00    +0.000 A 
ATOM     10 CL   UNL     1       4.802   1.587  20.063  0.00  0.00    +0.000 Cl
ATOM     11  C   UNL     1       3.919   4.146  19.736  0.00  0.00    +0.000 A 
ATOM     12  N   UNL     1       3.031   5.132  19.942  0.00  0.00    +0.000 NA
ATOM     13  N   UNL     1       0.871   8.260  21.509  0.00  0.00    +0.000 NA
ATOM     14  C   UNL     1       0.954   9.559  21.121  0.00  0.00    +0.000 A 
ATOM     15  H   UNL     1       0.713   5.914  21.930  0.00  0.00    +0.000 HD
ENDROOT
BRANCH   1  19
ATOM     16  C   UNL     1       1.458  14.204  18.813  0.00  0.00    +0.000 C 
ATOM     17  C   UNL     1       0.689  13.673  20.050  0.00  0.00    +0.000 C 
ATOM     18  C   UNL     1       1.300  12.395  20.631  0.00  0.00    +0.000 C 
ATOM     19  N   UNL     1       1.337  11.388  19.564  0.00  0.00    +0.000 N 
ATOM     20  C   UNL     1       2.196  11.794  18.440  0.00  0.00    +0.000 C 
ATOM     21  C   UNL     1       1.579  13.036  17.805  0.00  0.00    +0.000 C 
BRANCH  16  23
ATOM     22  C   UNL     1       3.453  15.318  17.925  0.00  0.00    +0.000 C 
ATOM     23  N   UNL     1       2.770  14.837  19.138  0.00  0.00    +0.000 NA
ATOM     24  C   UNL     1       2.610  15.986  20.043  0.00  0.00    +0.000 C 
ENDBRANCH  16  23
ENDBRANCH   1  19
BRANCH  11  25
ATOM     25  N   UNL     1       5.063   4.450  18.976  0.00  0.00    +0.000 N 
ATOM     26  H   UNL     1       5.903   4.559  19.531  0.00  0.00    +0.000 HD
BRANCH  25  27
ATOM     27  C   UNL     1       5.116   5.124  17.737  0.00  0.00    +0.000 A 
ATOM     28  C   UNL     1       4.807   6.484  17.605  0.00  0.00    +0.000 A 
ATOM     29  C   UNL     1       4.894   7.131  16.371  0.00  0.00    +0.000 A 
ATOM     30  C   UNL     1       5.276   6.421  15.240  0.00  0.00    +0.000 A 
ATOM     31  C   UNL     1       5.562   5.051  15.330  0.00  0.00    +0.000 A 
ATOM     32  C   UNL     1       5.467   4.413  16.583  0.00  0.00    +0.000 A 
BRANCH  31  33
ATOM     33  C   UNL     1       5.967   4.265  14.110  0.00  0.00    +0.000 C 
ATOM     34  F   UNL     1       6.971   4.845  13.395  0.00  0.00    +0.000 F 
ATOM     35  F   UNL     1       6.410   3.014  14.424  0.00  0.00    +0.000 F 
ATOM     36  F   UNL     1       4.940   4.088  13.234  0.00  0.00    +0.000 F 
ENDBRANCH  31  33
ENDBRANCH  25  27
ENDBRANCH  11  25
TORSDOF 5
ENDMDL
MODEL 6
REMARK VINA RESULT:      -7.7      5.872     10.424
REMARK  Name = 
REMARK  7 active torsions:
REMARK  status: ('A' for Active; 'I' for Inactive)
REMARK    1  A    between atoms: C_1  and  N_2
REMARK    2  A    between atoms: N_2  and  C_3
REMARK    3  A    between atoms: N_2  and  C_4
REMARK    4  A    between atoms: N_7  and  C_8
REMARK    5  A    between atoms: C_18  and  N_19
REMARK    6  A    between atoms: N_19  and  C_20
REMARK    7  A    between atoms: C_24  and  C_25
REMARK                            x       y       z     vdW  Elec       q    Type
REMARK                         _______ _______ _______ _____ _____    ______ ____
ROOT
ATOM      1  C   UNL     1       1.011  10.702  19.992  0.00  0.00    +0.000 A 
ATOM      2  C   UNL     1       0.813   9.681  19.071  0.00  0.00    +0.000 A 
ATOM      3  C   UNL     1       0.900   8.344  19.471  0.00  0.00    +0.000 A 
ATOM      4  C   UNL     1       1.198   8.021  20.794  0.00  0.00    +0.000 A 
ATOM      5  N   UNL     1       1.235   6.709  21.258  0.00  0.00    +0.000 N 
ATOM      6  C   UNL     1       1.714   5.584  20.600  0.00  0.00    +0.000 A 
ATOM      7  N   UNL     1       1.771   4.434  21.284  0.00  0.00    +0.000 NA
ATOM      8  C   UNL     1       2.287   3.368  20.635  0.00  0.00    +0.000 A 
ATOM      9  C   UNL     1       2.791   3.415  19.352  0.00  0.00    +0.000 A 
ATOM     10 CL   UNL     1       3.497   2.032  18.624  0.00  0.00    +0.000 Cl
ATOM     11  C   UNL     1       2.729   4.646  18.727  0.00  0.00    +0.000 A 
ATOM     12  N   UNL     1       2.165   5.696  19.347  0.00  0.00    +0.000 NA
ATOM     13  N   UNL     1       1.429   8.981  21.706  0.00  0.00    +0.000 NA
ATOM     14  C   UNL     1       1.355  10.268  21.279  0.00  0.00    +0.000 A 
ATOM     15  H   UNL     1       1.398   6.656  22.250  0.00  0.00    +0.000 HD
ENDROOT
BRANCH   1  19
ATOM     16  C   UNL     1       0.814  14.933  19.217  0.00  0.00    +0.000 C 
ATOM     17  C   UNL     1      -0.177  13.920  18.585  0.00  0.00    +0.000 C 
ATOM     18  C   UNL     1      -0.398  12.679  19.454  0.00  0.00    +0.000 C 
ATOM     19  N   UNL     1       0.909  12.056  19.691  0.00  0.00    +0.000 N 
ATOM     20  C   UNL     1       1.822  12.936  20.438  0.00  0.00    +0.000 C 
ATOM     21  C   UNL     1       2.106  14.158  19.571  0.00  0.00    +0.000 C 
BRANCH  16  23
ATOM     22  C   UNL     1       1.254  16.598  20.961  0.00  0.00    +0.000 C 
ATOM     23  N   UNL     1       0.252  15.694  20.372  0.00  0.00    +0.000 NA
ATOM     24  C   UNL     1      -0.904  16.512  19.971  0.00  0.00    +0.000 C 
ENDBRANCH  16  23
ENDBRANCH   1  19
BRANCH  11  25
ATOM     25  N   UNL     1       3.271   4.862  17.447  0.00  0.00    +0.000 N 
ATOM     26  H   UNL     1       2.715   4.465  16.698  0.00  0.00    +0.000 HD
BRANCH  25  27
ATOM     27  C   UNL     1       4.629   5.037  17.107  0.00  0.00    +0.000 A 
ATOM     28  C   UNL     1       5.095   4.946  15.789  0.00  0.00    +0.000 A 
ATOM     29  C   UNL     1       6.441   5.150  15.479  0.00  0.00    +0.000 A 
ATOM     30  C   UNL     1       7.351   5.433  16.490  0.00  0.00    +0.000 A 
ATOM     31  C   UNL     1       6.925   5.501  17.824  0.00  0.00    +0.000 A 
ATOM     32  C   UNL     1       5.563   5.290  18.120  0.00  0.00    +0.000 A 
BRANCH  31  33
ATOM     33  C   UNL     1       7.902   5.796  18.933  0.00  0.00    +0.000 C 
ATOM     34  F   UNL     1       7.334   5.811  20.171  0.00  0.00    +0.000 F 
ATOM     35  F   UNL     1       8.906   4.875  18.996  0.00  0.00    +0.000 F 
ATOM     36  F   UNL     1       8.513   7.004  18.787  0.00  0.00    +0.000 F 
ENDBRANCH  31  33
ENDBRANCH  25  27
ENDBRANCH  11  25
TORSDOF 5
ENDMDL
MODEL 7
REMARK VINA RESULT:      -7.6      6.054     10.420
REMARK  Name = 
REMARK  7 active torsions:
REMARK  status: ('A' for Active; 'I' for Inactive)
REMARK    1  A    between atoms: C_1  and  N_2
REMARK    2  A    between atoms: N_2  and  C_3
REMARK    3  A    between atoms: N_2  and  C_4
REMARK    4  A    between atoms: N_7  and  C_8
REMARK    5  A    between atoms: C_18  and  N_19
REMARK    6  A    between atoms: N_19  and  C_20
REMARK    7  A    between atoms: C_24  and  C_25
REMARK                            x       y       z     vdW  Elec       q    Type
REMARK                         _______ _______ _______ _____ _____    ______ ____
ROOT
ATOM      1  C   UNL     1       1.094  10.684  20.004  0.00  0.00    +0.000 A 
ATOM      2  C   UNL     1       0.910   9.682  19.060  0.00  0.00    +0.000 A 
ATOM      3  C   UNL     1       0.945   8.338  19.442  0.00  0.00    +0.000 A 
ATOM      4  C   UNL     1       1.177   7.988  20.772  0.00  0.00    +0.000 A 
ATOM      5  N   UNL     1       1.160   6.669  21.216  0.00  0.00    +0.000 N 
ATOM      6  C   UNL     1       1.638   5.541  20.562  0.00  0.00    +0.000 A 
ATOM      7  N   UNL     1       1.635   4.380  21.230  0.00  0.00    +0.000 NA
ATOM      8  C   UNL     1       2.151   3.311  20.587  0.00  0.00    +0.000 A 
ATOM      9  C   UNL     1       2.711   3.362  19.328  0.00  0.00    +0.000 A 
ATOM     10 CL   UNL     1       3.411   1.972  18.609  0.00  0.00    +0.000 Cl
ATOM     11  C   UNL     1       2.708   4.604  18.720  0.00  0.00    +0.000 A 
ATOM     12  N   UNL     1       2.145   5.659  19.331  0.00  0.00    +0.000 NA
ATOM     13  N   UNL     1       1.393   8.928  21.707  0.00  0.00    +0.000 NA
ATOM     14  C   UNL     1       1.371  10.223  21.298  0.00  0.00    +0.000 A 
ATOM     15  H   UNL     1       1.279   6.597  22.214  0.00  0.00    +0.000 HD
ENDROOT
BRANCH   1  19
ATOM     16  C   UNL     1       1.121  14.888  19.075  0.00  0.00    +0.000 C 
ATOM     17  C   UNL     1      -0.019  14.219  19.886  0.00  0.00    +0.000 C 
ATOM     18  C   UNL     1       0.448  12.991  20.672  0.00  0.00    +0.000 C 
ATOM     19  N   UNL     1       1.040  12.044  19.720  0.00  0.00    +0.000 N 
ATOM     20  C   UNL     1       2.230  12.594  19.049  0.00  0.00    +0.000 C 
ATOM     21  C   UNL     1       1.784  13.789  18.212  0.00  0.00    +0.000 C 
BRANCH  16  23
ATOM     22  C   UNL     1       3.017  16.442  19.079  0.00  0.00    +0.000 C 
ATOM     23  N   UNL     1       2.098  15.647  19.911  0.00  0.00    +0.000 NA
ATOM     24  C   UNL     1       1.421  16.570  20.835  0.00  0.00    +0.000 C 
ENDBRANCH  16  23
ENDBRANCH   1  19
BRANCH  11  25
ATOM     25  N   UNL     1       3.309   4.824  17.467  0.00  0.00    +0.000 N 
ATOM     26  H   UNL     1       2.734   4.538  16.684  0.00  0.00    +0.000 HD
BRANCH  25  27
ATOM     27  C   UNL     1       4.689   4.853  17.171  0.00  0.00    +0.000 A 
ATOM     28  C   UNL     1       5.198   4.497  15.914  0.00  0.00    +0.000 A 
ATOM     29  C   UNL     1       6.565   4.560  15.641  0.00  0.00    +0.000 A 
ATOM     30  C   UNL     1       7.453   4.966  16.629  0.00  0.00    +0.000 A 
ATOM     31  C   UNL     1       6.982   5.301  17.907  0.00  0.00    +0.000 A 
ATOM     32  C   UNL     1       5.598   5.228  18.167  0.00  0.00    +0.000 A 
BRANCH  31  33
ATOM     33  C   UNL     1       7.933   5.732  18.993  0.00  0.00    +0.000 C 
ATOM     34  F   UNL     1       8.975   4.875  19.178  0.00  0.00    +0.000 F 
ATOM     35  F   UNL     1       8.494   6.948  18.736  0.00  0.00    +0.000 F 
ATOM     36  F   UNL     1       7.327   5.850  20.206  0.00  0.00    +0.000 F 
ENDBRANCH  31  33
ENDBRANCH  25  27
ENDBRANCH  11  25
TORSDOF 5
ENDMDL
MODEL 8
REMARK VINA RESULT:      -7.6      5.928     10.448
REMARK  Name = 
REMARK  7 active torsions:
REMARK  status: ('A' for Active; 'I' for Inactive)
REMARK    1  A    between atoms: C_1  and  N_2
REMARK    2  A    between atoms: N_2  and  C_3
REMARK    3  A    between atoms: N_2  and  C_4
REMARK    4  A    between atoms: N_7  and  C_8
REMARK    5  A    between atoms: C_18  and  N_19
REMARK    6  A    between atoms: N_19  and  C_20
REMARK    7  A    between atoms: C_24  and  C_25
REMARK                            x       y       z     vdW  Elec       q    Type
REMARK                         _______ _______ _______ _____ _____    ______ ____
ROOT
ATOM      1  C   UNL     1       1.186  10.589  20.317  0.00  0.00    +0.000 A 
ATOM      2  C   UNL     1       0.980   9.656  19.308  0.00  0.00    +0.000 A 
ATOM      3  C   UNL     1       0.993   8.289  19.598  0.00  0.00    +0.000 A 
ATOM      4  C   UNL     1       1.225   7.845  20.900  0.00  0.00    +0.000 A 
ATOM      5  N   UNL     1       1.186   6.500  21.254  0.00  0.00    +0.000 N 
ATOM      6  C   UNL     1       1.641   5.411  20.522  0.00  0.00    +0.000 A 
ATOM      7  N   UNL     1       1.621   4.208  21.110  0.00  0.00    +0.000 NA
ATOM      8  C   UNL     1       2.116   3.175  20.393  0.00  0.00    +0.000 A 
ATOM      9  C   UNL     1       2.670   3.303  19.137  0.00  0.00    +0.000 A 
ATOM     10 CL   UNL     1       3.343   1.953  18.321  0.00  0.00    +0.000 Cl
ATOM     11  C   UNL     1       2.687   4.583  18.615  0.00  0.00    +0.000 A 
ATOM     12  N   UNL     1       2.145   5.604  19.299  0.00  0.00    +0.000 NA
ATOM     13  N   UNL     1       1.461   8.716  21.896  0.00  0.00    +0.000 NA
ATOM     14  C   UNL     1       1.460  10.036  21.575  0.00  0.00    +0.000 A 
ATOM     15  H   UNL     1       1.308   6.358  22.243  0.00  0.00    +0.000 HD
ENDROOT
BRANCH   1  19
ATOM     16  C   UNL     1       0.950  14.865  19.873  0.00  0.00    +0.000 C 
ATOM     17  C   UNL     1       1.606  13.949  18.807  0.00  0.00    +0.000 C 
ATOM     18  C   UNL     1       1.011  12.538  18.783  0.00  0.00    +0.000 C 
ATOM     19  N   UNL     1       1.154  11.966  20.126  0.00  0.00    +0.000 N 
ATOM     20  C   UNL     1       0.405  12.724  21.142  0.00  0.00    +0.000 C 
ATOM     21  C   UNL     1       1.014  14.119  21.227  0.00  0.00    +0.000 C 
BRANCH  16  23
ATOM     22  C   UNL     1      -1.131  15.868  20.691  0.00  0.00    +0.000 C 
ATOM     23  N   UNL     1      -0.425  15.323  19.519  0.00  0.00    +0.000 NA
ATOM     24  C   UNL     1      -0.400  16.371  18.487  0.00  0.00    +0.000 C 
ENDBRANCH  16  23
ENDBRANCH   1  19
BRANCH  11  25
ATOM     25  N   UNL     1       3.287   4.877  17.376  0.00  0.00    +0.000 N 
ATOM     26  H   UNL     1       2.720   4.618  16.578  0.00  0.00    +0.000 HD
BRANCH  25  27
ATOM     27  C   UNL     1       4.666   4.950  17.087  0.00  0.00    +0.000 A 
ATOM     28  C   UNL     1       5.183   4.696  15.809  0.00  0.00    +0.000 A 
ATOM     29  C   UNL     1       6.549   4.802  15.545  0.00  0.00    +0.000 A 
ATOM     30  C   UNL     1       7.429   5.149  16.563  0.00  0.00    +0.000 A 
ATOM     31  C   UNL     1       6.950   5.381  17.860  0.00  0.00    +0.000 A 
ATOM     32  C   UNL     1       5.568   5.267  18.110  0.00  0.00    +0.000 A 
BRANCH  31  33
ATOM     33  C   UNL     1       7.892   5.748  18.977  0.00  0.00    +0.000 C 
ATOM     34  F   UNL     1       8.915   4.863  19.141  0.00  0.00    +0.000 F 
ATOM     35  F   UNL     1       8.480   6.962  18.782  0.00  0.00    +0.000 F 
ATOM     36  F   UNL     1       7.269   5.825  20.186  0.00  0.00    +0.000 F 
ENDBRANCH  31  33
ENDBRANCH  25  27
ENDBRANCH  11  25
TORSDOF 5
ENDMDL
MODEL 9
REMARK VINA RESULT:      -7.6      5.615     10.275
REMARK  Name = 
REMARK  7 active torsions:
REMARK  status: ('A' for Active; 'I' for Inactive)
REMARK    1  A    between atoms: C_1  and  N_2
REMARK    2  A    between atoms: N_2  and  C_3
REMARK    3  A    between atoms: N_2  and  C_4
REMARK    4  A    between atoms: N_7  and  C_8
REMARK    5  A    between atoms: C_18  and  N_19
REMARK    6  A    between atoms: N_19  and  C_20
REMARK    7  A    between atoms: C_24  and  C_25
REMARK                            x       y       z     vdW  Elec       q    Type
REMARK                         _______ _______ _______ _____ _____    ______ ____
ROOT
ATOM      1  C   UNL     1       0.968  12.756  19.902  0.00  0.00    +0.000 A 
ATOM      2  C   UNL     1       0.935  11.798  18.897  0.00  0.00    +0.000 A 
ATOM      3  C   UNL     1       0.955  10.438  19.217  0.00  0.00    +0.000 A 
ATOM      4  C   UNL     1       1.021  10.027  20.548  0.00  0.00    +0.000 A 
ATOM      5  N   UNL     1       0.980   8.688  20.924  0.00  0.00    +0.000 N 
ATOM      6  C   UNL     1       1.568   7.603  20.287  0.00  0.00    +0.000 A 
ATOM      7  N   UNL     1       1.508   6.411  20.893  0.00  0.00    +0.000 NA
ATOM      8  C   UNL     1       2.132   5.385  20.274  0.00  0.00    +0.000 A 
ATOM      9  C   UNL     1       2.849   5.510  19.103  0.00  0.00    +0.000 A 
ATOM     10 CL   UNL     1       3.674   4.171  18.419  0.00  0.00    +0.000 Cl
ATOM     11  C   UNL     1       2.894   6.780  18.560  0.00  0.00    +0.000 A 
ATOM     12  N   UNL     1       2.228   7.792  19.140  0.00  0.00    +0.000 NA
ATOM     13  N   UNL     1       1.088  10.924  21.546  0.00  0.00    +0.000 NA
ATOM     14  C   UNL     1       1.085  12.236  21.199  0.00  0.00    +0.000 A 
ATOM     15  H   UNL     1       0.969   8.568  21.924  0.00  0.00    +0.000 HD
ENDROOT
BRANCH   1  19
ATOM     16  C   UNL     1       0.608  16.985  19.179  0.00  0.00    +0.000 C 
ATOM     17  C   UNL     1       1.971  16.245  19.147  0.00  0.00    +0.000 C 
ATOM     18  C   UNL     1       1.843  14.774  18.742  0.00  0.00    +0.000 C 
ATOM     19  N   UNL     1       0.916  14.127  19.677  0.00  0.00    +0.000 N 
ATOM     20  C   UNL     1      -0.438  14.702  19.613  0.00  0.00    +0.000 C 
ATOM     21  C   UNL     1      -0.350  16.156  20.067  0.00  0.00    +0.000 C 
BRANCH  16  23
ATOM     22  C   UNL     1      -1.217  18.034  17.924  0.00  0.00    +0.000 C 
ATOM     23  N   UNL     1       0.046  17.283  17.829  0.00  0.00    +0.000 NA
ATOM     24  C   UNL     1       0.978  18.081  17.017  0.00  0.00    +0.000 C 
ENDBRANCH  16  23
ENDBRANCH   1  19
BRANCH  11  25
ATOM     25  N   UNL     1       3.647   7.073  17.408  0.00  0.00    +0.000 N 
ATOM     26  H   UNL     1       3.088   7.392  16.626  0.00  0.00    +0.000 HD
BRANCH  25  27
ATOM     27  C   UNL     1       4.882   6.508  17.024  0.00  0.00    +0.000 A 
ATOM     28  C   UNL     1       6.045   6.644  17.793  0.00  0.00    +0.000 A 
ATOM     29  C   UNL     1       7.247   6.051  17.401  0.00  0.00    +0.000 A 
ATOM     30  C   UNL     1       7.311   5.324  16.219  0.00  0.00    +0.000 A 
ATOM     31  C   UNL     1       6.173   5.194  15.409  0.00  0.00    +0.000 A 
ATOM     32  C   UNL     1       4.969   5.801  15.818  0.00  0.00    +0.000 A 
BRANCH  31  33
ATOM     33  C   UNL     1       6.228   4.418  14.119  0.00  0.00    +0.000 C 
ATOM     34  F   UNL     1       7.123   4.916  13.220  0.00  0.00    +0.000 F 
ATOM     35  F   UNL     1       6.583   3.116  14.313  0.00  0.00    +0.000 F 
ATOM     36  F   UNL     1       5.030   4.386  13.474  0.00  0.00    +0.000 F 
ENDBRANCH  31  33
ENDBRANCH  25  27
ENDBRANCH  11  25
TORSDOF 5
ENDMDL
