MODEL 1
REMARK VINA RESULT:      -7.8      0.000      0.000
REMARK  Name = 
REMARK  17 active torsions:
REMARK  status: ('A' for Active; 'I' for Inactive)
REMARK    1  A    between atoms: C_1  and  O_2
REMARK    2  A    between atoms: O_2  and  C_3
REMARK    3  A    between atoms: C_5  and  C_6
REMARK    4  A    between atoms: C_6  and  C_7
REMARK    5  A    between atoms: C_6  and  C_8
REMARK    6  A    between atoms: C_6  and  N_9
REMARK    7  A    between atoms: N_9  and  C_10
REMARK    8  A    between atoms: C_10  and  N_12
REMARK    9  A    between atoms: N_12  and  C_13
REMARK   10  A    between atoms: C_13  and  C_14
REMARK   11  A    between atoms: C_17  and  C_18
REMARK   12  A    between atoms: C_18  and  C_19
REMARK   13  A    between atoms: C_18  and  C_20
REMARK   14  A    between atoms: C_18  and  C_21
REMARK   15  A    between atoms: C_26  and  N_27
REMARK   16  A    between atoms: N_27  and  S_28
REMARK   17  A    between atoms: S_28  and  C_29
REMARK                            x       y       z     vdW  Elec       q    Type
REMARK                         _______ _______ _______ _____ _____    ______ ____
ROOT
ATOM      1  C   UNL     1       2.062   4.636  20.523  0.00  0.00    +0.000 C 
ATOM      2  C   UNL     1       0.597   4.381  20.122  0.00  0.00    +0.000 C 
ATOM      3  C   UNL     1       2.524   3.521  21.484  0.00  0.00    +0.000 C 
ENDROOT
BRANCH   1   6
ATOM      4  C   UNL     1       5.364   4.419  18.488  0.00  0.00    +0.000 A 
ATOM      5  C   UNL     1       4.407   4.747  19.472  0.00  0.00    +0.000 A 
ATOM      6  C   UNL     1       3.027   4.518  19.310  0.00  0.00    +0.000 A 
ATOM      7  C   UNL     1       2.618   3.976  18.084  0.00  0.00    +0.000 A 
ATOM      8  C   UNL     1       3.548   3.687  17.075  0.00  0.00    +0.000 A 
ATOM      9  C   UNL     1       4.917   3.910  17.262  0.00  0.00    +0.000 A 
BRANCH   4  11
ATOM     10  C   UNL     1       7.427   5.651  18.778  0.00  0.00    +0.000 C 
ATOM     11  O   UNL     1       6.628   4.506  18.994  0.00  0.00    +0.000 OA
ENDBRANCH   4  11
BRANCH   9  12
ATOM     12  N   UNL     1       5.769   3.395  16.238  0.00  0.00    +0.000 N 
ATOM     13  H   UNL     1       5.679   2.409  15.994  0.00  0.00    +0.000 HD
BRANCH  12  14
ATOM     14  S   UNL     1       6.464   4.353  15.058  0.00  0.00    +0.000 S 
ATOM     15  C   UNL     1       5.536   5.878  15.069  0.00  0.00    +0.000 C 
ATOM     16  O   UNL     1       7.824   4.668  15.437  0.00  0.00    +0.000 OA
ATOM     17  O   UNL     1       6.178   3.692  13.802  0.00  0.00    +0.000 OA
ENDBRANCH  12  14
ENDBRANCH   9  12
ENDBRANCH   1   6
BRANCH   1  18
ATOM     18  N   UNL     1       2.147   6.022  21.073  0.00  0.00    +0.000 N 
ATOM     19  H   UNL     1       2.447   6.050  22.036  0.00  0.00    +0.000 HD
BRANCH  18  20
ATOM     20  C   UNL     1       1.967   7.263  20.490  0.00  0.00    +0.000 C 
ATOM     21  S   UNL     1       2.183   7.658  18.883  0.00  0.00    +0.000 S 
BRANCH  20  22
ATOM     22  N   UNL     1       1.495   8.161  21.435  0.00  0.00    +0.000 N 
ATOM     23  H   UNL     1       2.126   8.439  22.169  0.00  0.00    +0.000 HD
BRANCH  22  24
ATOM     24  C   UNL     1       0.084   8.392  21.732  0.00  0.00    +0.000 C 
BRANCH  24  25
ATOM     25  C   UNL     1      -0.256   9.845  21.922  0.00  0.00    +0.000 A 
ATOM     26  C   UNL     1       0.178  10.797  20.997  0.00  0.00    +0.000 A 
ATOM     27  C   UNL     1      -0.172  12.143  21.129  0.00  0.00    +0.000 A 
ATOM     28  C   UNL     1      -0.971  12.590  22.191  0.00  0.00    +0.000 A 
ATOM     29  C   UNL     1      -1.394  11.624  23.125  0.00  0.00    +0.000 A 
ATOM     30  C   UNL     1      -1.040  10.275  22.996  0.00  0.00    +0.000 A 
BRANCH  28  31
ATOM     31  C   UNL     1      -1.394  14.062  22.338  0.00  0.00    +0.000 C 
ATOM     32  C   UNL     1      -2.905  14.292  22.106  0.00  0.00    +0.000 C 
ATOM     33  C   UNL     1      -1.068  14.557  23.763  0.00  0.00    +0.000 C 
ATOM     34  C   UNL     1      -0.636  14.931  21.314  0.00  0.00    +0.000 C 
ENDBRANCH  28  31
ENDBRANCH  24  25
ENDBRANCH  22  24
ENDBRANCH  20  22
ENDBRANCH  18  20
ENDBRANCH   1  18
TORSDOF 10
ENDMDL
MODEL 2
REMARK VINA RESULT:      -7.8      0.842      1.083
REMARK  Name = 
REMARK  17 active torsions:
REMARK  status: ('A' for Active; 'I' for Inactive)
REMARK    1  A    between atoms: C_1  and  O_2
REMARK    2  A    between atoms: O_2  and  C_3
REMARK    3  A    between atoms: C_5  and  C_6
REMARK    4  A    between atoms: C_6  and  C_7
REMARK    5  A    between atoms: C_6  and  C_8
REMARK    6  A    between atoms: C_6  and  N_9
REMARK    7  A    between atoms: N_9  and  C_10
REMARK    8  A    between atoms: C_10  and  N_12
REMARK    9  A    between atoms: N_12  and  C_13
REMARK   10  A    between atoms: C_13  and  C_14
REMARK   11  A    between atoms: C_17  and  C_18
REMARK   12  A    between atoms: C_18  and  C_19
REMARK   13  A    between atoms: C_18  and  C_20
REMARK   14  A    between atoms: C_18  and  C_21
REMARK   15  A    between atoms: C_26  and  N_27
REMARK   16  A    between atoms: N_27  and  S_28
REMARK   17  A    between atoms: S_28  and  C_29
REMARK                            x       y       z     vdW  Elec       q    Type
REMARK                         _______ _______ _______ _____ _____    ______ ____
ROOT
ATOM      1  C   UNL     1       2.230   4.348  20.448  0.00  0.00    +0.000 C 
ATOM      2  C   UNL     1       0.762   4.016  20.122  0.00  0.00    +0.000 C 
ATOM      3  C   UNL     1       2.797   3.264  21.389  0.00  0.00    +0.000 C 
ENDROOT
BRANCH   1   6
ATOM      4  C   UNL     1       5.432   4.318  18.248  0.00  0.00    +0.000 A 
ATOM      5  C   UNL     1       4.506   4.600  19.275  0.00  0.00    +0.000 A 
ATOM      6  C   UNL     1       3.139   4.271  19.188  0.00  0.00    +0.000 A 
ATOM      7  C   UNL     1       2.708   3.676  17.995  0.00  0.00    +0.000 A 
ATOM      8  C   UNL     1       3.603   3.431  16.945  0.00  0.00    +0.000 A 
ATOM      9  C   UNL     1       4.961   3.753  17.057  0.00  0.00    +0.000 A 
BRANCH   4  11
ATOM     10  C   UNL     1       7.047   5.584  19.533  0.00  0.00    +0.000 C 
ATOM     11  O   UNL     1       6.711   4.504  18.687  0.00  0.00    +0.000 OA
ENDBRANCH   4  11
BRANCH   9  12
ATOM     12  N   UNL     1       5.795   3.277  15.999  0.00  0.00    +0.000 N 
ATOM     13  H   UNL     1       5.697   2.301  15.717  0.00  0.00    +0.000 HD
BRANCH  12  14
ATOM     14  S   UNL     1       6.475   4.279  14.847  0.00  0.00    +0.000 S 
ATOM     15  C   UNL     1       5.496   5.772  14.872  0.00  0.00    +0.000 C 
ATOM     16  O   UNL     1       7.818   4.632  15.253  0.00  0.00    +0.000 OA
ATOM     17  O   UNL     1       6.229   3.633  13.576  0.00  0.00    +0.000 OA
ENDBRANCH  12  14
ENDBRANCH   9  12
ENDBRANCH   1   6
BRANCH   1  18
ATOM     18  N   UNL     1       2.271   5.740  20.987  0.00  0.00    +0.000 N 
ATOM     19  H   UNL     1       2.633   5.791  21.928  0.00  0.00    +0.000 HD
BRANCH  18  20
ATOM     20  C   UNL     1       1.980   6.965  20.414  0.00  0.00    +0.000 C 
ATOM     21  S   UNL     1       2.354   7.463  18.867  0.00  0.00    +0.000 S 
BRANCH  20  22
ATOM     22  N   UNL     1       1.242   7.733  21.302  0.00  0.00    +0.000 N 
ATOM     23  H   UNL     1       0.242   7.609  21.306  0.00  0.00    +0.000 HD
BRANCH  22  24
ATOM     24  C   UNL     1       1.698   8.987  21.897  0.00  0.00    +0.000 C 
BRANCH  24  25
ATOM     25  C   UNL     1       0.587   9.972  22.139  0.00  0.00    +0.000 A 
ATOM     26  C   UNL     1       0.422  11.070  21.293  0.00  0.00    +0.000 A 
ATOM     27  C   UNL     1      -0.636  11.966  21.470  0.00  0.00    +0.000 A 
ATOM     28  C   UNL     1      -1.571  11.797  22.502  0.00  0.00    +0.000 A 
ATOM     29  C   UNL     1      -1.388  10.693  23.357  0.00  0.00    +0.000 A 
ATOM     30  C   UNL     1      -0.326   9.797  23.182  0.00  0.00    +0.000 A 
BRANCH  28  31
ATOM     31  C   UNL     1      -2.759  12.754  22.697  0.00  0.00    +0.000 C 
ATOM     32  C   UNL     1      -3.693  12.343  23.859  0.00  0.00    +0.000 C 
ATOM     33  C   UNL     1      -2.239  14.173  23.007  0.00  0.00    +0.000 C 
ATOM     34  C   UNL     1      -3.616  12.797  21.415  0.00  0.00    +0.000 C 
ENDBRANCH  28  31
ENDBRANCH  24  25
ENDBRANCH  22  24
ENDBRANCH  20  22
ENDBRANCH  18  20
ENDBRANCH   1  18
TORSDOF 10
ENDMDL
MODEL 3
REMARK VINA RESULT:      -7.2      5.727     10.773
REMARK  Name = 
REMARK  17 active torsions:
REMARK  status: ('A' for Active; 'I' for Inactive)
REMARK    1  A    between atoms: C_1  and  O_2
REMARK    2  A    between atoms: O_2  and  C_3
REMARK    3  A    between atoms: C_5  and  C_6
REMARK    4  A    between atoms: C_6  and  C_7
REMARK    5  A    between atoms: C_6  and  C_8
REMARK    6  A    between atoms: C_6  and  N_9
REMARK    7  A    between atoms: N_9  and  C_10
REMARK    8  A    between atoms: C_10  and  N_12
REMARK    9  A    between atoms: N_12  and  C_13
REMARK   10  A    between atoms: C_13  and  C_14
REMARK   11  A    between atoms: C_17  and  C_18
REMARK   12  A    between atoms: C_18  and  C_19
REMARK   13  A    between atoms: C_18  and  C_20
REMARK   14  A    between atoms: C_18  and  C_21
REMARK   15  A    between atoms: C_26  and  N_27
REMARK   16  A    between atoms: N_27  and  S_28
REMARK   17  A    between atoms: S_28  and  C_29
REMARK                            x       y       z     vdW  Elec       q    Type
REMARK                         _______ _______ _______ _____ _____    ______ ____
ROOT
ATOM      1  C   UNL     1       0.189  10.554  19.584  0.00  0.00    +0.000 C 
ATOM      2  C   UNL     1       0.636  10.296  18.133  0.00  0.00    +0.000 C 
ATOM      3  C   UNL     1       1.062  11.673  20.190  0.00  0.00    +0.000 C 
ENDROOT
BRANCH   1   6
ATOM      4  C   UNL     1      -2.845  12.696  20.722  0.00  0.00    +0.000 A 
ATOM      5  C   UNL     1      -1.643  11.956  20.721  0.00  0.00    +0.000 A 
ATOM      6  C   UNL     1      -1.258  11.117  19.657  0.00  0.00    +0.000 A 
ATOM      7  C   UNL     1      -2.155  11.004  18.587  0.00  0.00    +0.000 A 
ATOM      8  C   UNL     1      -3.376  11.693  18.590  0.00  0.00    +0.000 A 
ATOM      9  C   UNL     1      -3.733  12.534  19.651  0.00  0.00    +0.000 A 
BRANCH   4  11
ATOM     10  C   UNL     1      -3.518  13.345  22.955  0.00  0.00    +0.000 C 
ATOM     11  O   UNL     1      -2.851  13.608  21.737  0.00  0.00    +0.000 OA
ENDBRANCH   4  11
BRANCH   9  12
ATOM     12  N   UNL     1      -4.906  13.322  19.443  0.00  0.00    +0.000 N 
ATOM     13  H   UNL     1      -4.940  13.915  18.614  0.00  0.00    +0.000 HD
BRANCH  12  14
ATOM     14  S   UNL     1      -6.395  12.941  20.101  0.00  0.00    +0.000 S 
ATOM     15  C   UNL     1      -7.363  12.290  18.750  0.00  0.00    +0.000 C 
ATOM     16  O   UNL     1      -6.232  11.881  21.071  0.00  0.00    +0.000 OA
ATOM     17  O   UNL     1      -6.989  14.206  20.476  0.00  0.00    +0.000 OA
ENDBRANCH  12  14
ENDBRANCH   9  12
ENDBRANCH   1   6
BRANCH   1  18
ATOM     18  N   UNL     1       0.236   9.250  20.311  0.00  0.00    +0.000 N 
ATOM     19  H   UNL     1      -0.102   8.475  19.760  0.00  0.00    +0.000 HD
BRANCH  18  20
ATOM     20  C   UNL     1       0.722   8.901  21.558  0.00  0.00    +0.000 C 
ATOM     21  S   UNL     1       0.169   9.438  23.037  0.00  0.00    +0.000 S 
BRANCH  20  22
ATOM     22  N   UNL     1       1.723   7.951  21.421  0.00  0.00    +0.000 N 
ATOM     23  H   UNL     1       2.677   8.265  21.505  0.00  0.00    +0.000 HD
BRANCH  22  24
ATOM     24  C   UNL     1       1.567   6.667  20.742  0.00  0.00    +0.000 C 
BRANCH  24  25
ATOM     25  C   UNL     1       2.620   6.411  19.699  0.00  0.00    +0.000 A 
ATOM     26  C   UNL     1       3.498   5.334  19.834  0.00  0.00    +0.000 A 
ATOM     27  C   UNL     1       4.448   5.050  18.849  0.00  0.00    +0.000 A 
ATOM     28  C   UNL     1       4.557   5.833  17.691  0.00  0.00    +0.000 A 
ATOM     29  C   UNL     1       3.675   6.925  17.571  0.00  0.00    +0.000 A 
ATOM     30  C   UNL     1       2.725   7.212  18.559  0.00  0.00    +0.000 A 
BRANCH  28  31
ATOM     31  C   UNL     1       5.575   5.519  16.581  0.00  0.00    +0.000 C 
ATOM     32  C   UNL     1       7.039   5.794  16.997  0.00  0.00    +0.000 C 
ATOM     33  C   UNL     1       5.481   4.028  16.194  0.00  0.00    +0.000 C 
ATOM     34  C   UNL     1       5.282   6.385  15.338  0.00  0.00    +0.000 C 
ENDBRANCH  28  31
ENDBRANCH  24  25
ENDBRANCH  22  24
ENDBRANCH  20  22
ENDBRANCH  18  20
ENDBRANCH   1  18
TORSDOF 10
ENDMDL
MODEL 4
REMARK VINA RESULT:      -7.1      3.067      5.137
REMARK  Name = 
REMARK  17 active torsions:
REMARK  status: ('A' for Active; 'I' for Inactive)
REMARK    1  A    between atoms: C_1  and  O_2
REMARK    2  A    between atoms: O_2  and  C_3
REMARK    3  A    between atoms: C_5  and  C_6
REMARK    4  A    between atoms: C_6  and  C_7
REMARK    5  A    between atoms: C_6  and  C_8
REMARK    6  A    between atoms: C_6  and  N_9
REMARK    7  A    between atoms: N_9  and  C_10
REMARK    8  A    between atoms: C_10  and  N_12
REMARK    9  A    between atoms: N_12  and  C_13
REMARK   10  A    between atoms: C_13  and  C_14
REMARK   11  A    between atoms: C_17  and  C_18
REMARK   12  A    between atoms: C_18  and  C_19
REMARK   13  A    between atoms: C_18  and  C_20
REMARK   14  A    between atoms: C_18  and  C_21
REMARK   15  A    between atoms: C_26  and  N_27
REMARK   16  A    between atoms: N_27  and  S_28
REMARK   17  A    between atoms: S_28  and  C_29
REMARK                            x       y       z     vdW  Elec       q    Type
REMARK                         _______ _______ _______ _____ _____    ______ ____
ROOT
ATOM      1  C   UNL     1       0.760  10.220  19.541  0.00  0.00    +0.000 C 
ATOM      2  C   UNL     1       1.150  11.471  18.733  0.00  0.00    +0.000 C 
ATOM      3  C   UNL     1      -0.651   9.763  19.115  0.00  0.00    +0.000 C 
ENDROOT
BRANCH   1   6
ATOM      4  C   UNL     1       2.340   6.677  19.741  0.00  0.00    +0.000 A 
ATOM      5  C   UNL     1       1.739   7.905  20.089  0.00  0.00    +0.000 A 
ATOM      6  C   UNL     1       1.671   9.004  19.211  0.00  0.00    +0.000 A 
ATOM      7  C   UNL     1       2.275   8.847  17.956  0.00  0.00    +0.000 A 
ATOM      8  C   UNL     1       2.918   7.651  17.608  0.00  0.00    +0.000 A 
ATOM      9  C   UNL     1       2.963   6.566  18.491  0.00  0.00    +0.000 A 
BRANCH   4  11
ATOM     10  C   UNL     1       1.052   4.743  20.420  0.00  0.00    +0.000 C 
ATOM     11  O   UNL     1       2.047   5.716  20.665  0.00  0.00    +0.000 OA
ENDBRANCH   4  11
BRANCH   9  12
ATOM     12  N   UNL     1       3.475   5.349  17.945  0.00  0.00    +0.000 N 
ATOM     13  H   UNL     1       3.202   5.102  16.993  0.00  0.00    +0.000 HD
BRANCH  12  14
ATOM     14  S   UNL     1       4.876   4.619  18.490  0.00  0.00    +0.000 S 
ATOM     15  C   UNL     1       4.341   3.219  19.459  0.00  0.00    +0.000 C 
ATOM     16  O   UNL     1       5.619   4.107  17.359  0.00  0.00    +0.000 OA
ATOM     17  O   UNL     1       5.476   5.564  19.406  0.00  0.00    +0.000 OA
ENDBRANCH  12  14
ENDBRANCH   9  12
ENDBRANCH   1   6
BRANCH   1  18
ATOM     18  N   UNL     1       0.907  10.552  20.990  0.00  0.00    +0.000 N 
ATOM     19  H   UNL     1       1.865  10.704  21.268  0.00  0.00    +0.000 HD
BRANCH  18  20
ATOM     20  C   UNL     1      -0.024  10.762  21.992  0.00  0.00    +0.000 C 
ATOM     21  S   UNL     1      -0.529   9.661  23.139  0.00  0.00    +0.000 S 
BRANCH  20  22
ATOM     22  N   UNL     1      -0.448  12.081  21.967  0.00  0.00    +0.000 N 
ATOM     23  H   UNL     1       0.032  12.714  21.348  0.00  0.00    +0.000 HD
BRANCH  22  24
ATOM     24  C   UNL     1      -1.197  12.736  23.037  0.00  0.00    +0.000 C 
BRANCH  24  25
ATOM     25  C   UNL     1      -2.683  12.748  22.805  0.00  0.00    +0.000 A 
ATOM     26  C   UNL     1      -3.565  12.836  23.885  0.00  0.00    +0.000 A 
ATOM     27  C   UNL     1      -4.946  12.902  23.685  0.00  0.00    +0.000 A 
ATOM     28  C   UNL     1      -5.500  12.882  22.397  0.00  0.00    +0.000 A 
ATOM     29  C   UNL     1      -4.603  12.780  21.315  0.00  0.00    +0.000 A 
ATOM     30  C   UNL     1      -3.218  12.711  21.515  0.00  0.00    +0.000 A 
BRANCH  28  31
ATOM     31  C   UNL     1      -7.015  12.984  22.153  0.00  0.00    +0.000 C 
ATOM     32  C   UNL     1      -7.533  14.440  22.108  0.00  0.00    +0.000 C 
ATOM     33  C   UNL     1      -7.370  12.329  20.802  0.00  0.00    +0.000 C 
ATOM     34  C   UNL     1      -7.779  12.261  23.282  0.00  0.00    +0.000 C 
ENDBRANCH  28  31
ENDBRANCH  24  25
ENDBRANCH  22  24
ENDBRANCH  20  22
ENDBRANCH  18  20
ENDBRANCH   1  18
TORSDOF 10
ENDMDL
MODEL 5
REMARK VINA RESULT:      -7.1      5.232      8.696
REMARK  Name = 
REMARK  17 active torsions:
REMARK  status: ('A' for Active; 'I' for Inactive)
REMARK    1  A    between atoms: C_1  and  O_2
REMARK    2  A    between atoms: O_2  and  C_3
REMARK    3  A    between atoms: C_5  and  C_6
REMARK    4  A    between atoms: C_6  and  C_7
REMARK    5  A    between atoms: C_6  and  C_8
REMARK    6  A    between atoms: C_6  and  N_9
REMARK    7  A    between atoms: N_9  and  C_10
REMARK    8  A    between atoms: C_10  and  N_12
REMARK    9  A    between atoms: N_12  and  C_13
REMARK   10  A    between atoms: C_13  and  C_14
REMARK   11  A    between atoms: C_17  and  C_18
REMARK   12  A    between atoms: C_18  and  C_19
REMARK   13  A    between atoms: C_18  and  C_20
REMARK   14  A    between atoms: C_18  and  C_21
REMARK   15  A    between atoms: C_26  and  N_27
REMARK   16  A    between atoms: N_27  and  S_28
REMARK   17  A    between atoms: S_28  and  C_29
REMARK                            x       y       z     vdW  Elec       q    Type
REMARK                         _______ _______ _______ _____ _____    ______ ____
ROOT
ATOM      1  C   UNL     1       3.723   6.092  18.146  0.00  0.00    +0.000 C 
ATOM      2  C   UNL     1       4.447   5.673  19.439  0.00  0.00    +0.000 C 
ATOM      3  C   UNL     1       2.813   4.936  17.679  0.00  0.00    +0.000 C 
ENDROOT
BRANCH   1   6
ATOM      4  C   UNL     1       1.308   8.528  19.969  0.00  0.00    +0.000 A 
ATOM      5  C   UNL     1       2.015   7.369  19.584  0.00  0.00    +0.000 A 
ATOM      6  C   UNL     1       2.744   7.276  18.383  0.00  0.00    +0.000 A 
ATOM      7  C   UNL     1       2.708   8.392  17.536  0.00  0.00    +0.000 A 
ATOM      8  C   UNL     1       1.973   9.536  17.878  0.00  0.00    +0.000 A 
ATOM      9  C   UNL     1       1.267   9.612  19.084  0.00  0.00    +0.000 A 
BRANCH   4  11
ATOM     10  C   UNL     1       1.626   9.091  22.302  0.00  0.00    +0.000 C 
ATOM     11  O   UNL     1       0.910   8.442  21.272  0.00  0.00    +0.000 OA
ENDBRANCH   4  11
BRANCH   9  12
ATOM     12  N   UNL     1       0.723  10.896  19.398  0.00  0.00    +0.000 N 
ATOM     13  H   UNL     1       1.270  11.719  19.146  0.00  0.00    +0.000 HD
BRANCH  12  14
ATOM     14  S   UNL     1      -0.912  11.172  19.609  0.00  0.00    +0.000 S 
ATOM     15  C   UNL     1      -1.183  12.860  19.097  0.00  0.00    +0.000 C 
ATOM     16  O   UNL     1      -1.660  10.319  18.712  0.00  0.00    +0.000 OA
ATOM     17  O   UNL     1      -1.133  11.122  21.038  0.00  0.00    +0.000 OA
ENDBRANCH  12  14
ENDBRANCH   9  12
ENDBRANCH   1   6
BRANCH   1  18
ATOM     18  N   UNL     1       4.763   6.517  17.161  0.00  0.00    +0.000 N 
ATOM     19  H   UNL     1       4.401   7.114  16.433  0.00  0.00    +0.000 HD
BRANCH  18  20
ATOM     20  C   UNL     1       6.129   6.307  17.108  0.00  0.00    +0.000 C 
ATOM     21  S   UNL     1       6.912   4.861  16.831  0.00  0.00    +0.000 S 
BRANCH  20  22
ATOM     22  N   UNL     1       6.794   7.516  17.247  0.00  0.00    +0.000 N 
ATOM     23  H   UNL     1       6.629   8.222  16.547  0.00  0.00    +0.000 HD
BRANCH  22  24
ATOM     24  C   UNL     1       8.015   7.711  18.025  0.00  0.00    +0.000 C 
BRANCH  24  25
ATOM     25  C   UNL     1       8.369   9.158  18.227  0.00  0.00    +0.000 A 
ATOM     26  C   UNL     1       9.254   9.532  19.241  0.00  0.00    +0.000 A 
ATOM     27  C   UNL     1       9.636  10.866  19.410  0.00  0.00    +0.000 A 
ATOM     28  C   UNL     1       9.147  11.878  18.571  0.00  0.00    +0.000 A 
ATOM     29  C   UNL     1       8.245  11.492  17.560  0.00  0.00    +0.000 A 
ATOM     30  C   UNL     1       7.860  10.156  17.392  0.00  0.00    +0.000 A 
BRANCH  28  31
ATOM     31  C   UNL     1       9.577  13.347  18.721  0.00  0.00    +0.000 C 
ATOM     32  C   UNL     1      10.528  13.825  17.598  0.00  0.00    +0.000 C 
ATOM     33  C   UNL     1       8.333  14.260  18.687  0.00  0.00    +0.000 C 
ATOM     34  C   UNL     1      10.315  13.545  20.061  0.00  0.00    +0.000 C 
ENDBRANCH  28  31
ENDBRANCH  24  25
ENDBRANCH  22  24
ENDBRANCH  20  22
ENDBRANCH  18  20
ENDBRANCH   1  18
TORSDOF 10
ENDMDL
MODEL 6
REMARK VINA RESULT:      -7.1      5.177      8.011
REMARK  Name = 
REMARK  17 active torsions:
REMARK  status: ('A' for Active; 'I' for Inactive)
REMARK    1  A    between atoms: C_1  and  O_2
REMARK    2  A    between atoms: O_2  and  C_3
REMARK    3  A    between atoms: C_5  and  C_6
REMARK    4  A    between atoms: C_6  and  C_7
REMARK    5  A    between atoms: C_6  and  C_8
REMARK    6  A    between atoms: C_6  and  N_9
REMARK    7  A    between atoms: N_9  and  C_10
REMARK    8  A    between atoms: C_10  and  N_12
REMARK    9  A    between atoms: N_12  and  C_13
REMARK   10  A    between atoms: C_13  and  C_14
REMARK   11  A    between atoms: C_17  and  C_18
REMARK   12  A    between atoms: C_18  and  C_19
REMARK   13  A    between atoms: C_18  and  C_20
REMARK   14  A    between atoms: C_18  and  C_21
REMARK   15  A    between atoms: C_26  and  N_27
REMARK   16  A    between atoms: N_27  and  S_28
REMARK   17  A    between atoms: S_28  and  C_29
REMARK                            x       y       z     vdW  Elec       q    Type
REMARK                         _______ _______ _______ _____ _____    ______ ____
ROOT
ATOM      1  C   UNL     1       6.274   5.907  15.951  0.00  0.00    +0.000 C 
ATOM      2  C   UNL     1       7.193   4.800  15.403  0.00  0.00    +0.000 C 
ATOM      3  C   UNL     1       5.516   6.562  14.778  0.00  0.00    +0.000 C 
ENDROOT
BRANCH   1   6
ATOM      4  C   UNL     1       3.010   5.727  18.051  0.00  0.00    +0.000 A 
ATOM      5  C   UNL     1       4.189   6.194  17.430  0.00  0.00    +0.000 A 
ATOM      6  C   UNL     1       5.149   5.336  16.860  0.00  0.00    +0.000 A 
ATOM      7  C   UNL     1       4.910   3.959  16.971  0.00  0.00    +0.000 A 
ATOM      8  C   UNL     1       3.770   3.474  17.626  0.00  0.00    +0.000 A 
ATOM      9  C   UNL     1       2.820   4.345  18.173  0.00  0.00    +0.000 A 
BRANCH   4  11
ATOM     10  C   UNL     1       2.521   8.098  18.045  0.00  0.00    +0.000 C 
ATOM     11  O   UNL     1       2.146   6.757  18.284  0.00  0.00    +0.000 OA
ENDBRANCH   4  11
BRANCH   9  12
ATOM     12  N   UNL     1       1.617   3.729  18.638  0.00  0.00    +0.000 N 
ATOM     13  H   UNL     1       1.169   3.042  18.031  0.00  0.00    +0.000 HD
BRANCH  12  14
ATOM     14  S   UNL     1       1.212   3.614  20.255  0.00  0.00    +0.000 S 
ATOM     15  C   UNL     1       2.629   2.880  21.053  0.00  0.00    +0.000 C 
ATOM     16  O   UNL     1       1.044   4.943  20.801  0.00  0.00    +0.000 OA
ATOM     17  O   UNL     1       0.140   2.644  20.319  0.00  0.00    +0.000 OA
ENDBRANCH  12  14
ENDBRANCH   9  12
ENDBRANCH   1   6
BRANCH   1  18
ATOM     18  N   UNL     1       7.118   6.838  16.759  0.00  0.00    +0.000 N 
ATOM     19  H   UNL     1       7.286   7.721  16.300  0.00  0.00    +0.000 HD
BRANCH  18  20
ATOM     20  C   UNL     1       7.642   6.744  18.035  0.00  0.00    +0.000 C 
ATOM     21  S   UNL     1       7.705   5.381  18.996  0.00  0.00    +0.000 S 
BRANCH  20  22
ATOM     22  N   UNL     1       8.197   7.959  18.405  0.00  0.00    +0.000 N 
ATOM     23  H   UNL     1       8.272   8.157  19.390  0.00  0.00    +0.000 HD
BRANCH  22  24
ATOM     24  C   UNL     1       8.269   9.138  17.545  0.00  0.00    +0.000 C 
BRANCH  24  25
ATOM     25  C   UNL     1       8.739  10.373  18.264  0.00  0.00    +0.000 A 
ATOM     26  C   UNL     1       8.563  11.633  17.688  0.00  0.00    +0.000 A 
ATOM     27  C   UNL     1       8.946  12.795  18.365  0.00  0.00    +0.000 A 
ATOM     28  C   UNL     1       9.519  12.741  19.643  0.00  0.00    +0.000 A 
ATOM     29  C   UNL     1       9.704  11.465  20.209  0.00  0.00    +0.000 A 
ATOM     30  C   UNL     1       9.324  10.300  19.531  0.00  0.00    +0.000 A 
BRANCH  28  31
ATOM     31  C   UNL     1       9.919  14.009  20.417  0.00  0.00    +0.000 C 
ATOM     32  C   UNL     1       9.087  15.253  20.028  0.00  0.00    +0.000 C 
ATOM     33  C   UNL     1       9.721  13.779  21.930  0.00  0.00    +0.000 C 
ATOM     34  C   UNL     1      11.400  14.346  20.145  0.00  0.00    +0.000 C 
ENDBRANCH  28  31
ENDBRANCH  24  25
ENDBRANCH  22  24
ENDBRANCH  20  22
ENDBRANCH  18  20
ENDBRANCH   1  18
TORSDOF 10
ENDMDL
MODEL 7
REMARK VINA RESULT:      -7.0      3.278      5.495
REMARK  Name = 
REMARK  17 active torsions:
REMARK  status: ('A' for Active; 'I' for Inactive)
REMARK    1  A    between atoms: C_1  and  O_2
REMARK    2  A    between atoms: O_2  and  C_3
REMARK    3  A    between atoms: C_5  and  C_6
REMARK    4  A    between atoms: C_6  and  C_7
REMARK    5  A    between atoms: C_6  and  C_8
REMARK    6  A    between atoms: C_6  and  N_9
REMARK    7  A    between atoms: N_9  and  C_10
REMARK    8  A    between atoms: C_10  and  N_12
REMARK    9  A    between atoms: N_12  and  C_13
REMARK   10  A    between atoms: C_13  and  C_14
REMARK   11  A    between atoms: C_17  and  C_18
REMARK   12  A    between atoms: C_18  and  C_19
REMARK   13  A    between atoms: C_18  and  C_20
REMARK   14  A    between atoms: C_18  and  C_21
REMARK   15  A    between atoms: C_26  and  N_27
REMARK   16  A    between atoms: N_27  and  S_28
REMARK   17  A    between atoms: S_28  and  C_29
REMARK                            x       y       z     vdW  Elec       q    Type
REMARK                         _______ _______ _______ _____ _____    ______ ____
ROOT
ATOM      1  C   UNL     1       0.952  10.481  19.086  0.00  0.00    +0.000 C 
ATOM      2  C   UNL     1       1.968  11.259  18.231  0.00  0.00    +0.000 C 
ATOM      3  C   UNL     1      -0.389  10.398  18.327  0.00  0.00    +0.000 C 
ENDROOT
BRANCH   1   6
ATOM      4  C   UNL     1       2.696   7.064  18.479  0.00  0.00    +0.000 A 
ATOM      5  C   UNL     1       2.073   8.313  18.274  0.00  0.00    +0.000 A 
ATOM      6  C   UNL     1       1.370   8.997  19.285  0.00  0.00    +0.000 A 
ATOM      7  C   UNL     1       1.270   8.356  20.527  0.00  0.00    +0.000 A 
ATOM      8  C   UNL     1       1.840   7.093  20.737  0.00  0.00    +0.000 A 
ATOM      9  C   UNL     1       2.548   6.437  19.722  0.00  0.00    +0.000 A 
BRANCH   4  11
ATOM     10  C   UNL     1       4.860   6.385  17.633  0.00  0.00    +0.000 C 
ATOM     11  O   UNL     1       3.511   6.751  17.429  0.00  0.00    +0.000 OA
ENDBRANCH   4  11
BRANCH   9  12
ATOM     12  N   UNL     1       3.240   5.252  20.121  0.00  0.00    +0.000 N 
ATOM     13  H   UNL     1       3.859   5.313  20.930  0.00  0.00    +0.000 HD
BRANCH  12  14
ATOM     14  S   UNL     1       2.707   3.712  19.754  0.00  0.00    +0.000 S 
ATOM     15  C   UNL     1       1.279   3.439  20.788  0.00  0.00    +0.000 C 
ATOM     16  O   UNL     1       2.262   3.675  18.378  0.00  0.00    +0.000 OA
ATOM     17  O   UNL     1       3.746   2.820  20.223  0.00  0.00    +0.000 OA
ENDBRANCH  12  14
ENDBRANCH   9  12
ENDBRANCH   1   6
BRANCH   1  18
ATOM     18  N   UNL     1       0.882  11.144  20.423  0.00  0.00    +0.000 N 
ATOM     19  H   UNL     1       1.599  10.831  21.060  0.00  0.00    +0.000 HD
BRANCH  18  20
ATOM     20  C   UNL     1       0.073  12.152  20.917  0.00  0.00    +0.000 C 
ATOM     21  S   UNL     1       0.171  13.780  20.565  0.00  0.00    +0.000 S 
BRANCH  20  22
ATOM     22  N   UNL     1      -0.917  11.607  21.720  0.00  0.00    +0.000 N 
ATOM     23  H   UNL     1      -1.570  10.973  21.288  0.00  0.00    +0.000 HD
BRANCH  22  24
ATOM     24  C   UNL     1      -1.377  12.181  22.981  0.00  0.00    +0.000 C 
BRANCH  24  25
ATOM     25  C   UNL     1      -2.851  12.481  22.998  0.00  0.00    +0.000 A 
ATOM     26  C   UNL     1      -3.554  12.631  21.801  0.00  0.00    +0.000 A 
ATOM     27  C   UNL     1      -4.933  12.857  21.797  0.00  0.00    +0.000 A 
ATOM     28  C   UNL     1      -5.663  12.943  22.991  0.00  0.00    +0.000 A 
ATOM     29  C   UNL     1      -4.942  12.803  24.193  0.00  0.00    +0.000 A 
ATOM     30  C   UNL     1      -3.560  12.580  24.198  0.00  0.00    +0.000 A 
BRANCH  28  31
ATOM     31  C   UNL     1      -7.185  13.162  23.008  0.00  0.00    +0.000 C 
ATOM     32  C   UNL     1      -7.693  13.837  24.303  0.00  0.00    +0.000 C 
ATOM     33  C   UNL     1      -7.594  14.068  21.828  0.00  0.00    +0.000 C 
ATOM     34  C   UNL     1      -7.913  11.807  22.883  0.00  0.00    +0.000 C 
ENDBRANCH  28  31
ENDBRANCH  24  25
ENDBRANCH  22  24
ENDBRANCH  20  22
ENDBRANCH  18  20
ENDBRANCH   1  18
TORSDOF 10
ENDMDL
MODEL 8
REMARK VINA RESULT:      -6.9      3.182      4.817
REMARK  Name = 
REMARK  17 active torsions:
REMARK  status: ('A' for Active; 'I' for Inactive)
REMARK    1  A    between atoms: C_1  and  O_2
REMARK    2  A    between atoms: O_2  and  C_3
REMARK    3  A    between atoms: C_5  and  C_6
REMARK    4  A    between atoms: C_6  and  C_7
REMARK    5  A    between atoms: C_6  and  C_8
REMARK    6  A    between atoms: C_6  and  N_9
REMARK    7  A    between atoms: N_9  and  C_10
REMARK    8  A    between atoms: C_10  and  N_12
REMARK    9  A    between atoms: N_12  and  C_13
REMARK   10  A    between atoms: C_13  and  C_14
REMARK   11  A    between atoms: C_17  and  C_18
REMARK   12  A    between atoms: C_18  and  C_19
REMARK   13  A    between atoms: C_18  and  C_20
REMARK   14  A    between atoms: C_18  and  C_21
REMARK   15  A    between atoms: C_26  and  N_27
REMARK   16  A    between atoms: N_27  and  S_28
REMARK   17  A    between atoms: S_28  and  C_29
REMARK                            x       y       z     vdW  Elec       q    Type
REMARK                         _______ _______ _______ _____ _____    ______ ____
ROOT
ATOM      1  C   UNL     1       0.753   8.968  21.134  0.00  0.00    +0.000 C 
ATOM      2  C   UNL     1      -0.577   8.347  21.599  0.00  0.00    +0.000 C 
ATOM      3  C   UNL     1       1.633   9.259  22.368  0.00  0.00    +0.000 C 
ENDROOT
BRANCH   1   6
ATOM      4  C   UNL     1       2.290   5.627  19.881  0.00  0.00    +0.000 A 
ATOM      5  C   UNL     1       1.756   6.637  20.709  0.00  0.00    +0.000 A 
ATOM      6  C   UNL     1       1.598   7.972  20.290  0.00  0.00    +0.000 A 
ATOM      7  C   UNL     1       2.042   8.284  18.998  0.00  0.00    +0.000 A 
ATOM      8  C   UNL     1       2.619   7.306  18.176  0.00  0.00    +0.000 A 
ATOM      9  C   UNL     1       2.754   5.981  18.607  0.00  0.00    +0.000 A 
BRANCH   4  11
ATOM     10  C   UNL     1       0.930   3.645  20.166  0.00  0.00    +0.000 C 
ATOM     11  O   UNL     1       2.097   4.395  20.434  0.00  0.00    +0.000 OA
ENDBRANCH   4  11
BRANCH   9  12
ATOM     12  N   UNL     1       3.177   5.049  17.610  0.00  0.00    +0.000 N 
ATOM     13  H   UNL     1       2.899   5.227  16.645  0.00  0.00    +0.000 HD
BRANCH  12  14
ATOM     14  S   UNL     1       4.508   4.056  17.790  0.00  0.00    +0.000 S 
ATOM     15  C   UNL     1       5.329   4.062  16.205  0.00  0.00    +0.000 C 
ATOM     16  O   UNL     1       5.415   4.641  18.753  0.00  0.00    +0.000 OA
ATOM     17  O   UNL     1       3.976   2.724  17.985  0.00  0.00    +0.000 OA
ENDBRANCH  12  14
ENDBRANCH   9  12
ENDBRANCH   1   6
BRANCH   1  18
ATOM     18  N   UNL     1       0.429  10.158  20.292  0.00  0.00    +0.000 N 
ATOM     19  H   UNL     1       0.083   9.915  19.376  0.00  0.00    +0.000 HD
BRANCH  18  20
ATOM     20  C   UNL     1       0.443  11.515  20.561  0.00  0.00    +0.000 C 
ATOM     21  S   UNL     1       1.430  12.666  19.864  0.00  0.00    +0.000 S 
BRANCH  20  22
ATOM     22  N   UNL     1      -0.559  11.823  21.469  0.00  0.00    +0.000 N 
ATOM     23  H   UNL     1      -0.989  11.059  21.964  0.00  0.00    +0.000 HD
BRANCH  22  24
ATOM     24  C   UNL     1      -1.345  13.054  21.457  0.00  0.00    +0.000 C 
BRANCH  24  25
ATOM     25  C   UNL     1      -2.754  12.858  20.969  0.00  0.00    +0.000 A 
ATOM     26  C   UNL     1      -2.993  12.345  19.692  0.00  0.00    +0.000 A 
ATOM     27  C   UNL     1      -4.295  12.107  19.243  0.00  0.00    +0.000 A 
ATOM     28  C   UNL     1      -5.408  12.373  20.053  0.00  0.00    +0.000 A 
ATOM     29  C   UNL     1      -5.156  12.902  21.334  0.00  0.00    +0.000 A 
ATOM     30  C   UNL     1      -3.852  13.144  21.784  0.00  0.00    +0.000 A 
BRANCH  28  31
ATOM     31  C   UNL     1      -6.847  12.090  19.589  0.00  0.00    +0.000 C 
ATOM     32  C   UNL     1      -6.930  11.565  18.136  0.00  0.00    +0.000 C 
ATOM     33  C   UNL     1      -7.487  11.021  20.499  0.00  0.00    +0.000 C 
ATOM     34  C   UNL     1      -7.686  13.383  19.658  0.00  0.00    +0.000 C 
ENDBRANCH  28  31
ENDBRANCH  24  25
ENDBRANCH  22  24
ENDBRANCH  20  22
ENDBRANCH  18  20
ENDBRANCH   1  18
TORSDOF 10
ENDMDL
MODEL 9
REMARK VINA RESULT:      -6.9      1.714      2.134
REMARK  Name = 
REMARK  17 active torsions:
REMARK  status: ('A' for Active; 'I' for Inactive)
REMARK    1  A    between atoms: C_1  and  O_2
REMARK    2  A    between atoms: O_2  and  C_3
REMARK    3  A    between atoms: C_5  and  C_6
REMARK    4  A    between atoms: C_6  and  C_7
REMARK    5  A    between atoms: C_6  and  C_8
REMARK    6  A    between atoms: C_6  and  N_9
REMARK    7  A    between atoms: N_9  and  C_10
REMARK    8  A    between atoms: C_10  and  N_12
REMARK    9  A    between atoms: N_12  and  C_13
REMARK   10  A    between atoms: C_13  and  C_14
REMARK   11  A    between atoms: C_17  and  C_18
REMARK   12  A    between atoms: C_18  and  C_19
REMARK   13  A    between atoms: C_18  and  C_20
REMARK   14  A    between atoms: C_18  and  C_21
REMARK   15  A    between atoms: C_26  and  N_27
REMARK   16  A    between atoms: N_27  and  S_28
REMARK   17  A    between atoms: S_28  and  C_29
REMARK                            x       y       z     vdW  Elec       q    Type
REMARK                         _______ _______ _______ _____ _____    ______ ____
ROOT
ATOM      1  C   UNL     1       2.068   4.799  20.458  0.00  0.00    +0.000 C 
ATOM      2  C   UNL     1       0.614   4.506  20.046  0.00  0.00    +0.000 C 
ATOM      3  C   UNL     1       2.555   3.693  21.417  0.00  0.00    +0.000 C 
ENDROOT
BRANCH   1   6
ATOM      4  C   UNL     1       5.387   4.565  18.453  0.00  0.00    +0.000 A 
ATOM      5  C   UNL     1       4.431   4.873  19.445  0.00  0.00    +0.000 A 
ATOM      6  C   UNL     1       3.045   4.715  19.252  0.00  0.00    +0.000 A 
ATOM      7  C   UNL     1       2.631   4.268  17.990  0.00  0.00    +0.000 A 
ATOM      8  C   UNL     1       3.562   4.002  16.976  0.00  0.00    +0.000 A 
ATOM      9  C   UNL     1       4.937   4.153  17.193  0.00  0.00    +0.000 A 
BRANCH   4  11
ATOM     10  C   UNL     1       7.520   5.660  18.789  0.00  0.00    +0.000 C 
ATOM     11  O   UNL     1       6.647   4.566  18.979  0.00  0.00    +0.000 OA
ENDBRANCH   4  11
BRANCH   9  12
ATOM     12  N   UNL     1       5.781   3.666  16.148  0.00  0.00    +0.000 N 
ATOM     13  H   UNL     1       5.711   2.679  15.900  0.00  0.00    +0.000 HD
BRANCH  12  14
ATOM     14  S   UNL     1       6.428   4.648  14.961  0.00  0.00    +0.000 S 
ATOM     15  C   UNL     1       6.206   3.759  13.430  0.00  0.00    +0.000 C 
ATOM     16  O   UNL     1       5.654   5.867  14.874  0.00  0.00    +0.000 OA
ATOM     17  O   UNL     1       7.851   4.690  15.224  0.00  0.00    +0.000 OA
ENDBRANCH  12  14
ENDBRANCH   9  12
ENDBRANCH   1   6
BRANCH   1  18
ATOM     18  N   UNL     1       2.110   6.184  21.016  0.00  0.00    +0.000 N 
ATOM     19  H   UNL     1       2.816   6.305  21.727  0.00  0.00    +0.000 HD
BRANCH  18  20
ATOM     20  C   UNL     1       1.421   7.338  20.686  0.00  0.00    +0.000 C 
ATOM     21  S   UNL     1       0.153   8.022  21.526  0.00  0.00    +0.000 S 
BRANCH  20  22
ATOM     22  N   UNL     1       1.988   7.917  19.562  0.00  0.00    +0.000 N 
ATOM     23  H   UNL     1       2.967   8.153  19.603  0.00  0.00    +0.000 HD
BRANCH  22  24
ATOM     24  C   UNL     1       1.242   8.614  18.517  0.00  0.00    +0.000 C 
BRANCH  24  25
ATOM     25  C   UNL     1       0.749   9.971  18.939  0.00  0.00    +0.000 A 
ATOM     26  C   UNL     1      -0.588  10.326  18.748  0.00  0.00    +0.000 A 
ATOM     27  C   UNL     1      -1.075  11.562  19.182  0.00  0.00    +0.000 A 
ATOM     28  C   UNL     1      -0.243  12.491  19.824  0.00  0.00    +0.000 A 
ATOM     29  C   UNL     1       1.107  12.128  19.999  0.00  0.00    +0.000 A 
ATOM     30  C   UNL     1       1.596  10.890  19.562  0.00  0.00    +0.000 A 
BRANCH  28  31
ATOM     31  C   UNL     1      -0.765  13.844  20.335  0.00  0.00    +0.000 C 
ATOM     32  C   UNL     1      -0.548  15.003  19.335  0.00  0.00    +0.000 C 
ATOM     33  C   UNL     1      -2.282  13.749  20.603  0.00  0.00    +0.000 C 
ATOM     34  C   UNL     1      -0.043  14.226  21.644  0.00  0.00    +0.000 C 
ENDBRANCH  28  31
ENDBRANCH  24  25
ENDBRANCH  22  24
ENDBRANCH  20  22
ENDBRANCH  18  20
ENDBRANCH   1  18
TORSDOF 10
ENDMDL
