MODEL 1
REMARK VINA RESULT:      -8.6      0.000      0.000
REMARK  Name = 
REMARK  9 active torsions:
REMARK  status: ('A' for Active; 'I' for Inactive)
REMARK    1  A    between atoms: C_1  and  O_2
REMARK    2  A    between atoms: O_2  and  C_3
REMARK    3  A    between atoms: C_9  and  O_10
REMARK    4  A    between atoms: O_10  and  C_11
REMARK    5  A    between atoms: C_14  and  N_15
REMARK    6  A    between atoms: N_18  and  C_19
REMARK    7  A    between atoms: C_22  and  C_23
REMARK    8  A    between atoms: C_33  and  O_34
REMARK    9  A    between atoms: O_34  and  C_35
REMARK                            x       y       z     vdW  Elec       q    Type
REMARK                         _______ _______ _______ _____ _____    ______ ____
ROOT
ATOM      1  C   UNL     1       2.374   6.933  19.952  0.00  0.00    +0.000 A 
ATOM      2  C   UNL     1       2.443   7.488  18.682  0.00  0.00    +0.000 A 
ATOM      3  C   UNL     1       1.802   8.709  18.402  0.00  0.00    +0.000 A 
ATOM      4  C   UNL     1       1.065   9.398  19.372  0.00  0.00    +0.000 A 
ATOM      5  C   UNL     1       1.086   8.885  20.677  0.00  0.00    +0.000 A 
ATOM      6  C   UNL     1       1.737   7.665  20.959  0.00  0.00    +0.000 A 
ENDROOT
BRANCH   4   7
ATOM      7  N   UNL     1       0.307  10.560  19.037  0.00  0.00    +0.000 N 
ATOM      8  C   UNL     1      -1.075  10.674  19.151  0.00  0.00    +0.000 C 
ATOM      9  O   UNL     1      -1.844   9.758  19.494  0.00  0.00    +0.000 OA
ATOM     10  N   UNL     1      -1.593  11.910  18.824  0.00  0.00    +0.000 N 
ATOM     11  H   UNL     1       0.827  11.375  18.723  0.00  0.00    +0.000 HD
ATOM     12  H   UNL     1      -1.087  12.408  18.111  0.00  0.00    +0.000 HD
BRANCH  10  13
ATOM     13  C   UNL     1      -2.999  12.107  18.851  0.00  0.00    +0.000 A 
ATOM     14  C   UNL     1      -3.803  11.754  17.756  0.00  0.00    +0.000 A 
ATOM     15  C   UNL     1      -5.201  11.880  17.828  0.00  0.00    +0.000 A 
ATOM     16  C   UNL     1      -5.817  12.396  18.978  0.00  0.00    +0.000 A 
ATOM     17  C   UNL     1      -5.004  12.796  20.049  0.00  0.00    +0.000 A 
ATOM     18  C   UNL     1      -3.611  12.643  19.986  0.00  0.00    +0.000 A 
BRANCH  16  19
ATOM     19  C   UNL     1      -7.323  12.489  19.081  0.00  0.00    +0.000 C 
ATOM     20  F   UNL     1      -7.751  13.518  19.865  0.00  0.00    +0.000 F 
ATOM     21  F   UNL     1      -7.915  12.681  17.867  0.00  0.00    +0.000 F 
ATOM     22  F   UNL     1      -7.894  11.365  19.595  0.00  0.00    +0.000 F 
ENDBRANCH  16  19
ENDBRANCH  10  13
ENDBRANCH   4   7
BRANCH   1  23
ATOM     23  O   UNL     1       2.813   5.614  20.103  0.00  0.00    +0.000 OA
BRANCH  23  30
ATOM     24  C   UNL     1       6.505   4.723  16.597  0.00  0.00    +0.000 A 
ATOM     25  C   UNL     1       5.347   3.957  16.355  0.00  0.00    +0.000 A 
ATOM     26  C   UNL     1       4.205   4.017  17.131  0.00  0.00    +0.000 A 
ATOM     27  N   UNL     1       3.145   3.308  16.730  0.00  0.00    +0.000 NA
ATOM     28  C   UNL     1       2.052   3.380  17.494  0.00  0.00    +0.000 A 
ATOM     29  N   UNL     1       1.917   4.109  18.595  0.00  0.00    +0.000 NA
ATOM     30  C   UNL     1       2.980   4.839  18.974  0.00  0.00    +0.000 A 
ATOM     31  C   UNL     1       4.214   4.811  18.273  0.00  0.00    +0.000 A 
ATOM     32  C   UNL     1       5.411   5.504  18.592  0.00  0.00    +0.000 A 
ATOM     33  C   UNL     1       6.533   5.530  17.737  0.00  0.00    +0.000 A 
BRANCH  24  35
ATOM     34  C   UNL     1       7.142   4.804  14.347  0.00  0.00    +0.000 C 
ATOM     35  O   UNL     1       7.556   4.664  15.719  0.00  0.00    +0.000 OA
ENDBRANCH  24  35
BRANCH  33  36
ATOM     36  O   UNL     1       7.436   6.443  18.184  0.00  0.00    +0.000 OA
ATOM     37  C   UNL     1       7.632   7.704  17.579  0.00  0.00    +0.000 C 
ENDBRANCH  33  36
ENDBRANCH  23  30
ENDBRANCH   1  23
TORSDOF 7
ENDMDL
MODEL 2
REMARK VINA RESULT:      -8.5      6.661     10.301
REMARK  Name = 
REMARK  9 active torsions:
REMARK  status: ('A' for Active; 'I' for Inactive)
REMARK    1  A    between atoms: C_1  and  O_2
REMARK    2  A    between atoms: O_2  and  C_3
REMARK    3  A    between atoms: C_9  and  O_10
REMARK    4  A    between atoms: O_10  and  C_11
REMARK    5  A    between atoms: C_14  and  N_15
REMARK    6  A    between atoms: N_18  and  C_19
REMARK    7  A    between atoms: C_22  and  C_23
REMARK    8  A    between atoms: C_33  and  O_34
REMARK    9  A    between atoms: O_34  and  C_35
REMARK                            x       y       z     vdW  Elec       q    Type
REMARK                         _______ _______ _______ _____ _____    ______ ____
ROOT
ATOM      1  C   UNL     1       5.859   5.391  17.747  0.00  0.00    +0.000 A 
ATOM      2  C   UNL     1       5.972   6.579  17.040  0.00  0.00    +0.000 A 
ATOM      3  C   UNL     1       6.998   7.493  17.343  0.00  0.00    +0.000 A 
ATOM      4  C   UNL     1       7.924   7.255  18.365  0.00  0.00    +0.000 A 
ATOM      5  C   UNL     1       7.865   6.009  19.006  0.00  0.00    +0.000 A 
ATOM      6  C   UNL     1       6.841   5.088  18.694  0.00  0.00    +0.000 A 
ENDROOT
BRANCH   4   7
ATOM      7  N   UNL     1       8.870   8.251  18.753  0.00  0.00    +0.000 N 
ATOM      8  C   UNL     1       8.785   9.602  18.436  0.00  0.00    +0.000 C 
ATOM      9  O   UNL     1       7.911  10.116  17.715  0.00  0.00    +0.000 OA
ATOM     10  N   UNL     1       9.783  10.395  18.963  0.00  0.00    +0.000 N 
ATOM     11  H   UNL     1       9.647   7.946  19.334  0.00  0.00    +0.000 HD
ATOM     12  H   UNL     1      10.674   9.942  19.071  0.00  0.00    +0.000 HD
BRANCH  10  13
ATOM     13  C   UNL     1       9.816  11.779  18.647  0.00  0.00    +0.000 A 
ATOM     14  C   UNL     1       9.044  12.707  19.363  0.00  0.00    +0.000 A 
ATOM     15  C   UNL     1       9.147  14.082  19.092  0.00  0.00    +0.000 A 
ATOM     16  C   UNL     1       9.994  14.552  18.077  0.00  0.00    +0.000 A 
ATOM     17  C   UNL     1      10.725  13.616  17.330  0.00  0.00    +0.000 A 
ATOM     18  C   UNL     1      10.640  12.245  17.621  0.00  0.00    +0.000 A 
BRANCH  16  19
ATOM     19  C   UNL     1      10.148  16.033  17.812  0.00  0.00    +0.000 C 
ATOM     20  F   UNL     1       9.980  16.371  16.503  0.00  0.00    +0.000 F 
ATOM     21  F   UNL     1       9.239  16.780  18.503  0.00  0.00    +0.000 F 
ATOM     22  F   UNL     1      11.369  16.516  18.170  0.00  0.00    +0.000 F 
ENDBRANCH  16  19
ENDBRANCH  10  13
ENDBRANCH   4   7
BRANCH   1  23
ATOM     23  O   UNL     1       4.687   4.647  17.573  0.00  0.00    +0.000 OA
BRANCH  23  30
ATOM     24  C   UNL     1       1.378   7.547  20.286  0.00  0.00    +0.000 A 
ATOM     25  C   UNL     1       1.426   6.218  20.753  0.00  0.00    +0.000 A 
ATOM     26  C   UNL     1       2.241   5.239  20.217  0.00  0.00    +0.000 A 
ATOM     27  N   UNL     1       2.259   4.046  20.821  0.00  0.00    +0.000 NA
ATOM     28  C   UNL     1       3.053   3.115  20.286  0.00  0.00    +0.000 A 
ATOM     29  N   UNL     1       3.843   3.276  19.231  0.00  0.00    +0.000 NA
ATOM     30  C   UNL     1       3.838   4.488  18.649  0.00  0.00    +0.000 A 
ATOM     31  C   UNL     1       3.002   5.545  19.093  0.00  0.00    +0.000 A 
ATOM     32  C   UNL     1       2.882   6.849  18.543  0.00  0.00    +0.000 A 
ATOM     33  C   UNL     1       2.138   7.875  19.161  0.00  0.00    +0.000 A 
BRANCH  24  35
ATOM     34  C   UNL     1       1.239   8.986  22.125  0.00  0.00    +0.000 C 
ATOM     35  O   UNL     1       0.605   8.470  20.940  0.00  0.00    +0.000 OA
ENDBRANCH  24  35
BRANCH  33  36
ATOM     36  O   UNL     1       2.382   9.061  18.542  0.00  0.00    +0.000 OA
ATOM     37  C   UNL     1       1.390  10.039  18.316  0.00  0.00    +0.000 C 
ENDBRANCH  33  36
ENDBRANCH  23  30
ENDBRANCH   1  23
TORSDOF 7
ENDMDL
MODEL 3
REMARK VINA RESULT:      -8.5      0.829      1.167
REMARK  Name = 
REMARK  9 active torsions:
REMARK  status: ('A' for Active; 'I' for Inactive)
REMARK    1  A    between atoms: C_1  and  O_2
REMARK    2  A    between atoms: O_2  and  C_3
REMARK    3  A    between atoms: C_9  and  O_10
REMARK    4  A    between atoms: O_10  and  C_11
REMARK    5  A    between atoms: C_14  and  N_15
REMARK    6  A    between atoms: N_18  and  C_19
REMARK    7  A    between atoms: C_22  and  C_23
REMARK    8  A    between atoms: C_33  and  O_34
REMARK    9  A    between atoms: O_34  and  C_35
REMARK                            x       y       z     vdW  Elec       q    Type
REMARK                         _______ _______ _______ _____ _____    ______ ____
ROOT
ATOM      1  C   UNL     1       2.655   6.914  19.512  0.00  0.00    +0.000 A 
ATOM      2  C   UNL     1       1.892   7.215  20.630  0.00  0.00    +0.000 A 
ATOM      3  C   UNL     1       1.074   8.360  20.648  0.00  0.00    +0.000 A 
ATOM      4  C   UNL     1       1.008   9.239  19.561  0.00  0.00    +0.000 A 
ATOM      5  C   UNL     1       1.701   8.874  18.398  0.00  0.00    +0.000 A 
ATOM      6  C   UNL     1       2.513   7.720  18.378  0.00  0.00    +0.000 A 
ENDROOT
BRANCH   4   7
ATOM      7  N   UNL     1       0.284  10.467  19.646  0.00  0.00    +0.000 N 
ATOM      8  C   UNL     1      -1.063  10.624  19.341  0.00  0.00    +0.000 C 
ATOM      9  O   UNL     1      -1.805   9.734  18.889  0.00  0.00    +0.000 OA
ATOM     10  N   UNL     1      -1.570  11.890  19.548  0.00  0.00    +0.000 N 
ATOM     11  H   UNL     1       0.793  11.279  19.988  0.00  0.00    +0.000 HD
ATOM     12  H   UNL     1      -0.915  12.639  19.407  0.00  0.00    +0.000 HD
BRANCH  10  13
ATOM     13  C   UNL     1      -2.922  12.165  19.210  0.00  0.00    +0.000 A 
ATOM     14  C   UNL     1      -3.429  11.857  17.938  0.00  0.00    +0.000 A 
ATOM     15  C   UNL     1      -4.788  12.060  17.644  0.00  0.00    +0.000 A 
ATOM     16  C   UNL     1      -5.656  12.610  18.600  0.00  0.00    +0.000 A 
ATOM     17  C   UNL     1      -5.131  12.965  19.851  0.00  0.00    +0.000 A 
ATOM     18  C   UNL     1      -3.780  12.735  20.152  0.00  0.00    +0.000 A 
BRANCH  16  19
ATOM     19  C   UNL     1      -7.128  12.786  18.307  0.00  0.00    +0.000 C 
ATOM     20  F   UNL     1      -7.619  13.996  18.697  0.00  0.00    +0.000 F 
ATOM     21  F   UNL     1      -7.408  12.689  16.975  0.00  0.00    +0.000 F 
ATOM     22  F   UNL     1      -7.910  11.852  18.915  0.00  0.00    +0.000 F 
ENDBRANCH  16  19
ENDBRANCH  10  13
ENDBRANCH   4   7
BRANCH   1  23
ATOM     23  O   UNL     1       3.625   5.915  19.644  0.00  0.00    +0.000 OA
BRANCH  23  30
ATOM     24  C   UNL     1       6.880   5.383  15.664  0.00  0.00    +0.000 A 
ATOM     25  C   UNL     1       5.931   4.343  15.716  0.00  0.00    +0.000 A 
ATOM     26  C   UNL     1       4.934   4.253  16.669  0.00  0.00    +0.000 A 
ATOM     27  N   UNL     1       4.040   3.267  16.542  0.00  0.00    +0.000 NA
ATOM     28  C   UNL     1       3.086   3.198  17.474  0.00  0.00    +0.000 A 
ATOM     29  N   UNL     1       2.931   4.034  18.494  0.00  0.00    +0.000 NA
ATOM     30  C   UNL     1       3.818   5.038  18.596  0.00  0.00    +0.000 A 
ATOM     31  C   UNL     1       4.905   5.190  17.697  0.00  0.00    +0.000 A 
ATOM     32  C   UNL     1       5.922   6.182  17.721  0.00  0.00    +0.000 A 
ATOM     33  C   UNL     1       6.866   6.336  16.685  0.00  0.00    +0.000 A 
BRANCH  24  35
ATOM     34  C   UNL     1       7.341   4.681  13.481  0.00  0.00    +0.000 C 
ATOM     35  O   UNL     1       7.774   5.436  14.627  0.00  0.00    +0.000 OA
ENDBRANCH  24  35
BRANCH  33  36
ATOM     36  O   UNL     1       7.564   7.490  16.862  0.00  0.00    +0.000 OA
ATOM     37  C   UNL     1       8.071   7.909  18.112  0.00  0.00    +0.000 C 
ENDBRANCH  33  36
ENDBRANCH  23  30
ENDBRANCH   1  23
TORSDOF 7
ENDMDL
MODEL 4
REMARK VINA RESULT:      -8.4      3.502      4.236
REMARK  Name = 
REMARK  9 active torsions:
REMARK  status: ('A' for Active; 'I' for Inactive)
REMARK    1  A    between atoms: C_1  and  O_2
REMARK    2  A    between atoms: O_2  and  C_3
REMARK    3  A    between atoms: C_9  and  O_10
REMARK    4  A    between atoms: O_10  and  C_11
REMARK    5  A    between atoms: C_14  and  N_15
REMARK    6  A    between atoms: N_18  and  C_19
REMARK    7  A    between atoms: C_22  and  C_23
REMARK    8  A    between atoms: C_33  and  O_34
REMARK    9  A    between atoms: O_34  and  C_35
REMARK                            x       y       z     vdW  Elec       q    Type
REMARK                         _______ _______ _______ _____ _____    ______ ____
ROOT
ATOM      1  C   UNL     1       2.390   7.344  19.548  0.00  0.00    +0.000 A 
ATOM      2  C   UNL     1       1.636   7.634  20.677  0.00  0.00    +0.000 A 
ATOM      3  C   UNL     1       0.799   8.765  20.703  0.00  0.00    +0.000 A 
ATOM      4  C   UNL     1       0.704   9.641  19.616  0.00  0.00    +0.000 A 
ATOM      5  C   UNL     1       1.388   9.285  18.444  0.00  0.00    +0.000 A 
ATOM      6  C   UNL     1       2.220   8.145  18.416  0.00  0.00    +0.000 A 
ENDROOT
BRANCH   4   7
ATOM      7  N   UNL     1      -0.040  10.855  19.708  0.00  0.00    +0.000 N 
ATOM      8  C   UNL     1      -0.216  11.600  20.869  0.00  0.00    +0.000 C 
ATOM      9  O   UNL     1       0.192  11.274  21.998  0.00  0.00    +0.000 OA
ATOM     10  N   UNL     1      -0.927  12.773  20.715  0.00  0.00    +0.000 N 
ATOM     11  H   UNL     1      -0.442  11.216  18.845  0.00  0.00    +0.000 HD
ATOM     12  H   UNL     1      -1.633  12.751  19.999  0.00  0.00    +0.000 HD
BRANCH  10  13
ATOM     13  C   UNL     1      -1.210  13.572  21.853  0.00  0.00    +0.000 A 
ATOM     14  C   UNL     1      -2.358  13.349  22.630  0.00  0.00    +0.000 A 
ATOM     15  C   UNL     1      -2.584  14.095  23.799  0.00  0.00    +0.000 A 
ATOM     16  C   UNL     1      -1.689  15.101  24.194  0.00  0.00    +0.000 A 
ATOM     17  C   UNL     1      -0.571  15.355  23.385  0.00  0.00    +0.000 A 
ATOM     18  C   UNL     1      -0.333  14.590  22.233  0.00  0.00    +0.000 A 
BRANCH  16  19
ATOM     19  C   UNL     1      -1.901  15.874  25.476  0.00  0.00    +0.000 C 
ATOM     20  F   UNL     1      -1.353  15.273  26.569  0.00  0.00    +0.000 F 
ATOM     21  F   UNL     1      -1.348  17.121  25.427  0.00  0.00    +0.000 F 
ATOM     22  F   UNL     1      -3.215  16.066  25.774  0.00  0.00    +0.000 F 
ENDBRANCH  16  19
ENDBRANCH  10  13
ENDBRANCH   4   7
BRANCH   1  23
ATOM     23  O   UNL     1       3.379   6.362  19.670  0.00  0.00    +0.000 OA
BRANCH  23  30
ATOM     24  C   UNL     1       6.364   4.621  15.826  0.00  0.00    +0.000 A 
ATOM     25  C   UNL     1       5.245   3.794  16.045  0.00  0.00    +0.000 A 
ATOM     26  C   UNL     1       4.277   4.040  17.001  0.00  0.00    +0.000 A 
ATOM     27  N   UNL     1       3.217   3.226  17.034  0.00  0.00    +0.000 NA
ATOM     28  C   UNL     1       2.294   3.481  17.965  0.00  0.00    +0.000 A 
ATOM     29  N   UNL     1       2.322   4.482  18.837  0.00  0.00    +0.000 NA
ATOM     30  C   UNL     1       3.379   5.310  18.776  0.00  0.00    +0.000 A 
ATOM     31  C   UNL     1       4.449   5.117  17.864  0.00  0.00    +0.000 A 
ATOM     32  C   UNL     1       5.628   5.897  17.728  0.00  0.00    +0.000 A 
ATOM     33  C   UNL     1       6.553   5.710  16.681  0.00  0.00    +0.000 A 
BRANCH  24  35
ATOM     34  C   UNL     1       6.603   4.488  13.503  0.00  0.00    +0.000 C 
ATOM     35  O   UNL     1       7.222   4.345  14.794  0.00  0.00    +0.000 OA
ENDBRANCH  24  35
BRANCH  33  36
ATOM     36  O   UNL     1       7.453   6.730  16.669  0.00  0.00    +0.000 OA
ATOM     37  C   UNL     1       7.767   7.503  17.809  0.00  0.00    +0.000 C 
ENDBRANCH  33  36
ENDBRANCH  23  30
ENDBRANCH   1  23
TORSDOF 7
ENDMDL
MODEL 5
REMARK VINA RESULT:      -8.3      2.939      3.728
REMARK  Name = 
REMARK  9 active torsions:
REMARK  status: ('A' for Active; 'I' for Inactive)
REMARK    1  A    between atoms: C_1  and  O_2
REMARK    2  A    between atoms: O_2  and  C_3
REMARK    3  A    between atoms: C_9  and  O_10
REMARK    4  A    between atoms: O_10  and  C_11
REMARK    5  A    between atoms: C_14  and  N_15
REMARK    6  A    between atoms: N_18  and  C_19
REMARK    7  A    between atoms: C_22  and  C_23
REMARK    8  A    between atoms: C_33  and  O_34
REMARK    9  A    between atoms: O_34  and  C_35
REMARK                            x       y       z     vdW  Elec       q    Type
REMARK                         _______ _______ _______ _____ _____    ______ ____
ROOT
ATOM      1  C   UNL     1       2.422   7.328  19.428  0.00  0.00    +0.000 A 
ATOM      2  C   UNL     1       1.694   7.689  20.553  0.00  0.00    +0.000 A 
ATOM      3  C   UNL     1       0.898   8.849  20.544  0.00  0.00    +0.000 A 
ATOM      4  C   UNL     1       0.818   9.684  19.425  0.00  0.00    +0.000 A 
ATOM      5  C   UNL     1       1.474   9.259  18.259  0.00  0.00    +0.000 A 
ATOM      6  C   UNL     1       2.265   8.090  18.267  0.00  0.00    +0.000 A 
ENDROOT
BRANCH   4   7
ATOM      7  N   UNL     1       0.120  10.928  19.477  0.00  0.00    +0.000 N 
ATOM      8  C   UNL     1      -0.371  11.522  20.634  0.00  0.00    +0.000 C 
ATOM      9  O   UNL     1      -0.328  11.020  21.772  0.00  0.00    +0.000 OA
ATOM     10  N   UNL     1      -0.967  12.754  20.457  0.00  0.00    +0.000 N 
ATOM     11  H   UNL     1       0.003  11.428  18.599  0.00  0.00    +0.000 HD
ATOM     12  H   UNL     1      -1.428  12.880  19.573  0.00  0.00    +0.000 HD
BRANCH  10  13
ATOM     13  C   UNL     1      -1.551  13.413  21.571  0.00  0.00    +0.000 A 
ATOM     14  C   UNL     1      -0.756  13.973  22.583  0.00  0.00    +0.000 A 
ATOM     15  C   UNL     1      -1.345  14.692  23.637  0.00  0.00    +0.000 A 
ATOM     16  C   UNL     1      -2.738  14.833  23.720  0.00  0.00    +0.000 A 
ATOM     17  C   UNL     1      -3.530  14.227  22.734  0.00  0.00    +0.000 A 
ATOM     18  C   UNL     1      -2.939  13.532  21.668  0.00  0.00    +0.000 A 
BRANCH  16  19
ATOM     19  C   UNL     1      -3.376  15.646  24.824  0.00  0.00    +0.000 C 
ATOM     20  F   UNL     1      -4.738  15.641  24.786  0.00  0.00    +0.000 F 
ATOM     21  F   UNL     1      -3.042  15.188  26.066  0.00  0.00    +0.000 F 
ATOM     22  F   UNL     1      -3.006  16.957  24.805  0.00  0.00    +0.000 F 
ENDBRANCH  16  19
ENDBRANCH  10  13
ENDBRANCH   4   7
BRANCH   1  23
ATOM     23  O   UNL     1       3.377   6.317  19.577  0.00  0.00    +0.000 OA
BRANCH  23  30
ATOM     24  C   UNL     1       6.478   4.827  15.719  0.00  0.00    +0.000 A 
ATOM     25  C   UNL     1       5.377   3.962  15.880  0.00  0.00    +0.000 A 
ATOM     26  C   UNL     1       4.385   4.140  16.826  0.00  0.00    +0.000 A 
ATOM     27  N   UNL     1       3.346   3.299  16.802  0.00  0.00    +0.000 NA
ATOM     28  C   UNL     1       2.400   3.489  17.725  0.00  0.00    +0.000 A 
ATOM     29  N   UNL     1       2.386   4.450  18.641  0.00  0.00    +0.000 NA
ATOM     30  C   UNL     1       3.422   5.307  18.638  0.00  0.00    +0.000 A 
ATOM     31  C   UNL     1       4.513   5.182  17.739  0.00  0.00    +0.000 A 
ATOM     32  C   UNL     1       5.673   5.997  17.661  0.00  0.00    +0.000 A 
ATOM     33  C   UNL     1       6.622   5.880  16.625  0.00  0.00    +0.000 A 
BRANCH  24  35
ATOM     34  C   UNL     1       6.710   4.253  13.464  0.00  0.00    +0.000 C 
ATOM     35  O   UNL     1       7.362   4.619  14.693  0.00  0.00    +0.000 OA
ENDBRANCH  24  35
BRANCH  33  36
ATOM     36  O   UNL     1       7.495   6.922  16.677  0.00  0.00    +0.000 OA
ATOM     37  C   UNL     1       7.698   7.711  17.831  0.00  0.00    +0.000 C 
ENDBRANCH  33  36
ENDBRANCH  23  30
ENDBRANCH   1  23
TORSDOF 7
ENDMDL
MODEL 6
REMARK VINA RESULT:      -8.2      0.700      1.261
REMARK  Name = 
REMARK  9 active torsions:
REMARK  status: ('A' for Active; 'I' for Inactive)
REMARK    1  A    between atoms: C_1  and  O_2
REMARK    2  A    between atoms: O_2  and  C_3
REMARK    3  A    between atoms: C_9  and  O_10
REMARK    4  A    between atoms: O_10  and  C_11
REMARK    5  A    between atoms: C_14  and  N_15
REMARK    6  A    between atoms: N_18  and  C_19
REMARK    7  A    between atoms: C_22  and  C_23
REMARK    8  A    between atoms: C_33  and  O_34
REMARK    9  A    between atoms: O_34  and  C_35
REMARK                            x       y       z     vdW  Elec       q    Type
REMARK                         _______ _______ _______ _____ _____    ______ ____
ROOT
ATOM      1  C   UNL     1       2.676   6.977  19.467  0.00  0.00    +0.000 A 
ATOM      2  C   UNL     1       2.571   7.318  18.126  0.00  0.00    +0.000 A 
ATOM      3  C   UNL     1       1.842   8.457  17.737  0.00  0.00    +0.000 A 
ATOM      4  C   UNL     1       1.190   9.273  18.668  0.00  0.00    +0.000 A 
ATOM      5  C   UNL     1       1.386   8.980  20.026  0.00  0.00    +0.000 A 
ATOM      6  C   UNL     1       2.125   7.843  20.416  0.00  0.00    +0.000 A 
ENDROOT
BRANCH   4   7
ATOM      7  N   UNL     1       0.341  10.341  18.249  0.00  0.00    +0.000 N 
ATOM      8  C   UNL     1      -1.006  10.468  18.571  0.00  0.00    +0.000 C 
ATOM      9  O   UNL     1      -1.671   9.633  19.210  0.00  0.00    +0.000 OA
ATOM     10  N   UNL     1      -1.619  11.612  18.103  0.00  0.00    +0.000 N 
ATOM     11  H   UNL     1       0.771  11.082  17.699  0.00  0.00    +0.000 HD
ATOM     12  H   UNL     1      -1.258  11.962  17.233  0.00  0.00    +0.000 HD
BRANCH  10  13
ATOM     13  C   UNL     1      -3.008  11.802  18.330  0.00  0.00    +0.000 A 
ATOM     14  C   UNL     1      -3.478  12.351  19.533  0.00  0.00    +0.000 A 
ATOM     15  C   UNL     1      -4.848  12.608  19.712  0.00  0.00    +0.000 A 
ATOM     16  C   UNL     1      -5.776  12.287  18.709  0.00  0.00    +0.000 A 
ATOM     17  C   UNL     1      -5.305  11.691  17.530  0.00  0.00    +0.000 A 
ATOM     18  C   UNL     1      -3.934  11.461  17.343  0.00  0.00    +0.000 A 
BRANCH  16  19
ATOM     19  C   UNL     1      -7.245  12.606  18.874  0.00  0.00    +0.000 C 
ATOM     20  F   UNL     1      -7.915  12.712  17.692  0.00  0.00    +0.000 F 
ATOM     21  F   UNL     1      -7.907  11.648  19.586  0.00  0.00    +0.000 F 
ATOM     22  F   UNL     1      -7.467  13.775  19.536  0.00  0.00    +0.000 F 
ENDBRANCH  16  19
ENDBRANCH  10  13
ENDBRANCH   4   7
BRANCH   1  23
ATOM     23  O   UNL     1       3.195   5.714  19.770  0.00  0.00    +0.000 OA
BRANCH  23  30
ATOM     24  C   UNL     1       6.144   4.470  15.712  0.00  0.00    +0.000 A 
ATOM     25  C   UNL     1       5.065   3.579  15.877  0.00  0.00    +0.000 A 
ATOM     26  C   UNL     1       4.114   3.693  16.873  0.00  0.00    +0.000 A 
ATOM     27  N   UNL     1       3.089   2.835  16.853  0.00  0.00    +0.000 NA
ATOM     28  C   UNL     1       2.182   2.962  17.825  0.00  0.00    +0.000 A 
ATOM     29  N   UNL     1       2.193   3.877  18.788  0.00  0.00    +0.000 NA
ATOM     30  C   UNL     1       3.214   4.751  18.781  0.00  0.00    +0.000 A 
ATOM     31  C   UNL     1       4.266   4.690  17.831  0.00  0.00    +0.000 A 
ATOM     32  C   UNL     1       5.408   5.529  17.743  0.00  0.00    +0.000 A 
ATOM     33  C   UNL     1       6.312   5.481  16.662  0.00  0.00    +0.000 A 
BRANCH  24  35
ATOM     34  C   UNL     1       6.290   3.959  13.434  0.00  0.00    +0.000 C 
ATOM     35  O   UNL     1       6.985   4.329  14.639  0.00  0.00    +0.000 OA
ENDBRANCH  24  35
BRANCH  33  36
ATOM     36  O   UNL     1       7.169   6.535  16.727  0.00  0.00    +0.000 OA
ATOM     37  C   UNL     1       7.276   7.382  17.851  0.00  0.00    +0.000 C 
ENDBRANCH  33  36
ENDBRANCH  23  30
ENDBRANCH   1  23
TORSDOF 7
ENDMDL
MODEL 7
REMARK VINA RESULT:      -8.2      2.444      3.167
REMARK  Name = 
REMARK  9 active torsions:
REMARK  status: ('A' for Active; 'I' for Inactive)
REMARK    1  A    between atoms: C_1  and  O_2
REMARK    2  A    between atoms: O_2  and  C_3
REMARK    3  A    between atoms: C_9  and  O_10
REMARK    4  A    between atoms: O_10  and  C_11
REMARK    5  A    between atoms: C_14  and  N_15
REMARK    6  A    between atoms: N_18  and  C_19
REMARK    7  A    between atoms: C_22  and  C_23
REMARK    8  A    between atoms: C_33  and  O_34
REMARK    9  A    between atoms: O_34  and  C_35
REMARK                            x       y       z     vdW  Elec       q    Type
REMARK                         _______ _______ _______ _____ _____    ______ ____
ROOT
ATOM      1  C   UNL     1       2.057   7.887  19.350  0.00  0.00    +0.000 A 
ATOM      2  C   UNL     1       1.328   8.364  20.430  0.00  0.00    +0.000 A 
ATOM      3  C   UNL     1       0.481   9.478  20.281  0.00  0.00    +0.000 A 
ATOM      4  C   UNL     1       0.352  10.152  19.062  0.00  0.00    +0.000 A 
ATOM      5  C   UNL     1       1.011   9.603  17.952  0.00  0.00    +0.000 A 
ATOM      6  C   UNL     1       1.853   8.479  18.101  0.00  0.00    +0.000 A 
ENDROOT
BRANCH   4   7
ATOM      7  N   UNL     1      -0.401  11.360  18.960  0.00  0.00    +0.000 N 
ATOM      8  C   UNL     1      -1.087  11.967  20.008  0.00  0.00    +0.000 C 
ATOM      9  O   UNL     1      -1.194  11.503  21.157  0.00  0.00    +0.000 OA
ATOM     10  N   UNL     1      -1.702  13.161  19.696  0.00  0.00    +0.000 N 
ATOM     11  H   UNL     1      -0.405  11.827  18.056  0.00  0.00    +0.000 HD
ATOM     12  H   UNL     1      -2.029  13.236  18.748  0.00  0.00    +0.000 HD
BRANCH  10  13
ATOM     13  C   UNL     1      -2.476  13.826  20.683  0.00  0.00    +0.000 A 
ATOM     14  C   UNL     1      -3.790  13.422  20.970  0.00  0.00    +0.000 A 
ATOM     15  C   UNL     1      -4.515  14.037  22.004  0.00  0.00    +0.000 A 
ATOM     16  C   UNL     1      -3.958  15.090  22.745  0.00  0.00    +0.000 A 
ATOM     17  C   UNL     1      -2.664  15.524  22.419  0.00  0.00    +0.000 A 
ATOM     18  C   UNL     1      -1.931  14.890  21.404  0.00  0.00    +0.000 A 
BRANCH  16  19
ATOM     19  C   UNL     1      -4.714  15.723  23.891  0.00  0.00    +0.000 C 
ATOM     20  F   UNL     1      -5.943  15.174  24.100  0.00  0.00    +0.000 F 
ATOM     21  F   UNL     1      -4.052  15.605  25.078  0.00  0.00    +0.000 F 
ATOM     22  F   UNL     1      -4.926  17.058  23.720  0.00  0.00    +0.000 F 
ENDBRANCH  16  19
ENDBRANCH  10  13
ENDBRANCH   4   7
BRANCH   1  23
ATOM     23  O   UNL     1       3.058   6.946  19.615  0.00  0.00    +0.000 OA
BRANCH  23  30
ATOM     24  C   UNL     1       6.080   4.774  16.027  0.00  0.00    +0.000 A 
ATOM     25  C   UNL     1       4.983   3.956  16.364  0.00  0.00    +0.000 A 
ATOM     26  C   UNL     1       4.011   4.305  17.282  0.00  0.00    +0.000 A 
ATOM     27  N   UNL     1       2.973   3.477  17.433  0.00  0.00    +0.000 NA
ATOM     28  C   UNL     1       2.046   3.832  18.325  0.00  0.00    +0.000 A 
ATOM     29  N   UNL     1       2.050   4.944  19.053  0.00  0.00    +0.000 NA
ATOM     30  C   UNL     1       3.085   5.783  18.873  0.00  0.00    +0.000 A 
ATOM     31  C   UNL     1       4.157   5.494  17.990  0.00  0.00    +0.000 A 
ATOM     32  C   UNL     1       5.315   6.278  17.742  0.00  0.00    +0.000 A 
ATOM     33  C   UNL     1       6.242   5.974  16.724  0.00  0.00    +0.000 A 
BRANCH  24  35
ATOM     34  C   UNL     1       6.265   4.024  13.819  0.00  0.00    +0.000 C 
ATOM     35  O   UNL     1       6.943   4.382  15.038  0.00  0.00    +0.000 OA
ENDBRANCH  24  35
BRANCH  33  36
ATOM     36  O   UNL     1       7.114   7.006  16.569  0.00  0.00    +0.000 OA
ATOM     37  C   UNL     1       7.748   7.659  17.649  0.00  0.00    +0.000 C 
ENDBRANCH  33  36
ENDBRANCH  23  30
ENDBRANCH   1  23
TORSDOF 7
ENDMDL
MODEL 8
REMARK VINA RESULT:      -8.2      3.805      4.586
REMARK  Name = 
REMARK  9 active torsions:
REMARK  status: ('A' for Active; 'I' for Inactive)
REMARK    1  A    between atoms: C_1  and  O_2
REMARK    2  A    between atoms: O_2  and  C_3
REMARK    3  A    between atoms: C_9  and  O_10
REMARK    4  A    between atoms: O_10  and  C_11
REMARK    5  A    between atoms: C_14  and  N_15
REMARK    6  A    between atoms: N_18  and  C_19
REMARK    7  A    between atoms: C_22  and  C_23
REMARK    8  A    between atoms: C_33  and  O_34
REMARK    9  A    between atoms: O_34  and  C_35
REMARK                            x       y       z     vdW  Elec       q    Type
REMARK                         _______ _______ _______ _____ _____    ______ ____
ROOT
ATOM      1  C   UNL     1       1.987   7.374  19.952  0.00  0.00    +0.000 A 
ATOM      2  C   UNL     1       1.109   7.578  21.007  0.00  0.00    +0.000 A 
ATOM      3  C   UNL     1       0.320   8.741  21.062  0.00  0.00    +0.000 A 
ATOM      4  C   UNL     1       0.397   9.736  20.081  0.00  0.00    +0.000 A 
ATOM      5  C   UNL     1       1.209   9.477  18.967  0.00  0.00    +0.000 A 
ATOM      6  C   UNL     1       1.993   8.304  18.908  0.00  0.00    +0.000 A 
ENDROOT
BRANCH   4   7
ATOM      7  N   UNL     1      -0.304  10.971  20.223  0.00  0.00    +0.000 N 
ATOM      8  C   UNL     1      -0.276  11.783  21.351  0.00  0.00    +0.000 C 
ATOM      9  O   UNL     1       0.310  11.511  22.415  0.00  0.00    +0.000 OA
ATOM     10  N   UNL     1      -0.985  12.962  21.248  0.00  0.00    +0.000 N 
ATOM     11  H   UNL     1      -0.839  11.292  19.419  0.00  0.00    +0.000 HD
ATOM     12  H   UNL     1      -1.800  12.917  20.661  0.00  0.00    +0.000 HD
BRANCH  10  13
ATOM     13  C   UNL     1      -1.065  13.829  22.369  0.00  0.00    +0.000 A 
ATOM     14  C   UNL     1      -0.177  14.907  22.518  0.00  0.00    +0.000 A 
ATOM     15  C   UNL     1      -0.318  15.804  23.590  0.00  0.00    +0.000 A 
ATOM     16  C   UNL     1      -1.323  15.621  24.552  0.00  0.00    +0.000 A 
ATOM     17  C   UNL     1      -2.174  14.514  24.427  0.00  0.00    +0.000 A 
ATOM     18  C   UNL     1      -2.048  13.634  23.340  0.00  0.00    +0.000 A 
BRANCH  16  19
ATOM     19  C   UNL     1      -1.512  16.610  25.681  0.00  0.00    +0.000 C 
ATOM     20  F   UNL     1      -2.783  17.092  25.774  0.00  0.00    +0.000 F 
ATOM     21  F   UNL     1      -1.236  16.064  26.900  0.00  0.00    +0.000 F 
ATOM     22  F   UNL     1      -0.705  17.702  25.575  0.00  0.00    +0.000 F 
ENDBRANCH  16  19
ENDBRANCH  10  13
ENDBRANCH   4   7
BRANCH   1  23
ATOM     23  O   UNL     1       2.913   6.334  20.077  0.00  0.00    +0.000 OA
BRANCH  23  30
ATOM     24  C   UNL     1       6.475   4.768  16.674  0.00  0.00    +0.000 A 
ATOM     25  C   UNL     1       5.269   4.050  16.549  0.00  0.00    +0.000 A 
ATOM     26  C   UNL     1       4.148   4.280  17.324  0.00  0.00    +0.000 A 
ATOM     27  N   UNL     1       3.040   3.592  17.032  0.00  0.00    +0.000 NA
ATOM     28  C   UNL     1       1.969   3.830  17.793  0.00  0.00    +0.000 A 
ATOM     29  N   UNL     1       1.899   4.704  18.790  0.00  0.00    +0.000 NA
ATOM     30  C   UNL     1       3.011   5.410  19.057  0.00  0.00    +0.000 A 
ATOM     31  C   UNL     1       4.227   5.214  18.352  0.00  0.00    +0.000 A 
ATOM     32  C   UNL     1       5.470   5.868  18.563  0.00  0.00    +0.000 A 
ATOM     33  C   UNL     1       6.573   5.712  17.699  0.00  0.00    +0.000 A 
BRANCH  24  35
ATOM     34  C   UNL     1       7.134   4.772  14.430  0.00  0.00    +0.000 C 
ATOM     35  O   UNL     1       7.503   4.529  15.800  0.00  0.00    +0.000 OA
ENDBRANCH  24  35
BRANCH  33  36
ATOM     36  O   UNL     1       7.538   6.619  18.011  0.00  0.00    +0.000 OA
ATOM     37  C   UNL     1       7.646   7.884  17.394  0.00  0.00    +0.000 C 
ENDBRANCH  33  36
ENDBRANCH  23  30
ENDBRANCH   1  23
TORSDOF 7
ENDMDL
MODEL 9
REMARK VINA RESULT:      -8.2      2.007      2.735
REMARK  Name = 
REMARK  9 active torsions:
REMARK  status: ('A' for Active; 'I' for Inactive)
REMARK    1  A    between atoms: C_1  and  O_2
REMARK    2  A    between atoms: O_2  and  C_3
REMARK    3  A    between atoms: C_9  and  O_10
REMARK    4  A    between atoms: O_10  and  C_11
REMARK    5  A    between atoms: C_14  and  N_15
REMARK    6  A    between atoms: N_18  and  C_19
REMARK    7  A    between atoms: C_22  and  C_23
REMARK    8  A    between atoms: C_33  and  O_34
REMARK    9  A    between atoms: O_34  and  C_35
REMARK                            x       y       z     vdW  Elec       q    Type
REMARK                         _______ _______ _______ _____ _____    ______ ____
ROOT
ATOM      1  C   UNL     1       2.238   7.476  19.526  0.00  0.00    +0.000 A 
ATOM      2  C   UNL     1       1.545   7.968  20.622  0.00  0.00    +0.000 A 
ATOM      3  C   UNL     1       0.854   9.191  20.537  0.00  0.00    +0.000 A 
ATOM      4  C   UNL     1       0.849   9.959  19.368  0.00  0.00    +0.000 A 
ATOM      5  C   UNL     1       1.465   9.407  18.235  0.00  0.00    +0.000 A 
ATOM      6  C   UNL     1       2.150   8.175  18.319  0.00  0.00    +0.000 A 
ENDROOT
BRANCH   4   7
ATOM      7  N   UNL     1       0.263  11.260  19.340  0.00  0.00    +0.000 N 
ATOM      8  C   UNL     1      -0.743  11.704  20.192  0.00  0.00    +0.000 C 
ATOM      9  O   UNL     1      -1.315  11.007  21.048  0.00  0.00    +0.000 OA
ATOM     10  N   UNL     1      -1.122  13.019  20.022  0.00  0.00    +0.000 N 
ATOM     11  H   UNL     1       0.637  11.920  18.662  0.00  0.00    +0.000 HD
ATOM     12  H   UNL     1      -1.049  13.365  19.080  0.00  0.00    +0.000 HD
BRANCH  10  13
ATOM     13  C   UNL     1      -2.182  13.547  20.804  0.00  0.00    +0.000 A 
ATOM     14  C   UNL     1      -1.929  14.228  22.006  0.00  0.00    +0.000 A 
ATOM     15  C   UNL     1      -2.982  14.814  22.729  0.00  0.00    +0.000 A 
ATOM     16  C   UNL     1      -4.309  14.700  22.286  0.00  0.00    +0.000 A 
ATOM     17  C   UNL     1      -4.561  13.974  21.112  0.00  0.00    +0.000 A 
ATOM     18  C   UNL     1      -3.505  13.413  20.377  0.00  0.00    +0.000 A 
BRANCH  16  19
ATOM     19  C   UNL     1      -5.441  15.369  23.032  0.00  0.00    +0.000 C 
ATOM     20  F   UNL     1      -5.165  16.652  23.400  0.00  0.00    +0.000 F 
ATOM     21  F   UNL     1      -6.583  15.438  22.289  0.00  0.00    +0.000 F 
ATOM     22  F   UNL     1      -5.786  14.718  24.177  0.00  0.00    +0.000 F 
ENDBRANCH  16  19
ENDBRANCH  10  13
ENDBRANCH   4   7
BRANCH   1  23
ATOM     23  O   UNL     1       3.100   6.396  19.742  0.00  0.00    +0.000 OA
BRANCH  23  30
ATOM     24  C   UNL     1       6.097   4.799  15.844  0.00  0.00    +0.000 A 
ATOM     25  C   UNL     1       4.992   3.948  16.047  0.00  0.00    +0.000 A 
ATOM     26  C   UNL     1       4.024   4.155  17.012  0.00  0.00    +0.000 A 
ATOM     27  N   UNL     1       2.977   3.324  17.030  0.00  0.00    +0.000 NA
ATOM     28  C   UNL     1       2.055   3.541  17.970  0.00  0.00    +0.000 A 
ATOM     29  N   UNL     1       2.071   4.521  18.867  0.00  0.00    +0.000 NA
ATOM     30  C   UNL     1       3.114   5.367  18.822  0.00  0.00    +0.000 A 
ATOM     31  C   UNL     1       4.183   5.213  17.902  0.00  0.00    +0.000 A 
ATOM     32  C   UNL     1       5.349   6.015  17.781  0.00  0.00    +0.000 A 
ATOM     33  C   UNL     1       6.272   5.869  16.725  0.00  0.00    +0.000 A 
BRANCH  24  35
ATOM     34  C   UNL     1       6.294   3.997  13.656  0.00  0.00    +0.000 C 
ATOM     35  O   UNL     1       6.955   4.562  14.803  0.00  0.00    +0.000 OA
ENDBRANCH  24  35
BRANCH  33  36
ATOM     36  O   UNL     1       7.155   6.903  16.736  0.00  0.00    +0.000 OA
ATOM     37  C   UNL     1       7.812   7.354  17.902  0.00  0.00    +0.000 C 
ENDBRANCH  33  36
ENDBRANCH  23  30
ENDBRANCH   1  23
TORSDOF 7
ENDMDL
