MODEL 1
REMARK VINA RESULT:      -6.8      0.000      0.000
REMARK  Name = 
REMARK  7 active torsions:
REMARK  status: ('A' for Active; 'I' for Inactive)
REMARK    1  A    between atoms: C_1  and  O_2
REMARK    2  A    between atoms: O_2  and  C_3
REMARK    3  A    between atoms: C_6  and  C_7
REMARK    4  A    between atoms: C_7  and  N_8
REMARK    5  A    between atoms: C_11  and  N_12
REMARK    6  A    between atoms: C_15  and  O_16
REMARK    7  A    between atoms: O_16  and  C_17
REMARK                            x       y       z     vdW  Elec       q    Type
REMARK                         _______ _______ _______ _____ _____    ______ ____
ROOT
ATOM      1  C   UNL     1       6.156   6.370  16.843  0.00  0.00    +0.000 A 
ATOM      2  C   UNL     1       6.409   5.027  16.570  0.00  0.00    +0.000 A 
ATOM      3  C   UNL     1       5.407   4.071  16.738  0.00  0.00    +0.000 A 
ATOM      4  C   UNL     1       4.125   4.439  17.181  0.00  0.00    +0.000 A 
ATOM      5  C   UNL     1       3.876   5.792  17.477  0.00  0.00    +0.000 A 
ATOM      6  C   UNL     1       4.894   6.743  17.311  0.00  0.00    +0.000 A 
ENDROOT
BRANCH   1   8
ATOM      7  C   UNL     1       7.790   7.835  17.748  0.00  0.00    +0.000 C 
ATOM      8  O   UNL     1       7.206   7.213  16.609  0.00  0.00    +0.000 OA
ENDBRANCH   1   8
BRANCH   5   9
ATOM      9  O   UNL     1       2.626   6.115  17.943  0.00  0.00    +0.000 OA
ATOM     10  C   UNL     1       2.580   6.759  19.218  0.00  0.00    +0.000 C 
ENDBRANCH   5   9
BRANCH   4  11
ATOM     11  C   UNL     1       3.054   3.376  17.246  0.00  0.00    +0.000 C 
BRANCH  11  12
ATOM     12  N   UNL     1       2.387   3.188  18.519  0.00  0.00    +0.000 N 
ATOM     13  C   UNL     1       0.961   3.258  18.737  0.00  0.00    +0.000 C 
ATOM     14  C   UNL     1       0.846   3.337  20.248  0.00  0.00    +0.000 C 
ATOM     15  C   UNL     1       2.005   2.465  20.734  0.00  0.00    +0.000 C 
ATOM     16  C   UNL     1       3.050   2.679  19.631  0.00  0.00    +0.000 C 
ATOM     17  O   UNL     1       4.239   2.432  19.727  0.00  0.00    +0.000 OA
BRANCH  15  18
ATOM     18  N   UNL     1       2.518   2.871  22.046  0.00  0.00    +0.000 NA
ATOM     19  H   UNL     1       1.741   2.878  22.711  0.00  0.00    +0.000 HD
ATOM     20  H   UNL     1       2.783   3.857  21.978  0.00  0.00    +0.000 HD
ENDBRANCH  15  18
ENDBRANCH  11  12
ENDBRANCH   4  11
TORSDOF 5
ENDMDL
MODEL 2
REMARK VINA RESULT:      -6.7      2.408      5.640
REMARK  Name = 
REMARK  7 active torsions:
REMARK  status: ('A' for Active; 'I' for Inactive)
REMARK    1  A    between atoms: C_1  and  O_2
REMARK    2  A    between atoms: O_2  and  C_3
REMARK    3  A    between atoms: C_6  and  C_7
REMARK    4  A    between atoms: C_7  and  N_8
REMARK    5  A    between atoms: C_11  and  N_12
REMARK    6  A    between atoms: C_15  and  O_16
REMARK    7  A    between atoms: O_16  and  C_17
REMARK                            x       y       z     vdW  Elec       q    Type
REMARK                         _______ _______ _______ _____ _____    ______ ____
ROOT
ATOM      1  C   UNL     1       1.862   3.002  19.409  0.00  0.00    +0.000 A 
ATOM      2  C   UNL     1       2.697   2.061  18.808  0.00  0.00    +0.000 A 
ATOM      3  C   UNL     1       3.630   2.455  17.850  0.00  0.00    +0.000 A 
ATOM      4  C   UNL     1       3.752   3.803  17.471  0.00  0.00    +0.000 A 
ATOM      5  C   UNL     1       2.894   4.750  18.062  0.00  0.00    +0.000 A 
ATOM      6  C   UNL     1       1.955   4.340  19.020  0.00  0.00    +0.000 A 
ENDROOT
BRANCH   1   8
ATOM      7  C   UNL     1       1.428   2.618  21.711  0.00  0.00    +0.000 C 
ATOM      8  O   UNL     1       1.013   2.498  20.355  0.00  0.00    +0.000 OA
ENDBRANCH   1   8
BRANCH   5   9
ATOM      9  O   UNL     1       3.012   6.053  17.645  0.00  0.00    +0.000 OA
ATOM     10  C   UNL     1       2.629   7.050  18.595  0.00  0.00    +0.000 C 
ENDBRANCH   5   9
BRANCH   4  11
ATOM     11  C   UNL     1       4.848   4.183  16.505  0.00  0.00    +0.000 C 
BRANCH  11  12
ATOM     12  N   UNL     1       5.919   5.016  17.014  0.00  0.00    +0.000 N 
ATOM     13  C   UNL     1       6.928   4.601  17.960  0.00  0.00    +0.000 C 
ATOM     14  C   UNL     1       7.552   5.913  18.398  0.00  0.00    +0.000 C 
ATOM     15  C   UNL     1       7.500   6.766  17.131  0.00  0.00    +0.000 C 
ATOM     16  C   UNL     1       6.224   6.251  16.451  0.00  0.00    +0.000 C 
ATOM     17  O   UNL     1       5.609   6.829  15.572  0.00  0.00    +0.000 OA
BRANCH  15  18
ATOM     18  N   UNL     1       7.417   8.203  17.409  0.00  0.00    +0.000 NA
ATOM     19  H   UNL     1       8.229   8.473  17.970  0.00  0.00    +0.000 HD
ATOM     20  H   UNL     1       6.628   8.346  18.045  0.00  0.00    +0.000 HD
ENDBRANCH  15  18
ENDBRANCH  11  12
ENDBRANCH   4  11
TORSDOF 5
ENDMDL
MODEL 3
REMARK VINA RESULT:      -6.7      1.705      2.909
REMARK  Name = 
REMARK  7 active torsions:
REMARK  status: ('A' for Active; 'I' for Inactive)
REMARK    1  A    between atoms: C_1  and  O_2
REMARK    2  A    between atoms: O_2  and  C_3
REMARK    3  A    between atoms: C_6  and  C_7
REMARK    4  A    between atoms: C_7  and  N_8
REMARK    5  A    between atoms: C_11  and  N_12
REMARK    6  A    between atoms: C_15  and  O_16
REMARK    7  A    between atoms: O_16  and  C_17
REMARK                            x       y       z     vdW  Elec       q    Type
REMARK                         _______ _______ _______ _____ _____    ______ ____
ROOT
ATOM      1  C   UNL     1       6.345   5.413  16.469  0.00  0.00    +0.000 A 
ATOM      2  C   UNL     1       5.324   6.337  16.251  0.00  0.00    +0.000 A 
ATOM      3  C   UNL     1       4.268   6.447  17.155  0.00  0.00    +0.000 A 
ATOM      4  C   UNL     1       4.210   5.637  18.301  0.00  0.00    +0.000 A 
ATOM      5  C   UNL     1       5.230   4.689  18.509  0.00  0.00    +0.000 A 
ATOM      6  C   UNL     1       6.283   4.583  17.589  0.00  0.00    +0.000 A 
ENDROOT
BRANCH   1   8
ATOM      7  C   UNL     1       7.014   4.890  14.252  0.00  0.00    +0.000 C 
ATOM      8  O   UNL     1       7.340   5.423  15.531  0.00  0.00    +0.000 OA
ENDBRANCH   1   8
BRANCH   5   9
ATOM      9  O   UNL     1       5.126   3.886  19.618  0.00  0.00    +0.000 OA
ATOM     10  C   UNL     1       4.722   2.537  19.378  0.00  0.00    +0.000 C 
ENDBRANCH   5   9
BRANCH   4  11
ATOM     11  C   UNL     1       3.096   5.872  19.293  0.00  0.00    +0.000 C 
BRANCH  11  12
ATOM     12  N   UNL     1       2.228   4.750  19.590  0.00  0.00    +0.000 N 
ATOM     13  C   UNL     1       1.853   4.307  20.912  0.00  0.00    +0.000 C 
ATOM     14  C   UNL     1       1.248   2.938  20.659  0.00  0.00    +0.000 C 
ATOM     15  C   UNL     1       0.559   3.104  19.304  0.00  0.00    +0.000 C 
ATOM     16  C   UNL     1       1.468   4.125  18.606  0.00  0.00    +0.000 C 
ATOM     17  O   UNL     1       1.499   4.342  17.408  0.00  0.00    +0.000 OA
BRANCH  15  18
ATOM     18  N   UNL     1       0.476   1.853  18.545  0.00  0.00    +0.000 NA
ATOM     19  H   UNL     1       0.665   1.074  19.180  0.00  0.00    +0.000 HD
ATOM     20  H   UNL     1       1.270   1.834  17.899  0.00  0.00    +0.000 HD
ENDBRANCH  15  18
ENDBRANCH  11  12
ENDBRANCH   4  11
TORSDOF 5
ENDMDL
MODEL 4
REMARK VINA RESULT:      -6.7      1.582      2.285
REMARK  Name = 
REMARK  7 active torsions:
REMARK  status: ('A' for Active; 'I' for Inactive)
REMARK    1  A    between atoms: C_1  and  O_2
REMARK    2  A    between atoms: O_2  and  C_3
REMARK    3  A    between atoms: C_6  and  C_7
REMARK    4  A    between atoms: C_7  and  N_8
REMARK    5  A    between atoms: C_11  and  N_12
REMARK    6  A    between atoms: C_15  and  O_16
REMARK    7  A    between atoms: O_16  and  C_17
REMARK                            x       y       z     vdW  Elec       q    Type
REMARK                         _______ _______ _______ _____ _____    ______ ____
ROOT
ATOM      1  C   UNL     1       7.084   6.245  17.755  0.00  0.00    +0.000 A 
ATOM      2  C   UNL     1       6.377   5.833  18.883  0.00  0.00    +0.000 A 
ATOM      3  C   UNL     1       5.327   4.923  18.764  0.00  0.00    +0.000 A 
ATOM      4  C   UNL     1       4.961   4.401  17.512  0.00  0.00    +0.000 A 
ATOM      5  C   UNL     1       5.662   4.834  16.370  0.00  0.00    +0.000 A 
ATOM      6  C   UNL     1       6.712   5.755  16.502  0.00  0.00    +0.000 A 
ENDROOT
BRANCH   1   8
ATOM      7  C   UNL     1       7.833   8.497  17.822  0.00  0.00    +0.000 C 
ATOM      8  O   UNL     1       8.111   7.113  18.005  0.00  0.00    +0.000 OA
ENDBRANCH   1   8
BRANCH   5   9
ATOM      9  O   UNL     1       5.258   4.335  15.156  0.00  0.00    +0.000 OA
ATOM     10  C   UNL     1       6.301   4.009  14.236  0.00  0.00    +0.000 C 
ENDBRANCH   5   9
BRANCH   4  11
ATOM     11  C   UNL     1       3.885   3.344  17.459  0.00  0.00    +0.000 C 
BRANCH  11  12
ATOM     12  N   UNL     1       2.920   3.329  18.541  0.00  0.00    +0.000 N 
ATOM     13  C   UNL     1       1.583   3.871  18.481  0.00  0.00    +0.000 C 
ATOM     14  C   UNL     1       1.158   3.905  19.937  0.00  0.00    +0.000 C 
ATOM     15  C   UNL     1       1.830   2.666  20.528  0.00  0.00    +0.000 C 
ATOM     16  C   UNL     1       3.111   2.566  19.689  0.00  0.00    +0.000 C 
ATOM     17  O   UNL     1       4.102   1.923  19.986  0.00  0.00    +0.000 OA
BRANCH  15  18
ATOM     18  N   UNL     1       2.133   2.802  21.956  0.00  0.00    +0.000 NA
ATOM     19  H   UNL     1       1.642   3.625  22.315  0.00  0.00    +0.000 HD
ATOM     20  H   UNL     1       3.120   3.058  22.035  0.00  0.00    +0.000 HD
ENDBRANCH  15  18
ENDBRANCH  11  12
ENDBRANCH   4  11
TORSDOF 5
ENDMDL
MODEL 5
REMARK VINA RESULT:      -6.6      2.564      5.150
REMARK  Name = 
REMARK  7 active torsions:
REMARK  status: ('A' for Active; 'I' for Inactive)
REMARK    1  A    between atoms: C_1  and  O_2
REMARK    2  A    between atoms: O_2  and  C_3
REMARK    3  A    between atoms: C_6  and  C_7
REMARK    4  A    between atoms: C_7  and  N_8
REMARK    5  A    between atoms: C_11  and  N_12
REMARK    6  A    between atoms: C_15  and  O_16
REMARK    7  A    between atoms: O_16  and  C_17
REMARK                            x       y       z     vdW  Elec       q    Type
REMARK                         _______ _______ _______ _____ _____    ______ ____
ROOT
ATOM      1  C   UNL     1       1.721   7.713  20.160  0.00  0.00    +0.000 A 
ATOM      2  C   UNL     1       2.274   8.066  18.929  0.00  0.00    +0.000 A 
ATOM      3  C   UNL     1       2.851   7.095  18.111  0.00  0.00    +0.000 A 
ATOM      4  C   UNL     1       2.885   5.746  18.503  0.00  0.00    +0.000 A 
ATOM      5  C   UNL     1       2.346   5.394  19.755  0.00  0.00    +0.000 A 
ATOM      6  C   UNL     1       1.775   6.381  20.572  0.00  0.00    +0.000 A 
ENDROOT
BRANCH   1   8
ATOM      7  C   UNL     1       0.404   9.688  20.098  0.00  0.00    +0.000 C 
ATOM      8  O   UNL     1       1.158   8.747  20.855  0.00  0.00    +0.000 OA
ENDBRANCH   1   8
BRANCH   5   9
ATOM      9  O   UNL     1       2.427   4.075  20.127  0.00  0.00    +0.000 OA
ATOM     10  C   UNL     1       2.180   3.798  21.506  0.00  0.00    +0.000 C 
ENDBRANCH   5   9
BRANCH   4  11
ATOM     11  C   UNL     1       3.430   4.728  17.531  0.00  0.00    +0.000 C 
BRANCH  11  12
ATOM     12  N   UNL     1       4.825   4.854  17.155  0.00  0.00    +0.000 N 
ATOM     13  C   UNL     1       5.313   5.432  15.925  0.00  0.00    +0.000 C 
ATOM     14  C   UNL     1       6.768   5.000  15.895  0.00  0.00    +0.000 C 
ATOM     15  C   UNL     1       7.170   5.018  17.370  0.00  0.00    +0.000 C 
ATOM     16  C   UNL     1       5.855   4.639  18.065  0.00  0.00    +0.000 C 
ATOM     17  O   UNL     1       5.752   4.235  19.209  0.00  0.00    +0.000 OA
BRANCH  15  18
ATOM     18  N   UNL     1       8.238   4.065  17.685  0.00  0.00    +0.000 NA
ATOM     19  H   UNL     1       8.276   3.361  16.944  0.00  0.00    +0.000 HD
ATOM     20  H   UNL     1       7.939   3.533  18.507  0.00  0.00    +0.000 HD
ENDBRANCH  15  18
ENDBRANCH  11  12
ENDBRANCH   4  11
TORSDOF 5
ENDMDL
MODEL 6
REMARK VINA RESULT:      -6.6      2.121      3.249
REMARK  Name = 
REMARK  7 active torsions:
REMARK  status: ('A' for Active; 'I' for Inactive)
REMARK    1  A    between atoms: C_1  and  O_2
REMARK    2  A    between atoms: O_2  and  C_3
REMARK    3  A    between atoms: C_6  and  C_7
REMARK    4  A    between atoms: C_7  and  N_8
REMARK    5  A    between atoms: C_11  and  N_12
REMARK    6  A    between atoms: C_15  and  O_16
REMARK    7  A    between atoms: O_16  and  C_17
REMARK                            x       y       z     vdW  Elec       q    Type
REMARK                         _______ _______ _______ _____ _____    ______ ____
ROOT
ATOM      1  C   UNL     1       6.667   5.101  15.405  0.00  0.00    +0.000 A 
ATOM      2  C   UNL     1       5.306   5.403  15.425  0.00  0.00    +0.000 A 
ATOM      3  C   UNL     1       4.618   5.483  16.634  0.00  0.00    +0.000 A 
ATOM      4  C   UNL     1       5.276   5.266  17.856  0.00  0.00    +0.000 A 
ATOM      5  C   UNL     1       6.646   4.939  17.835  0.00  0.00    +0.000 A 
ATOM      6  C   UNL     1       7.325   4.855  16.611  0.00  0.00    +0.000 A 
ENDROOT
BRANCH   1   8
ATOM      7  C   UNL     1       6.663   4.191  13.213  0.00  0.00    +0.000 C 
ATOM      8  O   UNL     1       7.235   5.084  14.162  0.00  0.00    +0.000 OA
ENDBRANCH   1   8
BRANCH   5   9
ATOM      9  O   UNL     1       7.253   4.696  19.042  0.00  0.00    +0.000 OA
ATOM     10  C   UNL     1       8.118   5.726  19.526  0.00  0.00    +0.000 C 
ENDBRANCH   5   9
BRANCH   4  11
ATOM     11  C   UNL     1       4.502   5.466  19.137  0.00  0.00    +0.000 C 
BRANCH  11  12
ATOM     12  N   UNL     1       3.621   4.392  19.551  0.00  0.00    +0.000 N 
ATOM     13  C   UNL     1       3.965   2.990  19.585  0.00  0.00    +0.000 C 
ATOM     14  C   UNL     1       2.620   2.307  19.745  0.00  0.00    +0.000 C 
ATOM     15  C   UNL     1       1.835   3.281  20.624  0.00  0.00    +0.000 C 
ATOM     16  C   UNL     1       2.411   4.637  20.193  0.00  0.00    +0.000 C 
ATOM     17  O   UNL     1       1.893   5.721  20.393  0.00  0.00    +0.000 OA
BRANCH  15  18
ATOM     18  N   UNL     1       0.387   3.218  20.401  0.00  0.00    +0.000 NA
ATOM     19  H   UNL     1       0.218   2.808  19.479  0.00  0.00    +0.000 HD
ATOM     20  H   UNL     1       0.052   4.180  20.301  0.00  0.00    +0.000 HD
ENDBRANCH  15  18
ENDBRANCH  11  12
ENDBRANCH   4  11
TORSDOF 5
ENDMDL
MODEL 7
REMARK VINA RESULT:      -6.6      2.484      5.460
REMARK  Name = 
REMARK  7 active torsions:
REMARK  status: ('A' for Active; 'I' for Inactive)
REMARK    1  A    between atoms: C_1  and  O_2
REMARK    2  A    between atoms: O_2  and  C_3
REMARK    3  A    between atoms: C_6  and  C_7
REMARK    4  A    between atoms: C_7  and  N_8
REMARK    5  A    between atoms: C_11  and  N_12
REMARK    6  A    between atoms: C_15  and  O_16
REMARK    7  A    between atoms: O_16  and  C_17
REMARK                            x       y       z     vdW  Elec       q    Type
REMARK                         _______ _______ _______ _____ _____    ______ ____
ROOT
ATOM      1  C   UNL     1       1.471   3.891  19.924  0.00  0.00    +0.000 A 
ATOM      2  C   UNL     1       2.039   3.439  18.734  0.00  0.00    +0.000 A 
ATOM      3  C   UNL     1       2.769   4.309  17.925  0.00  0.00    +0.000 A 
ATOM      4  C   UNL     1       2.951   5.654  18.289  0.00  0.00    +0.000 A 
ATOM      5  C   UNL     1       2.359   6.116  19.480  0.00  0.00    +0.000 A 
ATOM      6  C   UNL     1       1.621   5.232  20.282  0.00  0.00    +0.000 A 
ENDROOT
BRANCH   1   8
ATOM      7  C   UNL     1       1.458   2.457  21.815  0.00  0.00    +0.000 C 
ATOM      8  O   UNL     1       0.808   2.937  20.644  0.00  0.00    +0.000 OA
ENDBRANCH   1   8
BRANCH   5   9
ATOM      9  O   UNL     1       2.523   7.443  19.791  0.00  0.00    +0.000 OA
ATOM     10  C   UNL     1       1.540   8.007  20.662  0.00  0.00    +0.000 C 
ENDBRANCH   5   9
BRANCH   4  11
ATOM     11  C   UNL     1       3.835   6.521  17.425  0.00  0.00    +0.000 C 
BRANCH  11  12
ATOM     12  N   UNL     1       5.077   5.937  16.956  0.00  0.00    +0.000 N 
ATOM     13  C   UNL     1       5.461   5.782  15.573  0.00  0.00    +0.000 C 
ATOM     14  C   UNL     1       6.641   4.831  15.646  0.00  0.00    +0.000 C 
ATOM     15  C   UNL     1       7.328   5.225  16.954  0.00  0.00    +0.000 C 
ATOM     16  C   UNL     1       6.141   5.681  17.814  0.00  0.00    +0.000 C 
ATOM     17  O   UNL     1       6.151   5.799  19.027  0.00  0.00    +0.000 OA
BRANCH  15  18
ATOM     18  N   UNL     1       8.051   4.115  17.580  0.00  0.00    +0.000 NA
ATOM     19  H   UNL     1       7.709   3.237  17.181  0.00  0.00    +0.000 HD
ATOM     20  H   UNL     1       7.749   4.067  18.557  0.00  0.00    +0.000 HD
ENDBRANCH  15  18
ENDBRANCH  11  12
ENDBRANCH   4  11
TORSDOF 5
ENDMDL
MODEL 8
REMARK VINA RESULT:      -6.6      2.607      5.824
REMARK  Name = 
REMARK  7 active torsions:
REMARK  status: ('A' for Active; 'I' for Inactive)
REMARK    1  A    between atoms: C_1  and  O_2
REMARK    2  A    between atoms: O_2  and  C_3
REMARK    3  A    between atoms: C_6  and  C_7
REMARK    4  A    between atoms: C_7  and  N_8
REMARK    5  A    between atoms: C_11  and  N_12
REMARK    6  A    between atoms: C_15  and  O_16
REMARK    7  A    between atoms: O_16  and  C_17
REMARK                            x       y       z     vdW  Elec       q    Type
REMARK                         _______ _______ _______ _____ _____    ______ ____
ROOT
ATOM      1  C   UNL     1       2.230   3.929  20.077  0.00  0.00    +0.000 A 
ATOM      2  C   UNL     1       3.274   3.007  20.129  0.00  0.00    +0.000 A 
ATOM      3  C   UNL     1       4.488   3.279  19.501  0.00  0.00    +0.000 A 
ATOM      4  C   UNL     1       4.689   4.484  18.806  0.00  0.00    +0.000 A 
ATOM      5  C   UNL     1       3.627   5.406  18.735  0.00  0.00    +0.000 A 
ATOM      6  C   UNL     1       2.408   5.117  19.366  0.00  0.00    +0.000 A 
ENDROOT
BRANCH   1   8
ATOM      7  C   UNL     1       1.265   2.581  21.777  0.00  0.00    +0.000 C 
ATOM      8  O   UNL     1       1.103   3.563  20.759  0.00  0.00    +0.000 OA
ENDBRANCH   1   8
BRANCH   5   9
ATOM      9  O   UNL     1       3.840   6.557  18.018  0.00  0.00    +0.000 OA
ATOM     10  C   UNL     1       2.847   7.575  18.161  0.00  0.00    +0.000 C 
ENDBRANCH   5   9
BRANCH   4  11
ATOM     11  C   UNL     1       6.057   4.765  18.233  0.00  0.00    +0.000 C 
BRANCH  11  12
ATOM     12  N   UNL     1       6.206   4.656  16.795  0.00  0.00    +0.000 N 
ATOM     13  C   UNL     1       5.493   3.731  15.945  0.00  0.00    +0.000 C 
ATOM     14  C   UNL     1       6.262   3.798  14.639  0.00  0.00    +0.000 C 
ATOM     15  C   UNL     1       6.705   5.260  14.567  0.00  0.00    +0.000 C 
ATOM     16  C   UNL     1       6.891   5.611  16.050  0.00  0.00    +0.000 C 
ATOM     17  O   UNL     1       7.519   6.563  16.478  0.00  0.00    +0.000 OA
BRANCH  15  18
ATOM     18  N   UNL     1       7.947   5.447  13.812  0.00  0.00    +0.000 NA
ATOM     19  H   UNL     1       8.221   6.431  13.873  0.00  0.00    +0.000 HD
ATOM     20  H   UNL     1       7.723   5.322  12.821  0.00  0.00    +0.000 HD
ENDBRANCH  15  18
ENDBRANCH  11  12
ENDBRANCH   4  11
TORSDOF 5
ENDMDL
MODEL 9
REMARK VINA RESULT:      -6.5      1.945      2.462
REMARK  Name = 
REMARK  7 active torsions:
REMARK  status: ('A' for Active; 'I' for Inactive)
REMARK    1  A    between atoms: C_1  and  O_2
REMARK    2  A    between atoms: O_2  and  C_3
REMARK    3  A    between atoms: C_6  and  C_7
REMARK    4  A    between atoms: C_7  and  N_8
REMARK    5  A    between atoms: C_11  and  N_12
REMARK    6  A    between atoms: C_15  and  O_16
REMARK    7  A    between atoms: O_16  and  C_17
REMARK                            x       y       z     vdW  Elec       q    Type
REMARK                         _______ _______ _______ _____ _____    ______ ____
ROOT
ATOM      1  C   UNL     1       6.684   5.333  15.748  0.00  0.00    +0.000 A 
ATOM      2  C   UNL     1       7.359   4.753  16.822  0.00  0.00    +0.000 A 
ATOM      3  C   UNL     1       6.742   4.642  18.067  0.00  0.00    +0.000 A 
ATOM      4  C   UNL     1       5.432   5.107  18.268  0.00  0.00    +0.000 A 
ATOM      5  C   UNL     1       4.758   5.713  17.190  0.00  0.00    +0.000 A 
ATOM      6  C   UNL     1       5.393   5.824  15.944  0.00  0.00    +0.000 A 
ENDROOT
BRANCH   1   8
ATOM      7  C   UNL     1       6.952   4.453  13.560  0.00  0.00    +0.000 C 
ATOM      8  O   UNL     1       7.382   5.354  14.573  0.00  0.00    +0.000 OA
ENDBRANCH   1   8
BRANCH   5   9
ATOM      9  O   UNL     1       3.493   6.191  17.426  0.00  0.00    +0.000 OA
ATOM     10  C   UNL     1       3.389   7.597  17.659  0.00  0.00    +0.000 C 
ENDBRANCH   5   9
BRANCH   4  11
ATOM     11  C   UNL     1       4.781   4.868  19.609  0.00  0.00    +0.000 C 
BRANCH  11  12
ATOM     12  N   UNL     1       3.722   3.879  19.663  0.00  0.00    +0.000 N 
ATOM     13  C   UNL     1       3.817   2.522  19.178  0.00  0.00    +0.000 C 
ATOM     14  C   UNL     1       2.371   2.060  19.159  0.00  0.00    +0.000 C 
ATOM     15  C   UNL     1       1.761   2.770  20.368  0.00  0.00    +0.000 C 
ATOM     16  C   UNL     1       2.568   4.074  20.415  0.00  0.00    +0.000 C 
ATOM     17  O   UNL     1       2.246   5.084  21.015  0.00  0.00    +0.000 OA
BRANCH  15  18
ATOM     18  N   UNL     1       0.327   3.032  20.216  0.00  0.00    +0.000 NA
ATOM     19  H   UNL     1      -0.083   3.148  21.146  0.00  0.00    +0.000 HD
ATOM     20  H   UNL     1      -0.105   2.171  19.870  0.00  0.00    +0.000 HD
ENDBRANCH  15  18
ENDBRANCH  11  12
ENDBRANCH   4  11
TORSDOF 5
ENDMDL
