MODEL 1
REMARK VINA RESULT:      -7.6      0.000      0.000
REMARK  Name = 
REMARK  6 active torsions:
REMARK  status: ('A' for Active; 'I' for Inactive)
REMARK    1  A    between atoms: C_1  and  O_2
REMARK    2  A    between atoms: O_2  and  C_3
REMARK    3  A    between atoms: C_6  and  C_7
REMARK    4  A    between atoms: C_9  and  C_10
REMARK    5  A    between atoms: N_17  and  C_18
REMARK    6  A    between atoms: C_18  and  N_19
REMARK                            x       y       z     vdW  Elec       q    Type
REMARK                         _______ _______ _______ _____ _____    ______ ____
ROOT
ATOM      1  C   UNL     1       5.839   5.287  17.760  0.00  0.00    +0.000 C 
ATOM      2  C   UNL     1       5.576   4.476  16.496  0.00  0.00    +0.000 C 
ATOM      3  C   UNL     1       6.583   5.084  15.564  0.00  0.00    +0.000 C 
ATOM      4  N   UNL     1       7.372   5.978  16.080  0.00  0.00    +0.000 NA
ATOM      5  N   UNL     1       6.975   6.151  17.396  0.00  0.00    +0.000 N 
ENDROOT
BRANCH   1   9
ATOM      6  C   UNL     1       2.333   7.509  19.004  0.00  0.00    +0.000 A 
ATOM      7  C   UNL     1       3.018   7.845  17.838  0.00  0.00    +0.000 A 
ATOM      8  C   UNL     1       4.121   7.097  17.426  0.00  0.00    +0.000 A 
ATOM      9  C   UNL     1       4.568   6.001  18.181  0.00  0.00    +0.000 A 
ATOM     10  C   UNL     1       3.872   5.672  19.355  0.00  0.00    +0.000 A 
ATOM     11  C   UNL     1       2.760   6.419  19.760  0.00  0.00    +0.000 A 
BRANCH   6  13
ATOM     12  C   UNL     1       1.253   9.579  18.621  0.00  0.00    +0.000 C 
ATOM     13  O   UNL     1       1.298   8.344  19.326  0.00  0.00    +0.000 OA
ENDBRANCH   6  13
ENDBRANCH   1   9
BRANCH   3  14
ATOM     14  C   UNL     1       6.637   4.643  14.153  0.00  0.00    +0.000 A 
ATOM     15  C   UNL     1       5.784   3.646  13.694  0.00  0.00    +0.000 A 
ATOM     16  C   UNL     1       5.905   3.237  12.369  0.00  0.00    +0.000 A 
ATOM     17  C   UNL     1       6.865   3.831  11.555  0.00  0.00    +0.000 A 
ATOM     18  C   UNL     1       7.664   4.824  12.100  0.00  0.00    +0.000 A 
ATOM     19  N   UNL     1       7.571   5.249  13.378  0.00  0.00    +0.000 NA
ENDBRANCH   3  14
BRANCH   5  20
ATOM     20  C   UNL     1       7.745   6.925  18.249  0.00  0.00    +0.000 C 
ATOM     21  S   UNL     1       8.184   8.520  18.056  0.00  0.00    +0.000 S 
BRANCH  20  22
ATOM     22  N   UNL     1       8.160   6.257  19.365  0.00  0.00    +0.000 N 
ATOM     23  H   UNL     1       8.225   6.804  20.213  0.00  0.00    +0.000 HD
ATOM     24  H   UNL     1       8.669   5.387  19.276  0.00  0.00    +0.000 HD
ENDBRANCH  20  22
ENDBRANCH   5  20
TORSDOF 5
ENDMDL
MODEL 2
REMARK VINA RESULT:      -7.6      1.354      2.093
REMARK  Name = 
REMARK  6 active torsions:
REMARK  status: ('A' for Active; 'I' for Inactive)
REMARK    1  A    between atoms: C_1  and  O_2
REMARK    2  A    between atoms: O_2  and  C_3
REMARK    3  A    between atoms: C_6  and  C_7
REMARK    4  A    between atoms: C_9  and  C_10
REMARK    5  A    between atoms: N_17  and  C_18
REMARK    6  A    between atoms: C_18  and  N_19
REMARK                            x       y       z     vdW  Elec       q    Type
REMARK                         _______ _______ _______ _____ _____    ______ ____
ROOT
ATOM      1  C   UNL     1       6.561   4.795  17.818  0.00  0.00    +0.000 C 
ATOM      2  C   UNL     1       6.385   4.006  16.526  0.00  0.00    +0.000 C 
ATOM      3  C   UNL     1       6.922   4.989  15.527  0.00  0.00    +0.000 C 
ATOM      4  N   UNL     1       7.417   6.087  16.015  0.00  0.00    +0.000 NA
ATOM      5  N   UNL     1       7.226   6.037  17.387  0.00  0.00    +0.000 N 
ENDROOT
BRANCH   1   9
ATOM      6  C   UNL     1       2.647   5.098  19.651  0.00  0.00    +0.000 A 
ATOM      7  C   UNL     1       3.487   4.023  19.931  0.00  0.00    +0.000 A 
ATOM      8  C   UNL     1       4.762   3.957  19.366  0.00  0.00    +0.000 A 
ATOM      9  C   UNL     1       5.216   4.964  18.500  0.00  0.00    +0.000 A 
ATOM     10  C   UNL     1       4.360   6.042  18.224  0.00  0.00    +0.000 A 
ATOM     11  C   UNL     1       3.087   6.109  18.800  0.00  0.00    +0.000 A 
BRANCH   6  13
ATOM     12  C   UNL     1       0.942   3.720  20.541  0.00  0.00    +0.000 C 
ATOM     13  O   UNL     1       1.408   5.027  20.229  0.00  0.00    +0.000 OA
ENDBRANCH   6  13
ENDBRANCH   1   9
BRANCH   3  14
ATOM     14  C   UNL     1       6.878   4.667  14.084  0.00  0.00    +0.000 A 
ATOM     15  C   UNL     1       6.056   3.650  13.615  0.00  0.00    +0.000 A 
ATOM     16  C   UNL     1       6.083   3.359  12.254  0.00  0.00    +0.000 A 
ATOM     17  C   UNL     1       6.923   4.086  11.416  0.00  0.00    +0.000 A 
ATOM     18  C   UNL     1       7.700   5.088  11.974  0.00  0.00    +0.000 A 
ATOM     19  N   UNL     1       7.695   5.401  13.287  0.00  0.00    +0.000 NA
ENDBRANCH   3  14
BRANCH   5  20
ATOM     20  C   UNL     1       7.807   7.000  18.196  0.00  0.00    +0.000 C 
ATOM     21  S   UNL     1       7.966   8.628  17.883  0.00  0.00    +0.000 S 
BRANCH  20  22
ATOM     22  N   UNL     1       8.281   6.505  19.377  0.00  0.00    +0.000 N 
ATOM     23  H   UNL     1       7.644   6.540  20.161  0.00  0.00    +0.000 HD
ATOM     24  H   UNL     1       9.278   6.424  19.529  0.00  0.00    +0.000 HD
ENDBRANCH  20  22
ENDBRANCH   5  20
TORSDOF 5
ENDMDL
MODEL 3
REMARK VINA RESULT:      -7.4      3.575      7.047
REMARK  Name = 
REMARK  6 active torsions:
REMARK  status: ('A' for Active; 'I' for Inactive)
REMARK    1  A    between atoms: C_1  and  O_2
REMARK    2  A    between atoms: O_2  and  C_3
REMARK    3  A    between atoms: C_6  and  C_7
REMARK    4  A    between atoms: C_9  and  C_10
REMARK    5  A    between atoms: N_17  and  C_18
REMARK    6  A    between atoms: C_18  and  N_19
REMARK                            x       y       z     vdW  Elec       q    Type
REMARK                         _______ _______ _______ _____ _____    ______ ____
ROOT
ATOM      1  C   UNL     1       5.220   5.057  18.186  0.00  0.00    +0.000 C 
ATOM      2  C   UNL     1       4.749   6.504  18.286  0.00  0.00    +0.000 C 
ATOM      3  C   UNL     1       3.336   6.303  18.750  0.00  0.00    +0.000 C 
ATOM      4  N   UNL     1       2.984   5.076  18.996  0.00  0.00    +0.000 NA
ATOM      5  N   UNL     1       4.069   4.277  18.672  0.00  0.00    +0.000 N 
ENDROOT
BRANCH   1   9
ATOM      6  C   UNL     1       6.543   4.441  14.107  0.00  0.00    +0.000 A 
ATOM      7  C   UNL     1       7.428   4.882  15.088  0.00  0.00    +0.000 A 
ATOM      8  C   UNL     1       7.000   5.038  16.407  0.00  0.00    +0.000 A 
ATOM      9  C   UNL     1       5.672   4.764  16.768  0.00  0.00    +0.000 A 
ATOM     10  C   UNL     1       4.787   4.321  15.771  0.00  0.00    +0.000 A 
ATOM     11  C   UNL     1       5.224   4.156  14.452  0.00  0.00    +0.000 A 
BRANCH   6  13
ATOM     12  C   UNL     1       6.560   3.330  12.018  0.00  0.00    +0.000 C 
ATOM     13  O   UNL     1       7.069   4.370  12.846  0.00  0.00    +0.000 OA
ENDBRANCH   6  13
ENDBRANCH   1   9
BRANCH   3  14
ATOM     14  C   UNL     1       2.444   7.472  18.914  0.00  0.00    +0.000 A 
ATOM     15  C   UNL     1       2.179   8.310  17.839  0.00  0.00    +0.000 A 
ATOM     16  C   UNL     1       1.368   9.421  18.056  0.00  0.00    +0.000 A 
ATOM     17  C   UNL     1       0.856   9.654  19.329  0.00  0.00    +0.000 A 
ATOM     18  C   UNL     1       1.169   8.757  20.338  0.00  0.00    +0.000 A 
ATOM     19  N   UNL     1       1.947   7.668  20.161  0.00  0.00    +0.000 NA
ENDBRANCH   3  14
BRANCH   5  20
ATOM     20  C   UNL     1       4.046   2.928  18.991  0.00  0.00    +0.000 C 
ATOM     21  S   UNL     1       2.933   1.788  18.505  0.00  0.00    +0.000 S 
BRANCH  20  22
ATOM     22  N   UNL     1       5.081   2.540  19.791  0.00  0.00    +0.000 N 
ATOM     23  H   UNL     1       5.073   2.902  20.735  0.00  0.00    +0.000 HD
ATOM     24  H   UNL     1       5.940   2.199  19.380  0.00  0.00    +0.000 HD
ENDBRANCH  20  22
ENDBRANCH   5  20
TORSDOF 5
ENDMDL
MODEL 4
REMARK VINA RESULT:      -7.4      3.562      7.040
REMARK  Name = 
REMARK  6 active torsions:
REMARK  status: ('A' for Active; 'I' for Inactive)
REMARK    1  A    between atoms: C_1  and  O_2
REMARK    2  A    between atoms: O_2  and  C_3
REMARK    3  A    between atoms: C_6  and  C_7
REMARK    4  A    between atoms: C_9  and  C_10
REMARK    5  A    between atoms: N_17  and  C_18
REMARK    6  A    between atoms: C_18  and  N_19
REMARK                            x       y       z     vdW  Elec       q    Type
REMARK                         _______ _______ _______ _____ _____    ______ ____
ROOT
ATOM      1  C   UNL     1       5.226   5.219  18.021  0.00  0.00    +0.000 C 
ATOM      2  C   UNL     1       4.724   6.652  18.155  0.00  0.00    +0.000 C 
ATOM      3  C   UNL     1       3.325   6.410  18.642  0.00  0.00    +0.000 C 
ATOM      4  N   UNL     1       3.007   5.171  18.872  0.00  0.00    +0.000 NA
ATOM      5  N   UNL     1       4.103   4.403  18.514  0.00  0.00    +0.000 N 
ENDROOT
BRANCH   1   9
ATOM      6  C   UNL     1       6.431   4.263  13.970  0.00  0.00    +0.000 A 
ATOM      7  C   UNL     1       5.123   4.046  14.398  0.00  0.00    +0.000 A 
ATOM      8  C   UNL     1       4.736   4.396  15.693  0.00  0.00    +0.000 A 
ATOM      9  C   UNL     1       5.657   4.961  16.589  0.00  0.00    +0.000 A 
ATOM     10  C   UNL     1       6.973   5.173  16.148  0.00  0.00    +0.000 A 
ATOM     11  C   UNL     1       7.354   4.830  14.846  0.00  0.00    +0.000 A 
BRANCH   6  13
ATOM     12  C   UNL     1       5.648   3.139  12.041  0.00  0.00    +0.000 C 
ATOM     13  O   UNL     1       6.699   3.838  12.697  0.00  0.00    +0.000 OA
ENDBRANCH   6  13
ENDBRANCH   1   9
BRANCH   3  14
ATOM     14  C   UNL     1       2.409   7.554  18.843  0.00  0.00    +0.000 A 
ATOM     15  C   UNL     1       2.100   8.402  17.787  0.00  0.00    +0.000 A 
ATOM     16  C   UNL     1       1.268   9.489  18.040  0.00  0.00    +0.000 A 
ATOM     17  C   UNL     1       0.778   9.690  19.326  0.00  0.00    +0.000 A 
ATOM     18  C   UNL     1       1.135   8.786  20.314  0.00  0.00    +0.000 A 
ATOM     19  N   UNL     1       1.934   7.718  20.104  0.00  0.00    +0.000 NA
ENDBRANCH   3  14
BRANCH   5  20
ATOM     20  C   UNL     1       4.119   3.049  18.809  0.00  0.00    +0.000 C 
ATOM     21  S   UNL     1       3.091   1.872  18.233  0.00  0.00    +0.000 S 
BRANCH  20  22
ATOM     22  N   UNL     1       5.115   2.691  19.671  0.00  0.00    +0.000 N 
ATOM     23  H   UNL     1       6.047   2.994  19.423  0.00  0.00    +0.000 HD
ATOM     24  H   UNL     1       4.979   1.919  20.311  0.00  0.00    +0.000 HD
ENDBRANCH  20  22
ENDBRANCH   5  20
TORSDOF 5
ENDMDL
MODEL 5
REMARK VINA RESULT:      -7.3      0.611      1.033
REMARK  Name = 
REMARK  6 active torsions:
REMARK  status: ('A' for Active; 'I' for Inactive)
REMARK    1  A    between atoms: C_1  and  O_2
REMARK    2  A    between atoms: O_2  and  C_3
REMARK    3  A    between atoms: C_6  and  C_7
REMARK    4  A    between atoms: C_9  and  C_10
REMARK    5  A    between atoms: N_17  and  C_18
REMARK    6  A    between atoms: C_18  and  N_19
REMARK                            x       y       z     vdW  Elec       q    Type
REMARK                         _______ _______ _______ _____ _____    ______ ____
ROOT
ATOM      1  C   UNL     1       5.794   5.275  17.719  0.00  0.00    +0.000 C 
ATOM      2  C   UNL     1       5.536   4.460  16.457  0.00  0.00    +0.000 C 
ATOM      3  C   UNL     1       6.585   5.025  15.545  0.00  0.00    +0.000 C 
ATOM      4  N   UNL     1       7.392   5.897  16.072  0.00  0.00    +0.000 NA
ATOM      5  N   UNL     1       6.967   6.096  17.376  0.00  0.00    +0.000 N 
ENDROOT
BRANCH   1   9
ATOM      6  C   UNL     1       2.337   7.625  18.859  0.00  0.00    +0.000 A 
ATOM      7  C   UNL     1       3.073   7.941  17.719  0.00  0.00    +0.000 A 
ATOM      8  C   UNL     1       4.160   7.152  17.339  0.00  0.00    +0.000 A 
ATOM      9  C   UNL     1       4.538   6.036  18.102  0.00  0.00    +0.000 A 
ATOM     10  C   UNL     1       3.791   5.728  19.250  0.00  0.00    +0.000 A 
ATOM     11  C   UNL     1       2.695   6.516  19.621  0.00  0.00    +0.000 A 
BRANCH   6  13
ATOM     12  C   UNL     1       1.193   9.613  18.276  0.00  0.00    +0.000 C 
ATOM     13  O   UNL     1       1.324   8.498  19.151  0.00  0.00    +0.000 OA
ENDBRANCH   6  13
ENDBRANCH   1   9
BRANCH   3  14
ATOM     14  C   UNL     1       6.659   4.568  14.139  0.00  0.00    +0.000 A 
ATOM     15  C   UNL     1       7.585   5.125  13.267  0.00  0.00    +0.000 A 
ATOM     16  C   UNL     1       7.585   4.691  11.944  0.00  0.00    +0.000 A 
ATOM     17  C   UNL     1       6.668   3.725  11.542  0.00  0.00    +0.000 A 
ATOM     18  C   UNL     1       5.788   3.221  12.487  0.00  0.00    +0.000 A 
ATOM     19  N   UNL     1       5.764   3.614  13.778  0.00  0.00    +0.000 NA
ENDBRANCH   3  14
BRANCH   5  20
ATOM     20  C   UNL     1       7.743   6.853  18.241  0.00  0.00    +0.000 C 
ATOM     21  S   UNL     1       8.186   8.450  18.076  0.00  0.00    +0.000 S 
BRANCH  20  22
ATOM     22  N   UNL     1       8.159   6.163  19.344  0.00  0.00    +0.000 N 
ATOM     23  H   UNL     1       7.538   6.184  20.142  0.00  0.00    +0.000 HD
ATOM     24  H   UNL     1       9.137   5.936  19.461  0.00  0.00    +0.000 HD
ENDBRANCH  20  22
ENDBRANCH   5  20
TORSDOF 5
ENDMDL
MODEL 6
REMARK VINA RESULT:      -7.3      1.445      2.292
REMARK  Name = 
REMARK  6 active torsions:
REMARK  status: ('A' for Active; 'I' for Inactive)
REMARK    1  A    between atoms: C_1  and  O_2
REMARK    2  A    between atoms: O_2  and  C_3
REMARK    3  A    between atoms: C_6  and  C_7
REMARK    4  A    between atoms: C_9  and  C_10
REMARK    5  A    between atoms: N_17  and  C_18
REMARK    6  A    between atoms: C_18  and  N_19
REMARK                            x       y       z     vdW  Elec       q    Type
REMARK                         _______ _______ _______ _____ _____    ______ ____
ROOT
ATOM      1  C   UNL     1       6.560   4.814  17.807  0.00  0.00    +0.000 C 
ATOM      2  C   UNL     1       6.398   3.999  16.529  0.00  0.00    +0.000 C 
ATOM      3  C   UNL     1       6.952   4.959  15.518  0.00  0.00    +0.000 C 
ATOM      4  N   UNL     1       7.445   6.065  15.990  0.00  0.00    +0.000 NA
ATOM      5  N   UNL     1       7.236   6.043  17.360  0.00  0.00    +0.000 N 
ENDROOT
BRANCH   1   9
ATOM      6  C   UNL     1       2.626   5.166  19.588  0.00  0.00    +0.000 A 
ATOM      7  C   UNL     1       3.472   4.111  19.924  0.00  0.00    +0.000 A 
ATOM      8  C   UNL     1       4.752   4.031  19.374  0.00  0.00    +0.000 A 
ATOM      9  C   UNL     1       5.207   5.001  18.469  0.00  0.00    +0.000 A 
ATOM     10  C   UNL     1       4.346   6.059  18.136  0.00  0.00    +0.000 A 
ATOM     11  C   UNL     1       3.066   6.141  18.697  0.00  0.00    +0.000 A 
BRANCH   6  13
ATOM     12  C   UNL     1       0.829   3.809  20.316  0.00  0.00    +0.000 C 
ATOM     13  O   UNL     1       1.382   5.111  20.156  0.00  0.00    +0.000 OA
ENDBRANCH   6  13
ENDBRANCH   1   9
BRANCH   3  14
ATOM     14  C   UNL     1       6.924   4.608  14.081  0.00  0.00    +0.000 A 
ATOM     15  C   UNL     1       7.717   5.300  13.173  0.00  0.00    +0.000 A 
ATOM     16  C   UNL     1       7.621   4.960  11.827  0.00  0.00    +0.000 A 
ATOM     17  C   UNL     1       6.746   3.951  11.436  0.00  0.00    +0.000 A 
ATOM     18  C   UNL     1       6.002   3.312  12.416  0.00  0.00    +0.000 A 
ATOM     19  N   UNL     1       6.073   3.612  13.730  0.00  0.00    +0.000 NA
ENDBRANCH   3  14
BRANCH   5  20
ATOM     20  C   UNL     1       7.811   7.021  18.157  0.00  0.00    +0.000 C 
ATOM     21  S   UNL     1       7.945   8.648  17.830  0.00  0.00    +0.000 S 
BRANCH  20  22
ATOM     22  N   UNL     1       8.301   6.542  19.338  0.00  0.00    +0.000 N 
ATOM     23  H   UNL     1       9.231   6.849  19.590  0.00  0.00    +0.000 HD
ATOM     24  H   UNL     1       7.908   5.705  19.748  0.00  0.00    +0.000 HD
ENDBRANCH  20  22
ENDBRANCH   5  20
TORSDOF 5
ENDMDL
MODEL 7
REMARK VINA RESULT:      -7.2      3.021      6.541
REMARK  Name = 
REMARK  6 active torsions:
REMARK  status: ('A' for Active; 'I' for Inactive)
REMARK    1  A    between atoms: C_1  and  O_2
REMARK    2  A    between atoms: O_2  and  C_3
REMARK    3  A    between atoms: C_6  and  C_7
REMARK    4  A    between atoms: C_9  and  C_10
REMARK    5  A    between atoms: N_17  and  C_18
REMARK    6  A    between atoms: C_18  and  N_19
REMARK                            x       y       z     vdW  Elec       q    Type
REMARK                         _______ _______ _______ _____ _____    ______ ____
ROOT
ATOM      1  C   UNL     1       5.243   6.081  17.224  0.00  0.00    +0.000 C 
ATOM      2  C   UNL     1       3.873   5.548  17.629  0.00  0.00    +0.000 C 
ATOM      3  C   UNL     1       4.197   4.943  18.964  0.00  0.00    +0.000 C 
ATOM      4  N   UNL     1       5.414   5.112  19.388  0.00  0.00    +0.000 NA
ATOM      5  N   UNL     1       6.097   5.783  18.387  0.00  0.00    +0.000 N 
ENDROOT
BRANCH   1   9
ATOM      6  C   UNL     1       6.440   4.084  13.569  0.00  0.00    +0.000 A 
ATOM      7  C   UNL     1       5.153   3.932  14.080  0.00  0.00    +0.000 A 
ATOM      8  C   UNL     1       4.766   4.612  15.236  0.00  0.00    +0.000 A 
ATOM      9  C   UNL     1       5.667   5.452  15.909  0.00  0.00    +0.000 A 
ATOM     10  C   UNL     1       6.962   5.597  15.387  0.00  0.00    +0.000 A 
ATOM     11  C   UNL     1       7.342   4.921  14.222  0.00  0.00    +0.000 A 
BRANCH   6  13
ATOM     12  C   UNL     1       5.594   2.706  11.842  0.00  0.00    +0.000 C 
ATOM     13  O   UNL     1       6.713   3.332  12.459  0.00  0.00    +0.000 OA
ENDBRANCH   6  13
ENDBRANCH   1   9
BRANCH   3  14
ATOM     14  C   UNL     1       3.148   4.220  19.716  0.00  0.00    +0.000 A 
ATOM     15  C   UNL     1       1.823   4.634  19.649  0.00  0.00    +0.000 A 
ATOM     16  C   UNL     1       0.882   3.946  20.410  0.00  0.00    +0.000 A 
ATOM     17  C   UNL     1       1.291   2.880  21.204  0.00  0.00    +0.000 A 
ATOM     18  C   UNL     1       2.634   2.536  21.200  0.00  0.00    +0.000 A 
ATOM     19  N   UNL     1       3.573   3.176  20.471  0.00  0.00    +0.000 NA
ENDBRANCH   3  14
BRANCH   5  20
ATOM     20  C   UNL     1       7.379   6.253  18.626  0.00  0.00    +0.000 C 
ATOM     21  S   UNL     1       8.072   7.653  18.050  0.00  0.00    +0.000 S 
BRANCH  20  22
ATOM     22  N   UNL     1       8.113   5.439  19.440  0.00  0.00    +0.000 N 
ATOM     23  H   UNL     1       8.884   5.877  19.927  0.00  0.00    +0.000 HD
ATOM     24  H   UNL     1       8.092   4.437  19.307  0.00  0.00    +0.000 HD
ENDBRANCH  20  22
ENDBRANCH   5  20
TORSDOF 5
ENDMDL
MODEL 8
REMARK VINA RESULT:      -7.1      3.612      7.037
REMARK  Name = 
REMARK  6 active torsions:
REMARK  status: ('A' for Active; 'I' for Inactive)
REMARK    1  A    between atoms: C_1  and  O_2
REMARK    2  A    between atoms: O_2  and  C_3
REMARK    3  A    between atoms: C_6  and  C_7
REMARK    4  A    between atoms: C_9  and  C_10
REMARK    5  A    between atoms: N_17  and  C_18
REMARK    6  A    between atoms: C_18  and  N_19
REMARK                            x       y       z     vdW  Elec       q    Type
REMARK                         _______ _______ _______ _____ _____    ______ ____
ROOT
ATOM      1  C   UNL     1       5.146   5.029  18.336  0.00  0.00    +0.000 C 
ATOM      2  C   UNL     1       4.704   6.483  18.449  0.00  0.00    +0.000 C 
ATOM      3  C   UNL     1       3.281   6.305  18.891  0.00  0.00    +0.000 C 
ATOM      4  N   UNL     1       2.901   5.083  19.115  0.00  0.00    +0.000 NA
ATOM      5  N   UNL     1       3.973   4.265  18.795  0.00  0.00    +0.000 N 
ENDROOT
BRANCH   1   9
ATOM      6  C   UNL     1       6.519   4.439  14.269  0.00  0.00    +0.000 A 
ATOM      7  C   UNL     1       7.405   4.818  15.276  0.00  0.00    +0.000 A 
ATOM      8  C   UNL     1       6.959   4.965  16.590  0.00  0.00    +0.000 A 
ATOM      9  C   UNL     1       5.612   4.745  16.920  0.00  0.00    +0.000 A 
ATOM     10  C   UNL     1       4.728   4.366  15.897  0.00  0.00    +0.000 A 
ATOM     11  C   UNL     1       5.182   4.210  14.582  0.00  0.00    +0.000 A 
BRANCH   6  13
ATOM     12  C   UNL     1       6.486   3.415  12.136  0.00  0.00    +0.000 C 
ATOM     13  O   UNL     1       7.066   4.371  13.016  0.00  0.00    +0.000 OA
ENDBRANCH   6  13
ENDBRANCH   1   9
BRANCH   3  14
ATOM     14  C   UNL     1       2.411   7.490  19.059  0.00  0.00    +0.000 A 
ATOM     15  C   UNL     1       1.842   7.775  20.294  0.00  0.00    +0.000 A 
ATOM     16  C   UNL     1       0.996   8.876  20.388  0.00  0.00    +0.000 A 
ATOM     17  C   UNL     1       0.749   9.648  19.257  0.00  0.00    +0.000 A 
ATOM     18  C   UNL     1       1.370   9.290  18.070  0.00  0.00    +0.000 A 
ATOM     19  N   UNL     1       2.199   8.233  17.943  0.00  0.00    +0.000 NA
ENDBRANCH   3  14
BRANCH   5  20
ATOM     20  C   UNL     1       3.919   2.913  19.095  0.00  0.00    +0.000 C 
ATOM     21  S   UNL     1       2.720   1.830  18.688  0.00  0.00    +0.000 S 
BRANCH  20  22
ATOM     22  N   UNL     1       5.000   2.468  19.799  0.00  0.00    +0.000 N 
ATOM     23  H   UNL     1       5.148   2.895  20.704  0.00  0.00    +0.000 HD
ATOM     24  H   UNL     1       5.760   2.002  19.321  0.00  0.00    +0.000 HD
ENDBRANCH  20  22
ENDBRANCH   5  20
TORSDOF 5
ENDMDL
MODEL 9
REMARK VINA RESULT:      -7.1      0.292      1.068
REMARK  Name = 
REMARK  6 active torsions:
REMARK  status: ('A' for Active; 'I' for Inactive)
REMARK    1  A    between atoms: C_1  and  O_2
REMARK    2  A    between atoms: O_2  and  C_3
REMARK    3  A    between atoms: C_6  and  C_7
REMARK    4  A    between atoms: C_9  and  C_10
REMARK    5  A    between atoms: N_17  and  C_18
REMARK    6  A    between atoms: C_18  and  N_19
REMARK                            x       y       z     vdW  Elec       q    Type
REMARK                         _______ _______ _______ _____ _____    ______ ____
ROOT
ATOM      1  C   UNL     1       5.766   5.407  17.808  0.00  0.00    +0.000 C 
ATOM      2  C   UNL     1       5.468   4.633  16.529  0.00  0.00    +0.000 C 
ATOM      3  C   UNL     1       6.567   5.137  15.640  0.00  0.00    +0.000 C 
ATOM      4  N   UNL     1       7.425   5.942  16.192  0.00  0.00    +0.000 NA
ATOM      5  N   UNL     1       6.998   6.150  17.494  0.00  0.00    +0.000 N 
ENDROOT
BRANCH   1   9
ATOM      6  C   UNL     1       2.195   7.629  18.849  0.00  0.00    +0.000 A 
ATOM      7  C   UNL     1       2.628   6.562  19.633  0.00  0.00    +0.000 A 
ATOM      8  C   UNL     1       3.802   5.879  19.310  0.00  0.00    +0.000 A 
ATOM      9  C   UNL     1       4.561   6.247  18.188  0.00  0.00    +0.000 A 
ATOM     10  C   UNL     1       4.114   7.323  17.404  0.00  0.00    +0.000 A 
ATOM     11  C   UNL     1       2.942   8.011  17.737  0.00  0.00    +0.000 A 
BRANCH   6  13
ATOM     12  C   UNL     1       1.073   9.541  19.677  0.00  0.00    +0.000 C 
ATOM     13  O   UNL     1       1.009   8.188  19.241  0.00  0.00    +0.000 OA
ENDBRANCH   6  13
ENDBRANCH   1   9
BRANCH   3  14
ATOM     14  C   UNL     1       6.628   4.699  14.228  0.00  0.00    +0.000 A 
ATOM     15  C   UNL     1       5.775   3.707  13.762  0.00  0.00    +0.000 A 
ATOM     16  C   UNL     1       5.903   3.301  12.437  0.00  0.00    +0.000 A 
ATOM     17  C   UNL     1       6.870   3.893  11.630  0.00  0.00    +0.000 A 
ATOM     18  C   UNL     1       7.670   4.881  12.182  0.00  0.00    +0.000 A 
ATOM     19  N   UNL     1       7.570   5.304  13.460  0.00  0.00    +0.000 NA
ENDBRANCH   3  14
BRANCH   5  20
ATOM     20  C   UNL     1       7.812   6.836  18.382  0.00  0.00    +0.000 C 
ATOM     21  S   UNL     1       8.311   8.422  18.285  0.00  0.00    +0.000 S 
BRANCH  20  22
ATOM     22  N   UNL     1       8.218   6.080  19.444  0.00  0.00    +0.000 N 
ATOM     23  H   UNL     1       7.507   5.508  19.880  0.00  0.00    +0.000 HD
ATOM     24  H   UNL     1       9.061   6.323  19.947  0.00  0.00    +0.000 HD
ENDBRANCH  20  22
ENDBRANCH   5  20
TORSDOF 5
ENDMDL
