MODEL 1
REMARK VINA RESULT:      -7.5      0.000      0.000
REMARK  Name = 
REMARK  7 active torsions:
REMARK  status: ('A' for Active; 'I' for Inactive)
REMARK    1  A    between atoms: C_1  and  N_2
REMARK    2  A    between atoms: N_2  and  C_3
REMARK    3  A    between atoms: N_2  and  C_4
REMARK    4  A    between atoms: C_4  and  C_5
REMARK    5  A    between atoms: C_5  and  C_6
REMARK    6  A    between atoms: C_7  and  C_8
REMARK    7  A    between atoms: C_8  and  C_9
REMARK                            x       y       z     vdW  Elec       q    Type
REMARK                         _______ _______ _______ _____ _____    ______ ____
ROOT
ATOM      1  C   UNL     1       2.180   5.974  20.262  0.00  0.00    +0.000 C 
ATOM      2  C   UNL     1       2.653   6.350  19.054  0.00  0.00    +0.000 C 
ATOM      3  C   UNL     1       2.200   7.726  18.818  0.00  0.00    +0.000 A 
ATOM      4  C   UNL     1       2.396   8.574  17.741  0.00  0.00    +0.000 A 
ATOM      5  C   UNL     1       1.891   9.878  17.811  0.00  0.00    +0.000 A 
ATOM      6  C   UNL     1       1.194  10.317  18.947  0.00  0.00    +0.000 A 
ATOM      7  C   UNL     1       0.975   9.454  20.021  0.00  0.00    +0.000 A 
ATOM      8  C   UNL     1       1.480   8.166  19.937  0.00  0.00    +0.000 A 
ATOM      9  C   UNL     1       1.376   7.065  20.940  0.00  0.00    +0.000 C 
ENDROOT
BRANCH   1  10
ATOM     10  C   UNL     1       2.365   4.659  20.959  0.00  0.00    +0.000 C 
BRANCH  10  11
ATOM     11  C   UNL     1       1.199   3.701  20.661  0.00  0.00    +0.000 C 
BRANCH  11  13
ATOM     12  C   UNL     1       0.933   2.427  18.643  0.00  0.00    +0.000 C 
ATOM     13  N   UNL     1       1.591   2.469  19.953  0.00  0.00    +0.000 NA
ATOM     14  C   UNL     1       3.040   2.370  19.782  0.00  0.00    +0.000 C 
ENDBRANCH  11  13
ENDBRANCH  10  11
ENDBRANCH   1  10
BRANCH   2  15
ATOM     15  C   UNL     1       3.516   5.575  18.104  0.00  0.00    +0.000 C 
BRANCH  15  16
ATOM     16  C   UNL     1       4.996   5.884  18.195  0.00  0.00    +0.000 A 
ATOM     17  C   UNL     1       5.612   6.739  17.281  0.00  0.00    +0.000 A 
ATOM     18  C   UNL     1       6.979   6.972  17.385  0.00  0.00    +0.000 A 
ATOM     19  C   UNL     1       7.697   6.355  18.405  0.00  0.00    +0.000 A 
ATOM     20  C   UNL     1       7.008   5.537  19.283  0.00  0.00    +0.000 A 
ATOM     21  N   UNL     1       5.683   5.290  19.203  0.00  0.00    +0.000 NA
ENDBRANCH  15  16
ENDBRANCH   2  15
TORSDOF 5
ENDMDL
MODEL 2
REMARK VINA RESULT:      -7.4      0.851      1.203
REMARK  Name = 
REMARK  7 active torsions:
REMARK  status: ('A' for Active; 'I' for Inactive)
REMARK    1  A    between atoms: C_1  and  N_2
REMARK    2  A    between atoms: N_2  and  C_3
REMARK    3  A    between atoms: N_2  and  C_4
REMARK    4  A    between atoms: C_4  and  C_5
REMARK    5  A    between atoms: C_5  and  C_6
REMARK    6  A    between atoms: C_7  and  C_8
REMARK    7  A    between atoms: C_8  and  C_9
REMARK                            x       y       z     vdW  Elec       q    Type
REMARK                         _______ _______ _______ _____ _____    ______ ____
ROOT
ATOM      1  C   UNL     1       2.405   5.751  20.032  0.00  0.00    +0.000 C 
ATOM      2  C   UNL     1       2.868   6.260  18.870  0.00  0.00    +0.000 C 
ATOM      3  C   UNL     1       2.331   7.621  18.746  0.00  0.00    +0.000 A 
ATOM      4  C   UNL     1       2.485   8.571  17.751  0.00  0.00    +0.000 A 
ATOM      5  C   UNL     1       1.898   9.830  17.925  0.00  0.00    +0.000 A 
ATOM      6  C   UNL     1       1.161  10.124  19.083  0.00  0.00    +0.000 A 
ATOM      7  C   UNL     1       0.986   9.158  20.074  0.00  0.00    +0.000 A 
ATOM      8  C   UNL     1       1.571   7.916  19.887  0.00  0.00    +0.000 A 
ATOM      9  C   UNL     1       1.527   6.726  20.789  0.00  0.00    +0.000 C 
ENDROOT
BRANCH   1  10
ATOM     10  C   UNL     1       2.665   4.395  20.616  0.00  0.00    +0.000 C 
BRANCH  10  11
ATOM     11  C   UNL     1       1.789   3.322  19.946  0.00  0.00    +0.000 C 
BRANCH  11  13
ATOM     12  C   UNL     1       2.350   2.232  17.881  0.00  0.00    +0.000 C 
ATOM     13  N   UNL     1       2.545   2.215  19.334  0.00  0.00    +0.000 NA
ATOM     14  C   UNL     1       3.974   2.289  19.641  0.00  0.00    +0.000 C 
ENDBRANCH  11  13
ENDBRANCH  10  11
ENDBRANCH   1  10
BRANCH   2  15
ATOM     15  C   UNL     1       3.788   5.626  17.871  0.00  0.00    +0.000 C 
BRANCH  15  16
ATOM     16  C   UNL     1       5.254   5.958  18.060  0.00  0.00    +0.000 A 
ATOM     17  C   UNL     1       6.010   5.340  19.057  0.00  0.00    +0.000 A 
ATOM     18  C   UNL     1       7.346   5.696  19.214  0.00  0.00    +0.000 A 
ATOM     19  C   UNL     1       7.897   6.652  18.368  0.00  0.00    +0.000 A 
ATOM     20  C   UNL     1       7.086   7.203  17.392  0.00  0.00    +0.000 A 
ATOM     21  N   UNL     1       5.786   6.880  17.219  0.00  0.00    +0.000 NA
ENDBRANCH  15  16
ENDBRANCH   2  15
TORSDOF 5
ENDMDL
MODEL 3
REMARK VINA RESULT:      -7.3      2.124      5.844
REMARK  Name = 
REMARK  7 active torsions:
REMARK  status: ('A' for Active; 'I' for Inactive)
REMARK    1  A    between atoms: C_1  and  N_2
REMARK    2  A    between atoms: N_2  and  C_3
REMARK    3  A    between atoms: N_2  and  C_4
REMARK    4  A    between atoms: C_4  and  C_5
REMARK    5  A    between atoms: C_5  and  C_6
REMARK    6  A    between atoms: C_7  and  C_8
REMARK    7  A    between atoms: C_8  and  C_9
REMARK                            x       y       z     vdW  Elec       q    Type
REMARK                         _______ _______ _______ _____ _____    ______ ____
ROOT
ATOM      1  C   UNL     1       3.330   6.561  17.976  0.00  0.00    +0.000 C 
ATOM      2  C   UNL     1       3.208   5.282  17.561  0.00  0.00    +0.000 C 
ATOM      3  C   UNL     1       4.423   4.951  16.808  0.00  0.00    +0.000 A 
ATOM      4  C   UNL     1       4.804   3.785  16.164  0.00  0.00    +0.000 A 
ATOM      5  C   UNL     1       6.068   3.729  15.565  0.00  0.00    +0.000 A 
ATOM      6  C   UNL     1       6.933   4.833  15.610  0.00  0.00    +0.000 A 
ATOM      7  C   UNL     1       6.539   6.016  16.238  0.00  0.00    +0.000 A 
ATOM      8  C   UNL     1       5.285   6.057  16.824  0.00  0.00    +0.000 A 
ATOM      9  C   UNL     1       4.637   7.194  17.545  0.00  0.00    +0.000 C 
ENDROOT
BRANCH   1  10
ATOM     10  C   UNL     1       2.356   7.369  18.781  0.00  0.00    +0.000 C 
BRANCH  10  11
ATOM     11  C   UNL     1       2.029   8.702  18.087  0.00  0.00    +0.000 C 
BRANCH  11  13
ATOM     12  C   UNL     1      -0.010   9.960  18.250  0.00  0.00    +0.000 C 
ATOM     13  N   UNL     1       1.259   9.647  18.915  0.00  0.00    +0.000 NA
ATOM     14  C   UNL     1       0.998   9.117  20.254  0.00  0.00    +0.000 C 
ENDBRANCH  11  13
ENDBRANCH  10  11
ENDBRANCH   1  10
BRANCH   2  15
ATOM     15  C   UNL     1       2.090   4.316  17.818  0.00  0.00    +0.000 C 
BRANCH  15  16
ATOM     16  C   UNL     1       2.127   3.653  19.180  0.00  0.00    +0.000 A 
ATOM     17  C   UNL     1       0.999   3.628  20.001  0.00  0.00    +0.000 A 
ATOM     18  C   UNL     1       1.086   3.034  21.255  0.00  0.00    +0.000 A 
ATOM     19  C   UNL     1       2.293   2.470  21.657  0.00  0.00    +0.000 A 
ATOM     20  C   UNL     1       3.359   2.518  20.775  0.00  0.00    +0.000 A 
ATOM     21  N   UNL     1       3.304   3.091  19.554  0.00  0.00    +0.000 NA
ENDBRANCH  15  16
ENDBRANCH   2  15
TORSDOF 5
ENDMDL
MODEL 4
REMARK VINA RESULT:      -7.3      2.125      4.894
REMARK  Name = 
REMARK  7 active torsions:
REMARK  status: ('A' for Active; 'I' for Inactive)
REMARK    1  A    between atoms: C_1  and  N_2
REMARK    2  A    between atoms: N_2  and  C_3
REMARK    3  A    between atoms: N_2  and  C_4
REMARK    4  A    between atoms: C_4  and  C_5
REMARK    5  A    between atoms: C_5  and  C_6
REMARK    6  A    between atoms: C_7  and  C_8
REMARK    7  A    between atoms: C_8  and  C_9
REMARK                            x       y       z     vdW  Elec       q    Type
REMARK                         _______ _______ _______ _____ _____    ______ ____
ROOT
ATOM      1  C   UNL     1       2.837   6.462  18.210  0.00  0.00    +0.000 C 
ATOM      2  C   UNL     1       3.639   5.556  17.610  0.00  0.00    +0.000 C 
ATOM      3  C   UNL     1       3.155   4.224  17.993  0.00  0.00    +0.000 A 
ATOM      4  C   UNL     1       3.619   2.960  17.666  0.00  0.00    +0.000 A 
ATOM      5  C   UNL     1       2.914   1.844  18.134  0.00  0.00    +0.000 A 
ATOM      6  C   UNL     1       1.765   2.000  18.922  0.00  0.00    +0.000 A 
ATOM      7  C   UNL     1       1.312   3.273  19.272  0.00  0.00    +0.000 A 
ATOM      8  C   UNL     1       2.020   4.368  18.804  0.00  0.00    +0.000 A 
ATOM      9  C   UNL     1       1.745   5.817  19.039  0.00  0.00    +0.000 C 
ENDROOT
BRANCH   1  10
ATOM     10  C   UNL     1       2.913   7.957  18.136  0.00  0.00    +0.000 C 
BRANCH  10  11
ATOM     11  C   UNL     1       1.533   8.573  17.850  0.00  0.00    +0.000 C 
BRANCH  11  13
ATOM     12  C   UNL     1      -0.124  10.243  18.331  0.00  0.00    +0.000 C 
ATOM     13  N   UNL     1       1.153   9.666  18.763  0.00  0.00    +0.000 NA
ATOM     14  C   UNL     1       1.045   9.211  20.149  0.00  0.00    +0.000 C 
ENDBRANCH  11  13
ENDBRANCH  10  11
ENDBRANCH   1  10
BRANCH   2  15
ATOM     15  C   UNL     1       4.795   5.796  16.686  0.00  0.00    +0.000 C 
BRANCH  15  16
ATOM     16  C   UNL     1       6.058   6.283  17.365  0.00  0.00    +0.000 A 
ATOM     17  C   UNL     1       6.644   5.558  18.403  0.00  0.00    +0.000 A 
ATOM     18  C   UNL     1       7.788   6.058  19.018  0.00  0.00    +0.000 A 
ATOM     19  C   UNL     1       8.325   7.262  18.575  0.00  0.00    +0.000 A 
ATOM     20  C   UNL     1       7.695   7.909  17.526  0.00  0.00    +0.000 A 
ATOM     21  N   UNL     1       6.583   7.450  16.914  0.00  0.00    +0.000 NA
ENDBRANCH  15  16
ENDBRANCH   2  15
TORSDOF 5
ENDMDL
MODEL 5
REMARK VINA RESULT:      -7.3      1.889      5.940
REMARK  Name = 
REMARK  7 active torsions:
REMARK  status: ('A' for Active; 'I' for Inactive)
REMARK    1  A    between atoms: C_1  and  N_2
REMARK    2  A    between atoms: N_2  and  C_3
REMARK    3  A    between atoms: N_2  and  C_4
REMARK    4  A    between atoms: C_4  and  C_5
REMARK    5  A    between atoms: C_5  and  C_6
REMARK    6  A    between atoms: C_7  and  C_8
REMARK    7  A    between atoms: C_8  and  C_9
REMARK                            x       y       z     vdW  Elec       q    Type
REMARK                         _______ _______ _______ _____ _____    ______ ____
ROOT
ATOM      1  C   UNL     1       3.841   5.715  17.761  0.00  0.00    +0.000 C 
ATOM      2  C   UNL     1       3.052   5.846  18.850  0.00  0.00    +0.000 C 
ATOM      3  C   UNL     1       2.272   4.609  18.974  0.00  0.00    +0.000 A 
ATOM      4  C   UNL     1       1.316   4.227  19.900  0.00  0.00    +0.000 A 
ATOM      5  C   UNL     1       0.768   2.942  19.810  0.00  0.00    +0.000 A 
ATOM      6  C   UNL     1       1.173   2.058  18.799  0.00  0.00    +0.000 A 
ATOM      7  C   UNL     1       2.118   2.452  17.851  0.00  0.00    +0.000 A 
ATOM      8  C   UNL     1       2.650   3.727  17.951  0.00  0.00    +0.000 A 
ATOM      9  C   UNL     1       3.662   4.380  17.067  0.00  0.00    +0.000 C 
ENDROOT
BRANCH   1  10
ATOM     10  C   UNL     1       4.823   6.703  17.206  0.00  0.00    +0.000 C 
BRANCH  10  11
ATOM     11  C   UNL     1       5.748   6.045  16.168  0.00  0.00    +0.000 C 
BRANCH  11  13
ATOM     12  C   UNL     1       7.475   7.090  17.470  0.00  0.00    +0.000 C 
ATOM     13  N   UNL     1       7.163   5.971  16.575  0.00  0.00    +0.000 NA
ATOM     14  C   UNL     1       7.478   4.705  17.238  0.00  0.00    +0.000 C 
ENDBRANCH  11  13
ENDBRANCH  10  11
ENDBRANCH   1  10
BRANCH   2  15
ATOM     15  C   UNL     1       2.969   6.991  19.813  0.00  0.00    +0.000 C 
BRANCH  15  16
ATOM     16  C   UNL     1       1.983   8.074  19.426  0.00  0.00    +0.000 A 
ATOM     17  C   UNL     1       1.849   8.487  18.100  0.00  0.00    +0.000 A 
ATOM     18  C   UNL     1       0.953   9.505  17.793  0.00  0.00    +0.000 A 
ATOM     19  C   UNL     1       0.204  10.080  18.815  0.00  0.00    +0.000 A 
ATOM     20  C   UNL     1       0.381   9.600  20.100  0.00  0.00    +0.000 A 
ATOM     21  N   UNL     1       1.246   8.616  20.428  0.00  0.00    +0.000 NA
ENDBRANCH  15  16
ENDBRANCH   2  15
TORSDOF 5
ENDMDL
MODEL 6
REMARK VINA RESULT:      -7.3      1.694      4.909
REMARK  Name = 
REMARK  7 active torsions:
REMARK  status: ('A' for Active; 'I' for Inactive)
REMARK    1  A    between atoms: C_1  and  N_2
REMARK    2  A    between atoms: N_2  and  C_3
REMARK    3  A    between atoms: N_2  and  C_4
REMARK    4  A    between atoms: C_4  and  C_5
REMARK    5  A    between atoms: C_5  and  C_6
REMARK    6  A    between atoms: C_7  and  C_8
REMARK    7  A    between atoms: C_8  and  C_9
REMARK                            x       y       z     vdW  Elec       q    Type
REMARK                         _______ _______ _______ _____ _____    ______ ____
ROOT
ATOM      1  C   UNL     1       2.842   4.280  17.813  0.00  0.00    +0.000 C 
ATOM      2  C   UNL     1       3.603   5.238  18.386  0.00  0.00    +0.000 C 
ATOM      3  C   UNL     1       4.844   5.332  17.608  0.00  0.00    +0.000 A 
ATOM      4  C   UNL     1       5.958   6.139  17.769  0.00  0.00    +0.000 A 
ATOM      5  C   UNL     1       6.989   6.057  16.826  0.00  0.00    +0.000 A 
ATOM      6  C   UNL     1       6.902   5.171  15.742  0.00  0.00    +0.000 A 
ATOM      7  C   UNL     1       5.790   4.341  15.594  0.00  0.00    +0.000 A 
ATOM      8  C   UNL     1       4.778   4.431  16.535  0.00  0.00    +0.000 A 
ATOM      9  C   UNL     1       3.503   3.656  16.601  0.00  0.00    +0.000 C 
ENDROOT
BRANCH   1  10
ATOM     10  C   UNL     1       1.483   3.805  18.232  0.00  0.00    +0.000 C 
BRANCH  10  11
ATOM     11  C   UNL     1       1.547   2.388  18.827  0.00  0.00    +0.000 C 
BRANCH  11  13
ATOM     12  C   UNL     1       3.212   2.340  20.557  0.00  0.00    +0.000 C 
ATOM     13  N   UNL     1       1.771   2.349  20.283  0.00  0.00    +0.000 NA
ATOM     14  C   UNL     1       1.145   3.482  20.965  0.00  0.00    +0.000 C 
ENDBRANCH  11  13
ENDBRANCH  10  11
ENDBRANCH   1  10
BRANCH   2  15
ATOM     15  C   UNL     1       3.285   6.104  19.568  0.00  0.00    +0.000 C 
BRANCH  15  16
ATOM     16  C   UNL     1       2.493   7.354  19.241  0.00  0.00    +0.000 A 
ATOM     17  C   UNL     1       2.520   7.911  17.962  0.00  0.00    +0.000 A 
ATOM     18  C   UNL     1       1.801   9.076  17.715  0.00  0.00    +0.000 A 
ATOM     19  C   UNL     1       1.065   9.651  18.745  0.00  0.00    +0.000 A 
ATOM     20  C   UNL     1       1.074   9.025  19.979  0.00  0.00    +0.000 A 
ATOM     21  N   UNL     1       1.765   7.897  20.250  0.00  0.00    +0.000 NA
ENDBRANCH  15  16
ENDBRANCH   2  15
TORSDOF 5
ENDMDL
MODEL 7
REMARK VINA RESULT:      -7.1      1.996      5.701
REMARK  Name = 
REMARK  7 active torsions:
REMARK  status: ('A' for Active; 'I' for Inactive)
REMARK    1  A    between atoms: C_1  and  N_2
REMARK    2  A    between atoms: N_2  and  C_3
REMARK    3  A    between atoms: N_2  and  C_4
REMARK    4  A    between atoms: C_4  and  C_5
REMARK    5  A    between atoms: C_5  and  C_6
REMARK    6  A    between atoms: C_7  and  C_8
REMARK    7  A    between atoms: C_8  and  C_9
REMARK                            x       y       z     vdW  Elec       q    Type
REMARK                         _______ _______ _______ _____ _____    ______ ____
ROOT
ATOM      1  C   UNL     1       4.950   4.832  18.933  0.00  0.00    +0.000 C 
ATOM      2  C   UNL     1       3.862   5.285  18.272  0.00  0.00    +0.000 C 
ATOM      3  C   UNL     1       2.815   4.266  18.409  0.00  0.00    +0.000 A 
ATOM      4  C   UNL     1       1.519   4.224  17.921  0.00  0.00    +0.000 A 
ATOM      5  C   UNL     1       0.707   3.136  18.262  0.00  0.00    +0.000 A 
ATOM      6  C   UNL     1       1.195   2.104  19.078  0.00  0.00    +0.000 A 
ATOM      7  C   UNL     1       2.508   2.135  19.550  0.00  0.00    +0.000 A 
ATOM      8  C   UNL     1       3.300   3.217  19.202  0.00  0.00    +0.000 A 
ATOM      9  C   UNL     1       4.724   3.478  19.573  0.00  0.00    +0.000 C 
ENDROOT
BRANCH   1  10
ATOM     10  C   UNL     1       6.282   5.503  19.090  0.00  0.00    +0.000 C 
BRANCH  10  11
ATOM     11  C   UNL     1       7.316   4.925  18.108  0.00  0.00    +0.000 C 
BRANCH  11  13
ATOM     12  C   UNL     1       6.785   5.364  15.807  0.00  0.00    +0.000 C 
ATOM     13  N   UNL     1       7.602   5.789  16.948  0.00  0.00    +0.000 NA
ATOM     14  C   UNL     1       7.350   7.200  17.239  0.00  0.00    +0.000 C 
ENDBRANCH  11  13
ENDBRANCH  10  11
ENDBRANCH   1  10
BRANCH   2  15
ATOM     15  C   UNL     1       3.679   6.586  17.551  0.00  0.00    +0.000 C 
BRANCH  15  16
ATOM     16  C   UNL     1       2.771   7.576  18.252  0.00  0.00    +0.000 A 
ATOM     17  C   UNL     1       2.376   7.381  19.576  0.00  0.00    +0.000 A 
ATOM     18  C   UNL     1       1.518   8.299  20.170  0.00  0.00    +0.000 A 
ATOM     19  C   UNL     1       1.083   9.397  19.434  0.00  0.00    +0.000 A 
ATOM     20  C   UNL     1       1.537   9.529  18.134  0.00  0.00    +0.000 A 
ATOM     21  N   UNL     1       2.366   8.651  17.530  0.00  0.00    +0.000 NA
ENDBRANCH  15  16
ENDBRANCH   2  15
TORSDOF 5
ENDMDL
MODEL 8
REMARK VINA RESULT:      -7.1      1.320      4.751
REMARK  Name = 
REMARK  7 active torsions:
REMARK  status: ('A' for Active; 'I' for Inactive)
REMARK    1  A    between atoms: C_1  and  N_2
REMARK    2  A    between atoms: N_2  and  C_3
REMARK    3  A    between atoms: N_2  and  C_4
REMARK    4  A    between atoms: C_4  and  C_5
REMARK    5  A    between atoms: C_5  and  C_6
REMARK    6  A    between atoms: C_7  and  C_8
REMARK    7  A    between atoms: C_8  and  C_9
REMARK                            x       y       z     vdW  Elec       q    Type
REMARK                         _______ _______ _______ _____ _____    ______ ____
ROOT
ATOM      1  C   UNL     1       3.407   6.715  18.005  0.00  0.00    +0.000 C 
ATOM      2  C   UNL     1       2.952   6.489  19.257  0.00  0.00    +0.000 C 
ATOM      3  C   UNL     1       2.107   7.631  19.625  0.00  0.00    +0.000 A 
ATOM      4  C   UNL     1       1.410   7.907  20.790  0.00  0.00    +0.000 A 
ATOM      5  C   UNL     1       0.623   9.063  20.845  0.00  0.00    +0.000 A 
ATOM      6  C   UNL     1       0.545   9.932  19.746  0.00  0.00    +0.000 A 
ATOM      7  C   UNL     1       1.268   9.666  18.582  0.00  0.00    +0.000 A 
ATOM      8  C   UNL     1       2.043   8.519  18.542  0.00  0.00    +0.000 A 
ATOM      9  C   UNL     1       2.902   8.021  17.426  0.00  0.00    +0.000 C 
ENDROOT
BRANCH   1  10
ATOM     10  C   UNL     1       4.307   5.847  17.177  0.00  0.00    +0.000 C 
BRANCH  10  11
ATOM     11  C   UNL     1       5.227   6.693  16.281  0.00  0.00    +0.000 C 
BRANCH  11  13
ATOM     12  C   UNL     1       7.246   7.100  17.516  0.00  0.00    +0.000 C 
ATOM     13  N   UNL     1       6.659   6.362  16.393  0.00  0.00    +0.000 NA
ATOM     14  C   UNL     1       6.878   4.927  16.576  0.00  0.00    +0.000 C 
ENDBRANCH  11  13
ENDBRANCH  10  11
ENDBRANCH   1  10
BRANCH   2  15
ATOM     15  C   UNL     1       3.192   5.302  20.140  0.00  0.00    +0.000 C 
BRANCH  15  16
ATOM     16  C   UNL     1       2.592   4.005  19.635  0.00  0.00    +0.000 A 
ATOM     17  C   UNL     1       1.210   3.824  19.577  0.00  0.00    +0.000 A 
ATOM     18  C   UNL     1       0.703   2.607  19.135  0.00  0.00    +0.000 A 
ATOM     19  C   UNL     1       1.587   1.604  18.751  0.00  0.00    +0.000 A 
ATOM     20  C   UNL     1       2.943   1.870  18.819  0.00  0.00    +0.000 A 
ATOM     21  N   UNL     1       3.463   3.040  19.248  0.00  0.00    +0.000 NA
ENDBRANCH  15  16
ENDBRANCH   2  15
TORSDOF 5
ENDMDL
MODEL 9
REMARK VINA RESULT:      -7.0      2.106      5.949
REMARK  Name = 
REMARK  7 active torsions:
REMARK  status: ('A' for Active; 'I' for Inactive)
REMARK    1  A    between atoms: C_1  and  N_2
REMARK    2  A    between atoms: N_2  and  C_3
REMARK    3  A    between atoms: N_2  and  C_4
REMARK    4  A    between atoms: C_4  and  C_5
REMARK    5  A    between atoms: C_5  and  C_6
REMARK    6  A    between atoms: C_7  and  C_8
REMARK    7  A    between atoms: C_8  and  C_9
REMARK                            x       y       z     vdW  Elec       q    Type
REMARK                         _______ _______ _______ _____ _____    ______ ____
ROOT
ATOM      1  C   UNL     1       3.377   6.642  17.923  0.00  0.00    +0.000 C 
ATOM      2  C   UNL     1       3.241   5.352  17.545  0.00  0.00    +0.000 C 
ATOM      3  C   UNL     1       4.452   4.988  16.799  0.00  0.00    +0.000 A 
ATOM      4  C   UNL     1       4.819   3.800  16.188  0.00  0.00    +0.000 A 
ATOM      5  C   UNL     1       6.082   3.715  15.589  0.00  0.00    +0.000 A 
ATOM      6  C   UNL     1       6.957   4.811  15.600  0.00  0.00    +0.000 A 
ATOM      7  C   UNL     1       6.577   6.015  16.195  0.00  0.00    +0.000 A 
ATOM      8  C   UNL     1       5.324   6.085  16.782  0.00  0.00    +0.000 A 
ATOM      9  C   UNL     1       4.689   7.249  17.471  0.00  0.00    +0.000 C 
ENDROOT
BRANCH   1  10
ATOM     10  C   UNL     1       2.413   7.482  18.706  0.00  0.00    +0.000 C 
BRANCH  10  11
ATOM     11  C   UNL     1       2.143   8.823  18.003  0.00  0.00    +0.000 C 
BRANCH  11  13
ATOM     12  C   UNL     1       0.974   9.245  20.058  0.00  0.00    +0.000 C 
ATOM     13  N   UNL     1       1.122   9.660  18.659  0.00  0.00    +0.000 NA
ATOM     14  C   UNL     1       1.456  11.083  18.598  0.00  0.00    +0.000 C 
ENDBRANCH  11  13
ENDBRANCH  10  11
ENDBRANCH   1  10
BRANCH   2  15
ATOM     15  C   UNL     1       2.115   4.406  17.832  0.00  0.00    +0.000 C 
BRANCH  15  16
ATOM     16  C   UNL     1       2.178   3.740  19.191  0.00  0.00    +0.000 A 
ATOM     17  C   UNL     1       3.359   3.159  19.655  0.00  0.00    +0.000 A 
ATOM     18  C   UNL     1       3.364   2.533  20.897  0.00  0.00    +0.000 A 
ATOM     19  C   UNL     1       2.195   2.510  21.651  0.00  0.00    +0.000 A 
ATOM     20  C   UNL     1       1.072   3.127  21.128  0.00  0.00    +0.000 A 
ATOM     21  N   UNL     1       1.037   3.738  19.925  0.00  0.00    +0.000 NA
ENDBRANCH  15  16
ENDBRANCH   2  15
TORSDOF 5
ENDMDL
