MODEL 1
REMARK VINA RESULT:      -7.2      0.000      0.000
REMARK  Name = 
REMARK  8 active torsions:
REMARK  status: ('A' for Active; 'I' for Inactive)
REMARK    1  A    between atoms: C_1  and  C_2
REMARK    2  A    between atoms: C_2  and  C_3
REMARK    3  A    between atoms: C_2  and  C_4
REMARK    4  A    between atoms: C_2  and  C_5
REMARK    5  A    between atoms: C_7  and  C_8
REMARK    6  A    between atoms: C_8  and  O_10
REMARK    7  A    between atoms: N_11  and  C_12
REMARK    8  A    between atoms: C_12  and  C_13
REMARK                            x       y       z     vdW  Elec       q    Type
REMARK                         _______ _______ _______ _____ _____    ______ ____
ROOT
ATOM      1  C   UNL     1       5.441   5.103  18.254  0.00  0.00    +0.000 A 
ATOM      2  C   UNL     1       4.632   4.321  17.392  0.00  0.00    +0.000 A 
ATOM      3  C   UNL     1       3.414   4.171  18.034  0.00  0.00    +0.000 A 
ATOM      4  N   UNL     1       3.542   4.895  19.198  0.00  0.00    +0.000 N 
ATOM      5  N   UNL     1       4.744   5.490  19.328  0.00  0.00    +0.000 NA
ENDROOT
BRANCH   1   7
ATOM      6  C   UNL     1       6.939   6.904  17.370  0.00  0.00    +0.000 C 
ATOM      7  C   UNL     1       6.888   5.535  18.075  0.00  0.00    +0.000 C 
ATOM      8  C   UNL     1       7.671   4.513  17.222  0.00  0.00    +0.000 C 
ATOM      9  C   UNL     1       7.613   5.650  19.434  0.00  0.00    +0.000 C 
ENDBRANCH   1   7
BRANCH   3  10
ATOM     10  C   UNL     1       2.233   3.437  17.666  0.00  0.00    +0.000 C 
ATOM     11  O   UNL     1       1.172   3.930  17.316  0.00  0.00    +0.000 OA
BRANCH  10  12
ATOM     12  O   UNL     1       2.425   2.098  17.722  0.00  0.00    +0.000 OA
ATOM     13  H   UNL     1       3.328   1.845  17.983  0.00  0.00    +0.000 HD
ENDBRANCH  10  12
ENDBRANCH   3  10
BRANCH   4  14
ATOM     14  C   UNL     1       2.522   5.152  20.218  0.00  0.00    +0.000 C 
BRANCH  14  15
ATOM     15  C   UNL     1       1.971   6.562  20.182  0.00  0.00    +0.000 A 
ATOM     16  C   UNL     1       2.194   7.353  19.044  0.00  0.00    +0.000 A 
ATOM     17  C   UNL     1       1.757   8.678  19.009  0.00  0.00    +0.000 A 
ATOM     18 CL   UNL     1       2.061   9.636  17.610  0.00  0.00    +0.000 Cl
ATOM     19  C   UNL     1       1.094   9.238  20.095  0.00  0.00    +0.000 A 
ATOM     20  C   UNL     1       0.832   8.448  21.209  0.00  0.00    +0.000 A 
ATOM     21 CL   UNL     1       0.028   9.126  22.570  0.00  0.00    +0.000 Cl
ATOM     22  C   UNL     1       1.237   7.113  21.247  0.00  0.00    +0.000 A 
ENDBRANCH  14  15
ENDBRANCH   4  14
TORSDOF 5
ENDMDL
MODEL 2
REMARK VINA RESULT:      -7.2      0.196      2.298
REMARK  Name = 
REMARK  8 active torsions:
REMARK  status: ('A' for Active; 'I' for Inactive)
REMARK    1  A    between atoms: C_1  and  C_2
REMARK    2  A    between atoms: C_2  and  C_3
REMARK    3  A    between atoms: C_2  and  C_4
REMARK    4  A    between atoms: C_2  and  C_5
REMARK    5  A    between atoms: C_7  and  C_8
REMARK    6  A    between atoms: C_8  and  O_10
REMARK    7  A    between atoms: N_11  and  C_12
REMARK    8  A    between atoms: C_12  and  C_13
REMARK                            x       y       z     vdW  Elec       q    Type
REMARK                         _______ _______ _______ _____ _____    ______ ____
ROOT
ATOM      1  C   UNL     1       5.384   5.170  18.185  0.00  0.00    +0.000 A 
ATOM      2  C   UNL     1       4.572   4.321  17.392  0.00  0.00    +0.000 A 
ATOM      3  C   UNL     1       3.372   4.189  18.070  0.00  0.00    +0.000 A 
ATOM      4  N   UNL     1       3.511   4.987  19.183  0.00  0.00    +0.000 N 
ATOM      5  N   UNL     1       4.704   5.611  19.249  0.00  0.00    +0.000 NA
ENDROOT
BRANCH   1   7
ATOM      6  C   UNL     1       7.570   5.691  19.290  0.00  0.00    +0.000 C 
ATOM      7  C   UNL     1       6.819   5.616  17.946  0.00  0.00    +0.000 C 
ATOM      8  C   UNL     1       6.865   7.006  17.278  0.00  0.00    +0.000 C 
ATOM      9  C   UNL     1       7.565   4.633  17.016  0.00  0.00    +0.000 C 
ENDBRANCH   1   7
BRANCH   3  10
ATOM     10  C   UNL     1       2.198   3.412  17.775  0.00  0.00    +0.000 C 
ATOM     11  O   UNL     1       2.074   2.213  17.969  0.00  0.00    +0.000 OA
BRANCH  10  12
ATOM     12  O   UNL     1       1.197   4.169  17.267  0.00  0.00    +0.000 OA
ATOM     13  H   UNL     1       1.269   5.113  17.496  0.00  0.00    +0.000 HD
ENDBRANCH  10  12
ENDBRANCH   3  10
BRANCH   4  14
ATOM     14  C   UNL     1       2.508   5.289  20.208  0.00  0.00    +0.000 C 
BRANCH  14  15
ATOM     15  C   UNL     1       2.004   6.716  20.161  0.00  0.00    +0.000 A 
ATOM     16  C   UNL     1       1.241   7.206  21.233  0.00  0.00    +0.000 A 
ATOM     17  C   UNL     1       0.706   8.494  21.188  0.00  0.00    +0.000 A 
ATOM     18 CL   UNL     1      -0.246   9.066  22.505  0.00  0.00    +0.000 Cl
ATOM     19  C   UNL     1       0.919   9.315  20.086  0.00  0.00    +0.000 A 
ATOM     20  C   UNL     1       1.710   8.852  19.039  0.00  0.00    +0.000 A 
ATOM     21 CL   UNL     1       1.971   9.845  17.659  0.00  0.00    +0.000 Cl
ATOM     22  C   UNL     1       2.275   7.577  19.084  0.00  0.00    +0.000 A 
ENDBRANCH  14  15
ENDBRANCH   4  14
TORSDOF 5
ENDMDL
MODEL 3
REMARK VINA RESULT:      -7.2      0.175      1.177
REMARK  Name = 
REMARK  8 active torsions:
REMARK  status: ('A' for Active; 'I' for Inactive)
REMARK    1  A    between atoms: C_1  and  C_2
REMARK    2  A    between atoms: C_2  and  C_3
REMARK    3  A    between atoms: C_2  and  C_4
REMARK    4  A    between atoms: C_2  and  C_5
REMARK    5  A    between atoms: C_7  and  C_8
REMARK    6  A    between atoms: C_8  and  O_10
REMARK    7  A    between atoms: N_11  and  C_12
REMARK    8  A    between atoms: C_12  and  C_13
REMARK                            x       y       z     vdW  Elec       q    Type
REMARK                         _______ _______ _______ _____ _____    ______ ____
ROOT
ATOM      1  C   UNL     1       5.406   5.138  18.301  0.00  0.00    +0.000 A 
ATOM      2  C   UNL     1       4.569   4.351  17.471  0.00  0.00    +0.000 A 
ATOM      3  C   UNL     1       3.369   4.216  18.149  0.00  0.00    +0.000 A 
ATOM      4  N   UNL     1       3.535   4.952  19.301  0.00  0.00    +0.000 N 
ATOM      5  N   UNL     1       4.744   5.540  19.390  0.00  0.00    +0.000 NA
ENDROOT
BRANCH   1   7
ATOM      6  C   UNL     1       7.570   5.694  19.432  0.00  0.00    +0.000 C 
ATOM      7  C   UNL     1       6.851   5.558  18.075  0.00  0.00    +0.000 C 
ATOM      8  C   UNL     1       6.928   6.912  17.340  0.00  0.00    +0.000 C 
ATOM      9  C   UNL     1       7.610   4.523  17.215  0.00  0.00    +0.000 C 
ENDBRANCH   1   7
BRANCH   3  10
ATOM     10  C   UNL     1       2.173   3.486  17.823  0.00  0.00    +0.000 C 
ATOM     11  O   UNL     1       1.994   2.294  18.021  0.00  0.00    +0.000 OA
BRANCH  10  12
ATOM     12  O   UNL     1       1.221   4.280  17.279  0.00  0.00    +0.000 OA
ATOM     13  H   UNL     1       0.314   3.959  17.429  0.00  0.00    +0.000 HD
ENDBRANCH  10  12
ENDBRANCH   3  10
BRANCH   4  14
ATOM     14  C   UNL     1       2.546   5.226  20.347  0.00  0.00    +0.000 C 
BRANCH  14  15
ATOM     15  C   UNL     1       1.953   6.618  20.270  0.00  0.00    +0.000 A 
ATOM     16  C   UNL     1       2.176   7.392  19.120  0.00  0.00    +0.000 A 
ATOM     17  C   UNL     1       1.700   8.702  19.048  0.00  0.00    +0.000 A 
ATOM     18 CL   UNL     1       2.005   9.641  17.636  0.00  0.00    +0.000 Cl
ATOM     19  C   UNL     1       0.997   9.263  20.108  0.00  0.00    +0.000 A 
ATOM     20  C   UNL     1       0.735   8.488  21.233  0.00  0.00    +0.000 A 
ATOM     21 CL   UNL     1      -0.119   9.168  22.562  0.00  0.00    +0.000 Cl
ATOM     22  C   UNL     1       1.180   7.167  21.307  0.00  0.00    +0.000 A 
ENDBRANCH  14  15
ENDBRANCH   4  14
TORSDOF 5
ENDMDL
MODEL 4
REMARK VINA RESULT:      -7.1      0.285      1.985
REMARK  Name = 
REMARK  8 active torsions:
REMARK  status: ('A' for Active; 'I' for Inactive)
REMARK    1  A    between atoms: C_1  and  C_2
REMARK    2  A    between atoms: C_2  and  C_3
REMARK    3  A    between atoms: C_2  and  C_4
REMARK    4  A    between atoms: C_2  and  C_5
REMARK    5  A    between atoms: C_7  and  C_8
REMARK    6  A    between atoms: C_8  and  O_10
REMARK    7  A    between atoms: N_11  and  C_12
REMARK    8  A    between atoms: C_12  and  C_13
REMARK                            x       y       z     vdW  Elec       q    Type
REMARK                         _______ _______ _______ _____ _____    ______ ____
ROOT
ATOM      1  C   UNL     1       5.369   5.087  17.983  0.00  0.00    +0.000 A 
ATOM      2  C   UNL     1       4.513   4.257  17.217  0.00  0.00    +0.000 A 
ATOM      3  C   UNL     1       3.341   4.134  17.944  0.00  0.00    +0.000 A 
ATOM      4  N   UNL     1       3.538   4.919  19.058  0.00  0.00    +0.000 N 
ATOM      5  N   UNL     1       4.741   5.525  19.079  0.00  0.00    +0.000 NA
ENDROOT
BRANCH   1   7
ATOM      6  C   UNL     1       6.827   7.011  17.320  0.00  0.00    +0.000 C 
ATOM      7  C   UNL     1       6.799   5.515  17.688  0.00  0.00    +0.000 C 
ATOM      8  C   UNL     1       7.389   4.708  16.511  0.00  0.00    +0.000 C 
ATOM      9  C   UNL     1       7.718   5.288  18.908  0.00  0.00    +0.000 C 
ENDBRANCH   1   7
BRANCH   3  10
ATOM     10  C   UNL     1       2.145   3.376  17.692  0.00  0.00    +0.000 C 
ATOM     11  O   UNL     1       1.045   3.847  17.444  0.00  0.00    +0.000 OA
BRANCH  10  12
ATOM     12  O   UNL     1       2.367   2.041  17.733  0.00  0.00    +0.000 OA
ATOM     13  H   UNL     1       2.186   1.643  18.603  0.00  0.00    +0.000 HD
ENDBRANCH  10  12
ENDBRANCH   3  10
BRANCH   4  14
ATOM     14  C   UNL     1       2.584   5.223  20.128  0.00  0.00    +0.000 C 
BRANCH  14  15
ATOM     15  C   UNL     1       2.074   6.649  20.097  0.00  0.00    +0.000 A 
ATOM     16  C   UNL     1       1.348   7.137  21.195  0.00  0.00    +0.000 A 
ATOM     17  C   UNL     1       0.807   8.423  21.168  0.00  0.00    +0.000 A 
ATOM     18 CL   UNL     1      -0.098   8.994  22.517  0.00  0.00    +0.000 Cl
ATOM     19  C   UNL     1       0.977   9.243  20.058  0.00  0.00    +0.000 A 
ATOM     20  C   UNL     1       1.731   8.781  18.984  0.00  0.00    +0.000 A 
ATOM     21 CL   UNL     1       1.939   9.773  17.594  0.00  0.00    +0.000 Cl
ATOM     22  C   UNL     1       2.302   7.508  19.010  0.00  0.00    +0.000 A 
ENDBRANCH  14  15
ENDBRANCH   4  14
TORSDOF 5
ENDMDL
MODEL 5
REMARK VINA RESULT:      -7.0      3.547      5.944
REMARK  Name = 
REMARK  8 active torsions:
REMARK  status: ('A' for Active; 'I' for Inactive)
REMARK    1  A    between atoms: C_1  and  C_2
REMARK    2  A    between atoms: C_2  and  C_3
REMARK    3  A    between atoms: C_2  and  C_4
REMARK    4  A    between atoms: C_2  and  C_5
REMARK    5  A    between atoms: C_7  and  C_8
REMARK    6  A    between atoms: C_8  and  O_10
REMARK    7  A    between atoms: N_11  and  C_12
REMARK    8  A    between atoms: C_12  and  C_13
REMARK                            x       y       z     vdW  Elec       q    Type
REMARK                         _______ _______ _______ _____ _____    ______ ____
ROOT
ATOM      1  C   UNL     1       2.021   4.322  19.735  0.00  0.00    +0.000 A 
ATOM      2  C   UNL     1       1.469   5.409  20.458  0.00  0.00    +0.000 A 
ATOM      3  C   UNL     1       1.979   6.559  19.879  0.00  0.00    +0.000 A 
ATOM      4  N   UNL     1       2.754   6.108  18.835  0.00  0.00    +0.000 N 
ATOM      5  N   UNL     1       2.763   4.766  18.714  0.00  0.00    +0.000 NA
ENDROOT
BRANCH   1   7
ATOM      6  C   UNL     1       1.499   2.574  21.449  0.00  0.00    +0.000 C 
ATOM      7  C   UNL     1       1.841   2.830  19.968  0.00  0.00    +0.000 C 
ATOM      8  C   UNL     1       3.129   2.054  19.619  0.00  0.00    +0.000 C 
ATOM      9  C   UNL     1       0.706   2.256  19.091  0.00  0.00    +0.000 C 
ENDBRANCH   1   7
BRANCH   3  10
ATOM     10  C   UNL     1       1.814   7.946  20.223  0.00  0.00    +0.000 C 
ATOM     11  O   UNL     1       1.605   8.853  19.432  0.00  0.00    +0.000 OA
BRANCH  10  12
ATOM     12  O   UNL     1       1.890   8.155  21.558  0.00  0.00    +0.000 OA
ATOM     13  H   UNL     1       1.022   8.186  21.998  0.00  0.00    +0.000 HD
ENDBRANCH  10  12
ENDBRANCH   3  10
BRANCH   4  14
ATOM     14  C   UNL     1       3.464   6.904  17.829  0.00  0.00    +0.000 C 
BRANCH  14  15
ATOM     15  C   UNL     1       4.825   6.346  17.466  0.00  0.00    +0.000 A 
ATOM     16  C   UNL     1       5.048   5.890  16.157  0.00  0.00    +0.000 A 
ATOM     17  C   UNL     1       6.268   5.310  15.811  0.00  0.00    +0.000 A 
ATOM     18 CL   UNL     1       6.513   4.737  14.204  0.00  0.00    +0.000 Cl
ATOM     19  C   UNL     1       7.284   5.173  16.750  0.00  0.00    +0.000 A 
ATOM     20  C   UNL     1       7.085   5.661  18.038  0.00  0.00    +0.000 A 
ATOM     21 CL   UNL     1       8.322   5.486  19.220  0.00  0.00    +0.000 Cl
ATOM     22  C   UNL     1       5.880   6.270  18.390  0.00  0.00    +0.000 A 
ENDBRANCH  14  15
ENDBRANCH   4  14
TORSDOF 5
ENDMDL
MODEL 6
REMARK VINA RESULT:      -7.0      3.540      6.167
REMARK  Name = 
REMARK  8 active torsions:
REMARK  status: ('A' for Active; 'I' for Inactive)
REMARK    1  A    between atoms: C_1  and  C_2
REMARK    2  A    between atoms: C_2  and  C_3
REMARK    3  A    between atoms: C_2  and  C_4
REMARK    4  A    between atoms: C_2  and  C_5
REMARK    5  A    between atoms: C_7  and  C_8
REMARK    6  A    between atoms: C_8  and  O_10
REMARK    7  A    between atoms: N_11  and  C_12
REMARK    8  A    between atoms: C_12  and  C_13
REMARK                            x       y       z     vdW  Elec       q    Type
REMARK                         _______ _______ _______ _____ _____    ______ ____
ROOT
ATOM      1  C   UNL     1       1.988   4.362  19.774  0.00  0.00    +0.000 A 
ATOM      2  C   UNL     1       1.433   5.464  20.472  0.00  0.00    +0.000 A 
ATOM      3  C   UNL     1       1.960   6.600  19.882  0.00  0.00    +0.000 A 
ATOM      4  N   UNL     1       2.747   6.128  18.857  0.00  0.00    +0.000 N 
ATOM      5  N   UNL     1       2.748   4.784  18.757  0.00  0.00    +0.000 NA
ENDROOT
BRANCH   1   7
ATOM      6  C   UNL     1       3.098   2.119  19.704  0.00  0.00    +0.000 C 
ATOM      7  C   UNL     1       1.795   2.874  20.028  0.00  0.00    +0.000 C 
ATOM      8  C   UNL     1       0.663   2.303  19.148  0.00  0.00    +0.000 C 
ATOM      9  C   UNL     1       1.416   2.600  21.500  0.00  0.00    +0.000 C 
ENDBRANCH   1   7
BRANCH   3  10
ATOM     10  C   UNL     1       1.800   7.994  20.202  0.00  0.00    +0.000 C 
ATOM     11  O   UNL     1       1.559   8.882  19.400  0.00  0.00    +0.000 OA
BRANCH  10  12
ATOM     12  O   UNL     1       1.921   8.232  21.529  0.00  0.00    +0.000 OA
ATOM     13  H   UNL     1       1.835   7.432  22.077  0.00  0.00    +0.000 HD
ENDBRANCH  10  12
ENDBRANCH   3  10
BRANCH   4  14
ATOM     14  C   UNL     1       3.478   6.903  17.849  0.00  0.00    +0.000 C 
BRANCH  14  15
ATOM     15  C   UNL     1       4.803   6.285  17.454  0.00  0.00    +0.000 A 
ATOM     16  C   UNL     1       5.813   6.161  18.422  0.00  0.00    +0.000 A 
ATOM     17  C   UNL     1       7.067   5.658  18.072  0.00  0.00    +0.000 A 
ATOM     18 CL   UNL     1       8.298   5.535  19.271  0.00  0.00    +0.000 Cl
ATOM     19  C   UNL     1       7.339   5.271  16.765  0.00  0.00    +0.000 A 
ATOM     20  C   UNL     1       6.331   5.352  15.811  0.00  0.00    +0.000 A 
ATOM     21 CL   UNL     1       6.652   4.894  14.184  0.00  0.00    +0.000 Cl
ATOM     22  C   UNL     1       5.063   5.825  16.153  0.00  0.00    +0.000 A 
ENDBRANCH  14  15
ENDBRANCH   4  14
TORSDOF 5
ENDMDL
MODEL 7
REMARK VINA RESULT:      -6.9      3.457      5.807
REMARK  Name = 
REMARK  8 active torsions:
REMARK  status: ('A' for Active; 'I' for Inactive)
REMARK    1  A    between atoms: C_1  and  C_2
REMARK    2  A    between atoms: C_2  and  C_3
REMARK    3  A    between atoms: C_2  and  C_4
REMARK    4  A    between atoms: C_2  and  C_5
REMARK    5  A    between atoms: C_7  and  C_8
REMARK    6  A    between atoms: C_8  and  O_10
REMARK    7  A    between atoms: N_11  and  C_12
REMARK    8  A    between atoms: C_12  and  C_13
REMARK                            x       y       z     vdW  Elec       q    Type
REMARK                         _______ _______ _______ _____ _____    ______ ____
ROOT
ATOM      1  C   UNL     1       2.302   4.338  19.953  0.00  0.00    +0.000 A 
ATOM      2  C   UNL     1       1.760   5.436  20.668  0.00  0.00    +0.000 A 
ATOM      3  C   UNL     1       2.051   6.566  19.921  0.00  0.00    +0.000 A 
ATOM      4  N   UNL     1       2.696   6.087  18.802  0.00  0.00    +0.000 N 
ATOM      5  N   UNL     1       2.824   4.746  18.791  0.00  0.00    +0.000 NA
ENDROOT
BRANCH   1   7
ATOM      6  C   UNL     1       3.773   2.377  20.462  0.00  0.00    +0.000 C 
ATOM      7  C   UNL     1       2.317   2.865  20.333  0.00  0.00    +0.000 C 
ATOM      8  C   UNL     1       1.603   2.009  19.265  0.00  0.00    +0.000 C 
ATOM      9  C   UNL     1       1.593   2.624  21.676  0.00  0.00    +0.000 C 
ENDBRANCH   1   7
BRANCH   3  10
ATOM     10  C   UNL     1       1.800   7.959  20.174  0.00  0.00    +0.000 C 
ATOM     11  O   UNL     1       1.532   8.797  19.327  0.00  0.00    +0.000 OA
BRANCH  10  12
ATOM     12  O   UNL     1       1.866   8.260  21.492  0.00  0.00    +0.000 OA
ATOM     13  H   UNL     1       1.470   7.581  22.067  0.00  0.00    +0.000 HD
ENDBRANCH  10  12
ENDBRANCH   3  10
BRANCH   4  14
ATOM     14  C   UNL     1       3.153   6.842  17.632  0.00  0.00    +0.000 C 
BRANCH  14  15
ATOM     15  C   UNL     1       4.588   6.551  17.247  0.00  0.00    +0.000 A 
ATOM     16  C   UNL     1       4.848   5.581  16.265  0.00  0.00    +0.000 A 
ATOM     17  C   UNL     1       6.162   5.244  15.937  0.00  0.00    +0.000 A 
ATOM     18 CL   UNL     1       6.457   4.036  14.745  0.00  0.00    +0.000 Cl
ATOM     19  C   UNL     1       7.235   5.859  16.572  0.00  0.00    +0.000 A 
ATOM     20  C   UNL     1       6.985   6.850  17.516  0.00  0.00    +0.000 A 
ATOM     21 CL   UNL     1       8.298   7.612  18.326  0.00  0.00    +0.000 Cl
ATOM     22  C   UNL     1       5.677   7.219  17.832  0.00  0.00    +0.000 A 
ENDBRANCH  14  15
ENDBRANCH   4  14
TORSDOF 5
ENDMDL
MODEL 8
REMARK VINA RESULT:      -6.8      3.472      5.979
REMARK  Name = 
REMARK  8 active torsions:
REMARK  status: ('A' for Active; 'I' for Inactive)
REMARK    1  A    between atoms: C_1  and  C_2
REMARK    2  A    between atoms: C_2  and  C_3
REMARK    3  A    between atoms: C_2  and  C_4
REMARK    4  A    between atoms: C_2  and  C_5
REMARK    5  A    between atoms: C_7  and  C_8
REMARK    6  A    between atoms: C_8  and  O_10
REMARK    7  A    between atoms: N_11  and  C_12
REMARK    8  A    between atoms: C_12  and  C_13
REMARK                            x       y       z     vdW  Elec       q    Type
REMARK                         _______ _______ _______ _____ _____    ______ ____
ROOT
ATOM      1  C   UNL     1       2.222   4.384  19.937  0.00  0.00    +0.000 A 
ATOM      2  C   UNL     1       1.678   5.469  20.670  0.00  0.00    +0.000 A 
ATOM      3  C   UNL     1       2.002   6.615  19.963  0.00  0.00    +0.000 A 
ATOM      4  N   UNL     1       2.667   6.159  18.847  0.00  0.00    +0.000 N 
ATOM      5  N   UNL     1       2.777   4.817  18.800  0.00  0.00    +0.000 NA
ENDROOT
BRANCH   1   7
ATOM      6  C   UNL     1       1.536   2.688  21.646  0.00  0.00    +0.000 C 
ATOM      7  C   UNL     1       2.207   2.901  20.276  0.00  0.00    +0.000 C 
ATOM      8  C   UNL     1       3.640   2.331  20.335  0.00  0.00    +0.000 C 
ATOM      9  C   UNL     1       1.432   2.090  19.214  0.00  0.00    +0.000 C 
ENDBRANCH   1   7
BRANCH   3  10
ATOM     10  C   UNL     1       1.764   8.004  20.249  0.00  0.00    +0.000 C 
ATOM     11  O   UNL     1       1.429   8.849  19.433  0.00  0.00    +0.000 OA
BRANCH  10  12
ATOM     12  O   UNL     1       1.928   8.292  21.562  0.00  0.00    +0.000 OA
ATOM     13  H   UNL     1       2.045   7.503  22.121  0.00  0.00    +0.000 HD
ENDBRANCH  10  12
ENDBRANCH   3  10
BRANCH   4  14
ATOM     14  C   UNL     1       3.163   6.940  17.710  0.00  0.00    +0.000 C 
BRANCH  14  15
ATOM     15  C   UNL     1       4.572   6.572  17.291  0.00  0.00    +0.000 A 
ATOM     16  C   UNL     1       5.655   7.250  17.872  0.00  0.00    +0.000 A 
ATOM     17  C   UNL     1       6.960   6.980  17.458  0.00  0.00    +0.000 A 
ATOM     18 CL   UNL     1       8.273   7.840  18.169  0.00  0.00    +0.000 Cl
ATOM     19  C   UNL     1       7.212   6.038  16.467  0.00  0.00    +0.000 A 
ATOM     20  C   UNL     1       6.147   5.333  15.917  0.00  0.00    +0.000 A 
ATOM     21 CL   UNL     1       6.436   4.175  14.677  0.00  0.00    +0.000 Cl
ATOM     22  C   UNL     1       4.839   5.571  16.342  0.00  0.00    +0.000 A 
ENDBRANCH  14  15
ENDBRANCH   4  14
TORSDOF 5
ENDMDL
MODEL 9
REMARK VINA RESULT:      -6.7      2.605      3.994
REMARK  Name = 
REMARK  8 active torsions:
REMARK  status: ('A' for Active; 'I' for Inactive)
REMARK    1  A    between atoms: C_1  and  C_2
REMARK    2  A    between atoms: C_2  and  C_3
REMARK    3  A    between atoms: C_2  and  C_4
REMARK    4  A    between atoms: C_2  and  C_5
REMARK    5  A    between atoms: C_7  and  C_8
REMARK    6  A    between atoms: C_8  and  O_10
REMARK    7  A    between atoms: N_11  and  C_12
REMARK    8  A    between atoms: C_12  and  C_13
REMARK                            x       y       z     vdW  Elec       q    Type
REMARK                         _______ _______ _______ _____ _____    ______ ____
ROOT
ATOM      1  C   UNL     1       2.768   4.888  18.706  0.00  0.00    +0.000 A 
ATOM      2  C   UNL     1       3.994   4.829  17.996  0.00  0.00    +0.000 A 
ATOM      3  C   UNL     1       4.193   6.090  17.461  0.00  0.00    +0.000 A 
ATOM      4  N   UNL     1       3.123   6.832  17.910  0.00  0.00    +0.000 N 
ATOM      5  N   UNL     1       2.275   6.131  18.688  0.00  0.00    +0.000 NA
ENDROOT
BRANCH   1   7
ATOM      6  C   UNL     1       1.155   4.387  20.553  0.00  0.00    +0.000 C 
ATOM      7  C   UNL     1       2.040   3.778  19.448  0.00  0.00    +0.000 C 
ATOM      8  C   UNL     1       3.039   2.799  20.102  0.00  0.00    +0.000 C 
ATOM      9  C   UNL     1       1.146   2.956  18.494  0.00  0.00    +0.000 C 
ENDBRANCH   1   7
BRANCH   3  10
ATOM     10  C   UNL     1       5.232   6.605  16.609  0.00  0.00    +0.000 C 
ATOM     11  O   UNL     1       5.188   6.657  15.390  0.00  0.00    +0.000 OA
BRANCH  10  12
ATOM     12  O   UNL     1       6.291   7.066  17.315  0.00  0.00    +0.000 OA
ATOM     13  H   UNL     1       6.182   7.982  17.626  0.00  0.00    +0.000 HD
ENDBRANCH  10  12
ENDBRANCH   3  10
BRANCH   4  14
ATOM     14  C   UNL     1       2.872   8.262  17.715  0.00  0.00    +0.000 C 
BRANCH  14  15
ATOM     15  C   UNL     1       1.748   8.802  18.575  0.00  0.00    +0.000 A 
ATOM     16  C   UNL     1       0.704   9.516  17.965  0.00  0.00    +0.000 A 
ATOM     17  C   UNL     1      -0.309  10.083  18.738  0.00  0.00    +0.000 A 
ATOM     18 CL   UNL     1      -1.568  10.974  17.970  0.00  0.00    +0.000 Cl
ATOM     19  C   UNL     1      -0.307   9.951  20.122  0.00  0.00    +0.000 A 
ATOM     20  C   UNL     1       0.701   9.209  20.730  0.00  0.00    +0.000 A 
ATOM     21 CL   UNL     1       0.732   9.048  22.443  0.00  0.00    +0.000 Cl
ATOM     22  C   UNL     1       1.705   8.612  19.966  0.00  0.00    +0.000 A 
ENDBRANCH  14  15
ENDBRANCH   4  14
TORSDOF 5
ENDMDL
