MODEL 1
REMARK VINA RESULT:      -7.6      0.000      0.000
REMARK  Name = 
REMARK  12 active torsions:
REMARK  status: ('A' for Active; 'I' for Inactive)
REMARK    1  A    between atoms: C_1  and  C_2
REMARK    2  A    between atoms: C_2  and  N_3
REMARK    3  A    between atoms: C_5  and  C_6
REMARK    4  A    between atoms: C_6  and  C_7
REMARK    5  A    between atoms: C_6  and  C_8
REMARK    6  A    between atoms: C_6  and  C_9
REMARK    7  A    between atoms: C_11  and  N_12
REMARK    8  A    between atoms: C_15  and  C_16
REMARK    9  A    between atoms: C_19  and  N_20
REMARK   10  A    between atoms: C_23  and  C_24
REMARK   11  A    between atoms: C_26  and  O_27
REMARK   12  A    between atoms: O_27  and  C_28
REMARK                            x       y       z     vdW  Elec       q    Type
REMARK                         _______ _______ _______ _____ _____    ______ ____
ROOT
ATOM      1  N   UNL     1      -1.773  12.862  18.820  0.00  0.00    +0.000 N 
ATOM      2  C   UNL     1      -0.638  12.244  19.240  0.00  0.00    +0.000 A 
ATOM      3  N   UNL     1      -0.390  10.958  19.136  0.00  0.00    +0.000 NA
ATOM      4  C   UNL     1       0.771  10.621  19.792  0.00  0.00    +0.000 A 
ATOM      5  C   UNL     1       1.444  11.684  20.359  0.00  0.00    +0.000 A 
ATOM      6  S   UNL     1       0.609  13.144  20.021  0.00  0.00    +0.000 S 
ATOM      7  H   UNL     1      -1.735  13.875  18.840  0.00  0.00    +0.000 HD
ENDROOT
BRANCH   4   8
ATOM      8  C   UNL     1       1.217   9.237  19.832  0.00  0.00    +0.000 A 
ATOM      9  C   UNL     1       0.986   8.479  20.985  0.00  0.00    +0.000 A 
ATOM     10  C   UNL     1       1.352   7.136  21.027  0.00  0.00    +0.000 A 
ATOM     11  C   UNL     1       1.988   6.536  19.926  0.00  0.00    +0.000 A 
ATOM     12  C   UNL     1       2.280   7.304  18.782  0.00  0.00    +0.000 A 
ATOM     13  C   UNL     1       1.884   8.650  18.750  0.00  0.00    +0.000 A 
BRANCH  11  14
ATOM     14  N   UNL     1       2.274   5.145  19.996  0.00  0.00    +0.000 N 
ATOM     15  C   UNL     1       1.411   4.098  20.233  0.00  0.00    +0.000 A 
ATOM     16  N   UNL     1       2.029   2.937  20.302  0.00  0.00    +0.000 NA
ATOM     17  C   UNL     1       3.353   3.221  20.096  0.00  0.00    +0.000 A 
ATOM     18  C   UNL     1       4.385   2.167  20.180  0.00  0.00    +0.000 C 
ATOM     19  C   UNL     1       3.520   4.567  19.858  0.00  0.00    +0.000 A 
ENDBRANCH  11  14
BRANCH  12  20
ATOM     20  O   UNL     1       2.877   6.680  17.721  0.00  0.00    +0.000 OA
ATOM     21  C   UNL     1       4.186   7.092  17.343  0.00  0.00    +0.000 C 
ENDBRANCH  12  20
ENDBRANCH   4   8
BRANCH   1  26
ATOM     22  N   UNL     1      -3.354  11.503  17.598  0.00  0.00    +0.000 N 
ATOM     23  N   UNL     1      -4.632  11.067  17.651  0.00  0.00    +0.000 NA
ATOM     24  C   UNL     1      -5.088  11.514  18.829  0.00  0.00    +0.000 A 
ATOM     25  C   UNL     1      -4.082  12.227  19.521  0.00  0.00    +0.000 A 
ATOM     26  C   UNL     1      -2.981  12.242  18.697  0.00  0.00    +0.000 A 
BRANCH  24  27
ATOM     27  C   UNL     1      -6.514  11.282  19.295  0.00  0.00    +0.000 C 
ATOM     28  C   UNL     1      -6.928   9.802  19.181  0.00  0.00    +0.000 C 
ATOM     29  C   UNL     1      -6.660  11.713  20.770  0.00  0.00    +0.000 C 
ATOM     30  C   UNL     1      -7.488  12.120  18.440  0.00  0.00    +0.000 C 
ENDBRANCH  24  27
BRANCH  22  32
ATOM     31  C   UNL     1      -3.385  10.521  15.344  0.00  0.00    +0.000 C 
ATOM     32  C   UNL     1      -2.554  11.175  16.433  0.00  0.00    +0.000 C 
ENDBRANCH  22  32
ENDBRANCH   1  26
TORSDOF 6
ENDMDL
MODEL 2
REMARK VINA RESULT:      -7.5      2.849      4.605
REMARK  Name = 
REMARK  12 active torsions:
REMARK  status: ('A' for Active; 'I' for Inactive)
REMARK    1  A    between atoms: C_1  and  C_2
REMARK    2  A    between atoms: C_2  and  N_3
REMARK    3  A    between atoms: C_5  and  C_6
REMARK    4  A    between atoms: C_6  and  C_7
REMARK    5  A    between atoms: C_6  and  C_8
REMARK    6  A    between atoms: C_6  and  C_9
REMARK    7  A    between atoms: C_11  and  N_12
REMARK    8  A    between atoms: C_15  and  C_16
REMARK    9  A    between atoms: C_19  and  N_20
REMARK   10  A    between atoms: C_23  and  C_24
REMARK   11  A    between atoms: C_26  and  O_27
REMARK   12  A    between atoms: O_27  and  C_28
REMARK                            x       y       z     vdW  Elec       q    Type
REMARK                         _______ _______ _______ _____ _____    ______ ____
ROOT
ATOM      1  N   UNL     1      -0.208  10.384  20.407  0.00  0.00    +0.000 N 
ATOM      2  C   UNL     1       0.693   9.368  20.465  0.00  0.00    +0.000 A 
ATOM      3  N   UNL     1       1.384   8.907  19.447  0.00  0.00    +0.000 NA
ATOM      4  C   UNL     1       2.092   7.779  19.796  0.00  0.00    +0.000 A 
ATOM      5  C   UNL     1       1.975   7.412  21.121  0.00  0.00    +0.000 A 
ATOM      6  S   UNL     1       0.981   8.539  21.950  0.00  0.00    +0.000 S 
ATOM      7  H   UNL     1      -0.535  10.710  21.310  0.00  0.00    +0.000 HD
ENDROOT
BRANCH   4   8
ATOM      8  C   UNL     1       2.900   7.084  18.808  0.00  0.00    +0.000 A 
ATOM      9  C   UNL     1       3.365   7.787  17.691  0.00  0.00    +0.000 A 
ATOM     10  C   UNL     1       4.190   7.159  16.760  0.00  0.00    +0.000 A 
ATOM     11  C   UNL     1       4.534   5.805  16.912  0.00  0.00    +0.000 A 
ATOM     12  C   UNL     1       4.023   5.070  18.000  0.00  0.00    +0.000 A 
ATOM     13  C   UNL     1       3.213   5.725  18.940  0.00  0.00    +0.000 A 
BRANCH  11  14
ATOM     14  N   UNL     1       5.436   5.235  15.972  0.00  0.00    +0.000 N 
ATOM     15  C   UNL     1       6.811   5.291  15.952  0.00  0.00    +0.000 A 
ATOM     16  N   UNL     1       7.328   4.711  14.889  0.00  0.00    +0.000 NA
ATOM     17  C   UNL     1       6.256   4.244  14.177  0.00  0.00    +0.000 A 
ATOM     18  C   UNL     1       6.433   3.593  12.862  0.00  0.00    +0.000 C 
ATOM     19  C   UNL     1       5.084   4.513  14.849  0.00  0.00    +0.000 A 
ENDBRANCH  11  14
BRANCH  12  20
ATOM     20  O   UNL     1       4.401   3.761  18.130  0.00  0.00    +0.000 OA
ATOM     21  C   UNL     1       4.024   3.063  19.311  0.00  0.00    +0.000 C 
ENDBRANCH  12  20
ENDBRANCH   4   8
BRANCH   1  26
ATOM     22  N   UNL     1      -0.701  11.921  18.610  0.00  0.00    +0.000 N 
ATOM     23  N   UNL     1      -1.560  12.101  17.582  0.00  0.00    +0.000 NA
ATOM     24  C   UNL     1      -2.308  10.989  17.574  0.00  0.00    +0.000 A 
ATOM     25  C   UNL     1      -1.904  10.104  18.599  0.00  0.00    +0.000 A 
ATOM     26  C   UNL     1      -0.892  10.736  19.282  0.00  0.00    +0.000 A 
BRANCH  24  27
ATOM     27  C   UNL     1      -3.442  10.774  16.589  0.00  0.00    +0.000 C 
ATOM     28  C   UNL     1      -2.978  10.924  15.127  0.00  0.00    +0.000 C 
ATOM     29  C   UNL     1      -4.030   9.358  16.767  0.00  0.00    +0.000 C 
ATOM     30  C   UNL     1      -4.561  11.807  16.845  0.00  0.00    +0.000 C 
ENDBRANCH  24  27
BRANCH  22  32
ATOM     31  C   UNL     1      -0.290  14.346  18.640  0.00  0.00    +0.000 C 
ATOM     32  C   UNL     1       0.272  12.958  18.894  0.00  0.00    +0.000 C 
ENDBRANCH  22  32
ENDBRANCH   1  26
TORSDOF 6
ENDMDL
MODEL 3
REMARK VINA RESULT:      -7.5      0.842      1.281
REMARK  Name = 
REMARK  12 active torsions:
REMARK  status: ('A' for Active; 'I' for Inactive)
REMARK    1  A    between atoms: C_1  and  C_2
REMARK    2  A    between atoms: C_2  and  N_3
REMARK    3  A    between atoms: C_5  and  C_6
REMARK    4  A    between atoms: C_6  and  C_7
REMARK    5  A    between atoms: C_6  and  C_8
REMARK    6  A    between atoms: C_6  and  C_9
REMARK    7  A    between atoms: C_11  and  N_12
REMARK    8  A    between atoms: C_15  and  C_16
REMARK    9  A    between atoms: C_19  and  N_20
REMARK   10  A    between atoms: C_23  and  C_24
REMARK   11  A    between atoms: C_26  and  O_27
REMARK   12  A    between atoms: O_27  and  C_28
REMARK                            x       y       z     vdW  Elec       q    Type
REMARK                         _______ _______ _______ _____ _____    ______ ____
ROOT
ATOM      1  N   UNL     1      -1.917  12.638  18.005  0.00  0.00    +0.000 N 
ATOM      2  C   UNL     1      -0.700  12.134  18.338  0.00  0.00    +0.000 A 
ATOM      3  N   UNL     1      -0.426  10.859  18.504  0.00  0.00    +0.000 NA
ATOM      4  C   UNL     1       0.851  10.684  18.987  0.00  0.00    +0.000 A 
ATOM      5  C   UNL     1       1.576  11.849  19.138  0.00  0.00    +0.000 A 
ATOM      6  S   UNL     1       0.635  13.188  18.621  0.00  0.00    +0.000 S 
ATOM      7  H   UNL     1      -1.916  13.624  17.770  0.00  0.00    +0.000 HD
ENDROOT
BRANCH   4   8
ATOM      8  C   UNL     1       1.350   9.350  19.276  0.00  0.00    +0.000 A 
ATOM      9  C   UNL     1       1.137   8.803  20.546  0.00  0.00    +0.000 A 
ATOM     10  C   UNL     1       1.555   7.504  20.830  0.00  0.00    +0.000 A 
ATOM     11  C   UNL     1       2.225   6.742  19.857  0.00  0.00    +0.000 A 
ATOM     12  C   UNL     1       2.499   7.304  18.594  0.00  0.00    +0.000 A 
ATOM     13  C   UNL     1       2.050   8.605  18.319  0.00  0.00    +0.000 A 
BRANCH  11  14
ATOM     14  N   UNL     1       2.565   5.399  20.176  0.00  0.00    +0.000 N 
ATOM     15  C   UNL     1       3.584   4.624  19.671  0.00  0.00    +0.000 A 
ATOM     16  N   UNL     1       3.565   3.393  20.138  0.00  0.00    +0.000 NA
ATOM     17  C   UNL     1       2.496   3.349  20.992  0.00  0.00    +0.000 A 
ATOM     18  C   UNL     1       2.099   2.091  21.659  0.00  0.00    +0.000 C 
ATOM     19  C   UNL     1       1.895   4.585  21.068  0.00  0.00    +0.000 A 
ENDBRANCH  11  14
BRANCH  12  20
ATOM     20  O   UNL     1       3.130   6.524  17.664  0.00  0.00    +0.000 OA
ATOM     21  C   UNL     1       4.375   6.972  17.139  0.00  0.00    +0.000 C 
ENDBRANCH  12  20
ENDBRANCH   4   8
BRANCH   1  26
ATOM     22  N   UNL     1      -3.561  10.919  17.583  0.00  0.00    +0.000 N 
ATOM     23  N   UNL     1      -4.804  10.535  17.950  0.00  0.00    +0.000 NA
ATOM     24  C   UNL     1      -5.144  11.393  18.923  0.00  0.00    +0.000 A 
ATOM     25  C   UNL     1      -4.100  12.313  19.169  0.00  0.00    +0.000 A 
ATOM     26  C   UNL     1      -3.101  12.017  18.272  0.00  0.00    +0.000 A 
BRANCH  24  27
ATOM     27  C   UNL     1      -6.496  11.352  19.612  0.00  0.00    +0.000 C 
ATOM     28  C   UNL     1      -7.527  12.264  18.920  0.00  0.00    +0.000 C 
ATOM     29  C   UNL     1      -7.044   9.910  19.607  0.00  0.00    +0.000 C 
ATOM     30  C   UNL     1      -6.351  11.818  21.077  0.00  0.00    +0.000 C 
ENDBRANCH  24  27
BRANCH  22  32
ATOM     31  C   UNL     1      -3.172  10.752  15.161  0.00  0.00    +0.000 C 
ATOM     32  C   UNL     1      -2.885  10.177  16.536  0.00  0.00    +0.000 C 
ENDBRANCH  22  32
ENDBRANCH   1  26
TORSDOF 6
ENDMDL
MODEL 4
REMARK VINA RESULT:      -7.5      3.245      5.439
REMARK  Name = 
REMARK  12 active torsions:
REMARK  status: ('A' for Active; 'I' for Inactive)
REMARK    1  A    between atoms: C_1  and  C_2
REMARK    2  A    between atoms: C_2  and  N_3
REMARK    3  A    between atoms: C_5  and  C_6
REMARK    4  A    between atoms: C_6  and  C_7
REMARK    5  A    between atoms: C_6  and  C_8
REMARK    6  A    between atoms: C_6  and  C_9
REMARK    7  A    between atoms: C_11  and  N_12
REMARK    8  A    between atoms: C_15  and  C_16
REMARK    9  A    between atoms: C_19  and  N_20
REMARK   10  A    between atoms: C_23  and  C_24
REMARK   11  A    between atoms: C_26  and  O_27
REMARK   12  A    between atoms: O_27  and  C_28
REMARK                            x       y       z     vdW  Elec       q    Type
REMARK                         _______ _______ _______ _____ _____    ______ ____
ROOT
ATOM      1  N   UNL     1       0.199  12.622  21.796  0.00  0.00    +0.000 N 
ATOM      2  C   UNL     1       0.253  11.268  21.699  0.00  0.00    +0.000 A 
ATOM      3  N   UNL     1       1.040  10.596  20.889  0.00  0.00    +0.000 NA
ATOM      4  C   UNL     1       0.749   9.251  20.916  0.00  0.00    +0.000 A 
ATOM      5  C   UNL     1      -0.243   8.892  21.805  0.00  0.00    +0.000 A 
ATOM      6  S   UNL     1      -0.791  10.281  22.653  0.00  0.00    +0.000 S 
ATOM      7  H   UNL     1      -0.351  12.968  22.575  0.00  0.00    +0.000 HD
ENDROOT
BRANCH   4   8
ATOM      8  C   UNL     1       1.480   8.324  20.067  0.00  0.00    +0.000 A 
ATOM      9  C   UNL     1       1.821   8.715  18.767  0.00  0.00    +0.000 A 
ATOM     10  C   UNL     1       2.571   7.868  17.953  0.00  0.00    +0.000 A 
ATOM     11  C   UNL     1       2.963   6.599  18.415  0.00  0.00    +0.000 A 
ATOM     12  C   UNL     1       2.574   6.171  19.700  0.00  0.00    +0.000 A 
ATOM     13  C   UNL     1       1.838   7.046  20.513  0.00  0.00    +0.000 A 
BRANCH  11  14
ATOM     14  N   UNL     1       3.787   5.806  17.571  0.00  0.00    +0.000 N 
ATOM     15  C   UNL     1       3.627   4.490  17.199  0.00  0.00    +0.000 A 
ATOM     16  N   UNL     1       4.623   4.047  16.461  0.00  0.00    +0.000 NA
ATOM     17  C   UNL     1       5.476   5.110  16.331  0.00  0.00    +0.000 A 
ATOM     18  C   UNL     1       6.767   4.976  15.624  0.00  0.00    +0.000 C 
ATOM     19  C   UNL     1       4.958   6.217  16.965  0.00  0.00    +0.000 A 
ENDBRANCH  11  14
BRANCH  12  20
ATOM     20  O   UNL     1       2.995   4.940  20.125  0.00  0.00    +0.000 OA
ATOM     21  C   UNL     1       2.207   4.252  21.090  0.00  0.00    +0.000 C 
ENDBRANCH  12  20
ENDBRANCH   4   8
BRANCH   1  26
ATOM     22  N   UNL     1      -0.163  13.594  19.614  0.00  0.00    +0.000 N 
ATOM     23  N   UNL     1       0.417  14.426  18.720  0.00  0.00    +0.000 NA
ATOM     24  C   UNL     1       1.512  14.877  19.348  0.00  0.00    +0.000 A 
ATOM     25  C   UNL     1       1.609  14.330  20.647  0.00  0.00    +0.000 A 
ATOM     26  C   UNL     1       0.541  13.475  20.790  0.00  0.00    +0.000 A 
BRANCH  24  27
ATOM     27  C   UNL     1       2.497  15.827  18.691  0.00  0.00    +0.000 C 
ATOM     28  C   UNL     1       1.789  16.994  17.975  0.00  0.00    +0.000 C 
ATOM     29  C   UNL     1       3.445  16.417  19.756  0.00  0.00    +0.000 C 
ATOM     30  C   UNL     1       3.342  15.066  17.647  0.00  0.00    +0.000 C 
ENDBRANCH  24  27
BRANCH  22  32
ATOM     31  C   UNL     1      -1.161  11.780  18.287  0.00  0.00    +0.000 C 
ATOM     32  C   UNL     1      -1.400  12.932  19.247  0.00  0.00    +0.000 C 
ENDBRANCH  22  32
ENDBRANCH   1  26
TORSDOF 6
ENDMDL
MODEL 5
REMARK VINA RESULT:      -7.5      3.179      5.549
REMARK  Name = 
REMARK  12 active torsions:
REMARK  status: ('A' for Active; 'I' for Inactive)
REMARK    1  A    between atoms: C_1  and  C_2
REMARK    2  A    between atoms: C_2  and  N_3
REMARK    3  A    between atoms: C_5  and  C_6
REMARK    4  A    between atoms: C_6  and  C_7
REMARK    5  A    between atoms: C_6  and  C_8
REMARK    6  A    between atoms: C_6  and  C_9
REMARK    7  A    between atoms: C_11  and  N_12
REMARK    8  A    between atoms: C_15  and  C_16
REMARK    9  A    between atoms: C_19  and  N_20
REMARK   10  A    between atoms: C_23  and  C_24
REMARK   11  A    between atoms: C_26  and  O_27
REMARK   12  A    between atoms: O_27  and  C_28
REMARK                            x       y       z     vdW  Elec       q    Type
REMARK                         _______ _______ _______ _____ _____    ______ ____
ROOT
ATOM      1  N   UNL     1       0.144  11.246  21.659  0.00  0.00    +0.000 N 
ATOM      2  C   UNL     1       0.457   9.950  21.396  0.00  0.00    +0.000 A 
ATOM      3  N   UNL     1       1.394   9.548  20.567  0.00  0.00    +0.000 NA
ATOM      4  C   UNL     1       1.361   8.183  20.402  0.00  0.00    +0.000 A 
ATOM      5  C   UNL     1       0.412   7.532  21.165  0.00  0.00    +0.000 A 
ATOM      6  S   UNL     1      -0.427   8.669  22.139  0.00  0.00    +0.000 S 
ATOM      7  H   UNL     1      -0.497  11.376  22.433  0.00  0.00    +0.000 HD
ENDROOT
BRANCH   4   8
ATOM      8  C   UNL     1       2.292   7.529  19.498  0.00  0.00    +0.000 A 
ATOM      9  C   UNL     1       2.594   8.135  18.274  0.00  0.00    +0.000 A 
ATOM     10  C   UNL     1       3.527   7.558  17.415  0.00  0.00    +0.000 A 
ATOM     11  C   UNL     1       4.150   6.344  17.752  0.00  0.00    +0.000 A 
ATOM     12  C   UNL     1       3.809   5.692  18.954  0.00  0.00    +0.000 A 
ATOM     13  C   UNL     1       2.884   6.300  19.817  0.00  0.00    +0.000 A 
BRANCH  11  14
ATOM     14  N   UNL     1       5.146   5.837  16.873  0.00  0.00    +0.000 N 
ATOM     15  C   UNL     1       6.480   6.167  16.801  0.00  0.00    +0.000 A 
ATOM     16  N   UNL     1       7.102   5.555  15.815  0.00  0.00    +0.000 NA
ATOM     17  C   UNL     1       6.146   4.782  15.212  0.00  0.00    +0.000 A 
ATOM     18  C   UNL     1       6.450   3.996  13.997  0.00  0.00    +0.000 C 
ATOM     19  C   UNL     1       4.946   4.903  15.876  0.00  0.00    +0.000 A 
ENDBRANCH  11  14
BRANCH  12  20
ATOM     20  O   UNL     1       4.455   4.525  19.260  0.00  0.00    +0.000 OA
ATOM     21  C   UNL     1       3.672   3.405  19.658  0.00  0.00    +0.000 C 
ENDBRANCH  12  20
ENDBRANCH   4   8
BRANCH   1  26
ATOM     22  N   UNL     1      -0.368  12.492  19.654  0.00  0.00    +0.000 N 
ATOM     23  N   UNL     1       0.096  13.512  18.899  0.00  0.00    +0.000 NA
ATOM     24  C   UNL     1       1.144  13.986  19.587  0.00  0.00    +0.000 A 
ATOM     25  C   UNL     1       1.329  13.261  20.785  0.00  0.00    +0.000 A 
ATOM     26  C   UNL     1       0.368  12.277  20.796  0.00  0.00    +0.000 A 
BRANCH  24  27
ATOM     27  C   UNL     1       2.002  15.133  19.083  0.00  0.00    +0.000 C 
ATOM     28  C   UNL     1       1.151  16.307  18.560  0.00  0.00    +0.000 C 
ATOM     29  C   UNL     1       2.900  15.656  20.224  0.00  0.00    +0.000 C 
ATOM     30  C   UNL     1       2.905  14.645  17.930  0.00  0.00    +0.000 C 
ENDBRANCH  24  27
BRANCH  22  32
ATOM     31  C   UNL     1      -1.146  10.652  18.220  0.00  0.00    +0.000 C 
ATOM     32  C   UNL     1      -1.528  11.755  19.191  0.00  0.00    +0.000 C 
ENDBRANCH  22  32
ENDBRANCH   1  26
TORSDOF 6
ENDMDL
MODEL 6
REMARK VINA RESULT:      -7.2      3.859      6.351
REMARK  Name = 
REMARK  12 active torsions:
REMARK  status: ('A' for Active; 'I' for Inactive)
REMARK    1  A    between atoms: C_1  and  C_2
REMARK    2  A    between atoms: C_2  and  N_3
REMARK    3  A    between atoms: C_5  and  C_6
REMARK    4  A    between atoms: C_6  and  C_7
REMARK    5  A    between atoms: C_6  and  C_8
REMARK    6  A    between atoms: C_6  and  C_9
REMARK    7  A    between atoms: C_11  and  N_12
REMARK    8  A    between atoms: C_15  and  C_16
REMARK    9  A    between atoms: C_19  and  N_20
REMARK   10  A    between atoms: C_23  and  C_24
REMARK   11  A    between atoms: C_26  and  O_27
REMARK   12  A    between atoms: O_27  and  C_28
REMARK                            x       y       z     vdW  Elec       q    Type
REMARK                         _______ _______ _______ _____ _____    ______ ____
ROOT
ATOM      1  N   UNL     1       0.815  13.504  21.237  0.00  0.00    +0.000 N 
ATOM      2  C   UNL     1       0.524  12.195  21.016  0.00  0.00    +0.000 A 
ATOM      3  N   UNL     1       1.333  11.320  20.464  0.00  0.00    +0.000 NA
ATOM      4  C   UNL     1       0.692  10.123  20.238  0.00  0.00    +0.000 A 
ATOM      5  C   UNL     1      -0.615  10.076  20.679  0.00  0.00    +0.000 A 
ATOM      6  S   UNL     1      -1.027  11.564  21.429  0.00  0.00    +0.000 S 
ATOM      7  H   UNL     1       0.138  13.997  21.807  0.00  0.00    +0.000 HD
ENDROOT
BRANCH   4   8
ATOM      8  C   UNL     1       1.396   9.021  19.601  0.00  0.00    +0.000 A 
ATOM      9  C   UNL     1       1.784   9.144  18.263  0.00  0.00    +0.000 A 
ATOM     10  C   UNL     1       2.510   8.126  17.647  0.00  0.00    +0.000 A 
ATOM     11  C   UNL     1       2.829   6.952  18.351  0.00  0.00    +0.000 A 
ATOM     12  C   UNL     1       2.391   6.792  19.681  0.00  0.00    +0.000 A 
ATOM     13  C   UNL     1       1.681   7.837  20.291  0.00  0.00    +0.000 A 
BRANCH  11  14
ATOM     14  N   UNL     1       3.632   5.978  17.697  0.00  0.00    +0.000 N 
ATOM     15  C   UNL     1       3.334   4.664  17.413  0.00  0.00    +0.000 A 
ATOM     16  N   UNL     1       4.343   4.024  16.860  0.00  0.00    +0.000 NA
ATOM     17  C   UNL     1       5.348   4.948  16.765  0.00  0.00    +0.000 A 
ATOM     18  C   UNL     1       6.687   4.576  16.259  0.00  0.00    +0.000 C 
ATOM     19  C   UNL     1       4.917   6.170  17.230  0.00  0.00    +0.000 A 
ENDBRANCH  11  14
BRANCH  12  20
ATOM     20  O   UNL     1       2.743   5.647  20.342  0.00  0.00    +0.000 OA
ATOM     21  C   UNL     1       1.716   4.723  20.687  0.00  0.00    +0.000 C 
ENDBRANCH  12  20
ENDBRANCH   4   8
BRANCH   1  26
ATOM     22  N   UNL     1       1.399  15.000  19.432  0.00  0.00    +0.000 N 
ATOM     23  N   UNL     1       2.473  15.532  18.809  0.00  0.00    +0.000 NA
ATOM     24  C   UNL     1       3.521  15.103  19.526  0.00  0.00    +0.000 A 
ATOM     25  C   UNL     1       3.095  14.304  20.611  0.00  0.00    +0.000 A 
ATOM     26  C   UNL     1       1.725  14.217  20.515  0.00  0.00    +0.000 A 
BRANCH  24  27
ATOM     27  C   UNL     1       4.956  15.437  19.158  0.00  0.00    +0.000 C 
ATOM     28  C   UNL     1       5.130  16.925  18.798  0.00  0.00    +0.000 C 
ATOM     29  C   UNL     1       5.889  15.113  20.344  0.00  0.00    +0.000 C 
ATOM     30  C   UNL     1       5.395  14.594  17.942  0.00  0.00    +0.000 C 
ENDBRANCH  24  27
BRANCH  22  32
ATOM     31  C   UNL     1      -0.011  16.684  18.326  0.00  0.00    +0.000 C 
ATOM     32  C   UNL     1       0.078  15.284  18.905  0.00  0.00    +0.000 C 
ENDBRANCH  22  32
ENDBRANCH   1  26
TORSDOF 6
ENDMDL
MODEL 7
REMARK VINA RESULT:      -7.2      3.743      6.164
REMARK  Name = 
REMARK  12 active torsions:
REMARK  status: ('A' for Active; 'I' for Inactive)
REMARK    1  A    between atoms: C_1  and  C_2
REMARK    2  A    between atoms: C_2  and  N_3
REMARK    3  A    between atoms: C_5  and  C_6
REMARK    4  A    between atoms: C_6  and  C_7
REMARK    5  A    between atoms: C_6  and  C_8
REMARK    6  A    between atoms: C_6  and  C_9
REMARK    7  A    between atoms: C_11  and  N_12
REMARK    8  A    between atoms: C_15  and  C_16
REMARK    9  A    between atoms: C_19  and  N_20
REMARK   10  A    between atoms: C_23  and  C_24
REMARK   11  A    between atoms: C_26  and  O_27
REMARK   12  A    between atoms: O_27  and  C_28
REMARK                            x       y       z     vdW  Elec       q    Type
REMARK                         _______ _______ _______ _____ _____    ______ ____
ROOT
ATOM      1  N   UNL     1       0.778  13.278  21.447  0.00  0.00    +0.000 N 
ATOM      2  C   UNL     1       0.513  11.961  21.247  0.00  0.00    +0.000 A 
ATOM      3  N   UNL     1       1.314  11.106  20.652  0.00  0.00    +0.000 NA
ATOM      4  C   UNL     1       0.696   9.891  20.466  0.00  0.00    +0.000 A 
ATOM      5  C   UNL     1      -0.582   9.808  20.981  0.00  0.00    +0.000 A 
ATOM      6  S   UNL     1      -0.994  11.287  21.749  0.00  0.00    +0.000 S 
ATOM      7  H   UNL     1       0.120  13.754  22.053  0.00  0.00    +0.000 HD
ENDROOT
BRANCH   4   8
ATOM      8  C   UNL     1       1.394   8.807  19.794  0.00  0.00    +0.000 A 
ATOM      9  C   UNL     1       1.778   8.969  18.458  0.00  0.00    +0.000 A 
ATOM     10  C   UNL     1       2.498   7.968  17.808  0.00  0.00    +0.000 A 
ATOM     11  C   UNL     1       2.816   6.772  18.475  0.00  0.00    +0.000 A 
ATOM     12  C   UNL     1       2.383   6.573  19.801  0.00  0.00    +0.000 A 
ATOM     13  C   UNL     1       1.678   7.601  20.446  0.00  0.00    +0.000 A 
BRANCH  11  14
ATOM     14  N   UNL     1       3.614   5.816  17.789  0.00  0.00    +0.000 N 
ATOM     15  C   UNL     1       3.291   4.531  17.418  0.00  0.00    +0.000 A 
ATOM     16  N   UNL     1       4.299   3.895  16.858  0.00  0.00    +0.000 NA
ATOM     17  C   UNL     1       5.331   4.794  16.850  0.00  0.00    +0.000 A 
ATOM     18  C   UNL     1       6.675   4.416  16.364  0.00  0.00    +0.000 C 
ATOM     19  C   UNL     1       4.918   5.999  17.374  0.00  0.00    +0.000 A 
ENDBRANCH  11  14
BRANCH  12  20
ATOM     20  O   UNL     1       2.734   5.408  20.426  0.00  0.00    +0.000 OA
ATOM     21  C   UNL     1       1.699   4.513  20.818  0.00  0.00    +0.000 C 
ENDBRANCH  12  20
ENDBRANCH   4   8
BRANCH   1  26
ATOM     22  N   UNL     1       1.253  14.617  19.492  0.00  0.00    +0.000 N 
ATOM     23  N   UNL     1       2.281  15.207  18.843  0.00  0.00    +0.000 NA
ATOM     24  C   UNL     1       3.340  15.003  19.639  0.00  0.00    +0.000 A 
ATOM     25  C   UNL     1       2.966  14.288  20.799  0.00  0.00    +0.000 A 
ATOM     26  C   UNL     1       1.625  14.014  20.672  0.00  0.00    +0.000 A 
BRANCH  24  27
ATOM     27  C   UNL     1       4.737  15.474  19.278  0.00  0.00    +0.000 C 
ATOM     28  C   UNL     1       5.783  15.045  20.326  0.00  0.00    +0.000 C 
ATOM     29  C   UNL     1       5.151  14.888  17.912  0.00  0.00    +0.000 C 
ATOM     30  C   UNL     1       4.761  17.015  19.180  0.00  0.00    +0.000 C 
ENDBRANCH  24  27
BRANCH  22  32
ATOM     31  C   UNL     1      -0.390  13.388  18.137  0.00  0.00    +0.000 C 
ATOM     32  C   UNL     1      -0.067  14.664  18.894  0.00  0.00    +0.000 C 
ENDBRANCH  22  32
ENDBRANCH   1  26
TORSDOF 6
ENDMDL
MODEL 8
REMARK VINA RESULT:      -7.1      3.213      5.807
REMARK  Name = 
REMARK  12 active torsions:
REMARK  status: ('A' for Active; 'I' for Inactive)
REMARK    1  A    between atoms: C_1  and  C_2
REMARK    2  A    between atoms: C_2  and  N_3
REMARK    3  A    between atoms: C_5  and  C_6
REMARK    4  A    between atoms: C_6  and  C_7
REMARK    5  A    between atoms: C_6  and  C_8
REMARK    6  A    between atoms: C_6  and  C_9
REMARK    7  A    between atoms: C_11  and  N_12
REMARK    8  A    between atoms: C_15  and  C_16
REMARK    9  A    between atoms: C_19  and  N_20
REMARK   10  A    between atoms: C_23  and  C_24
REMARK   11  A    between atoms: C_26  and  O_27
REMARK   12  A    between atoms: O_27  and  C_28
REMARK                            x       y       z     vdW  Elec       q    Type
REMARK                         _______ _______ _______ _____ _____    ______ ____
ROOT
ATOM      1  N   UNL     1       0.570  10.775  21.426  0.00  0.00    +0.000 N 
ATOM      2  C   UNL     1       0.884   9.489  21.118  0.00  0.00    +0.000 A 
ATOM      3  N   UNL     1       1.797   9.118  20.248  0.00  0.00    +0.000 NA
ATOM      4  C   UNL     1       1.768   7.757  20.048  0.00  0.00    +0.000 A 
ATOM      5  C   UNL     1       0.851   7.078  20.825  0.00  0.00    +0.000 A 
ATOM      6  S   UNL     1       0.035   8.181  21.856  0.00  0.00    +0.000 S 
ATOM      7  H   UNL     1      -0.046  10.879  22.225  0.00  0.00    +0.000 HD
ENDROOT
BRANCH   4   8
ATOM      8  C   UNL     1       2.674   7.135  19.097  0.00  0.00    +0.000 A 
ATOM      9  C   UNL     1       3.055   7.846  17.953  0.00  0.00    +0.000 A 
ATOM     10  C   UNL     1       3.967   7.296  17.055  0.00  0.00    +0.000 A 
ATOM     11  C   UNL     1       4.488   6.007  17.269  0.00  0.00    +0.000 A 
ATOM     12  C   UNL     1       4.066   5.257  18.385  0.00  0.00    +0.000 A 
ATOM     13  C   UNL     1       3.164   5.837  19.290  0.00  0.00    +0.000 A 
BRANCH  11  14
ATOM     14  N   UNL     1       5.469   5.524  16.360  0.00  0.00    +0.000 N 
ATOM     15  C   UNL     1       6.832   5.711  16.384  0.00  0.00    +0.000 A 
ATOM     16  N   UNL     1       7.435   5.180  15.340  0.00  0.00    +0.000 NA
ATOM     17  C   UNL     1       6.436   4.612  14.597  0.00  0.00    +0.000 A 
ATOM     18  C   UNL     1       6.716   3.979  13.291  0.00  0.00    +0.000 C 
ATOM     19  C   UNL     1       5.223   4.770  15.230  0.00  0.00    +0.000 A 
ENDBRANCH  11  14
BRANCH  12  20
ATOM     20  O   UNL     1       4.614   4.018  18.574  0.00  0.00    +0.000 OA
ATOM     21  C   UNL     1       4.132   3.223  19.651  0.00  0.00    +0.000 C 
ENDBRANCH  12  20
ENDBRANCH   4   8
BRANCH   1  26
ATOM     22  N   UNL     1       0.130  11.958  19.367  0.00  0.00    +0.000 N 
ATOM     23  N   UNL     1       0.544  13.032  18.658  0.00  0.00    +0.000 NA
ATOM     24  C   UNL     1       1.443  13.630  19.454  0.00  0.00    +0.000 A 
ATOM     25  C   UNL     1       1.583  12.927  20.671  0.00  0.00    +0.000 A 
ATOM     26  C   UNL     1       0.757  11.830  20.585  0.00  0.00    +0.000 A 
BRANCH  24  27
ATOM     27  C   UNL     1       2.201  14.878  19.038  0.00  0.00    +0.000 C 
ATOM     28  C   UNL     1       3.082  15.427  20.176  0.00  0.00    +0.000 C 
ATOM     29  C   UNL     1       3.109  14.561  17.831  0.00  0.00    +0.000 C 
ATOM     30  C   UNL     1       1.205  15.983  18.626  0.00  0.00    +0.000 C 
ENDBRANCH  24  27
BRANCH  22  32
ATOM     31  C   UNL     1      -1.773  11.826  17.816  0.00  0.00    +0.000 C 
ATOM     32  C   UNL     1      -0.870  11.085  18.785  0.00  0.00    +0.000 C 
ENDBRANCH  22  32
ENDBRANCH   1  26
TORSDOF 6
ENDMDL
MODEL 9
REMARK VINA RESULT:      -7.1      3.913      5.999
REMARK  Name = 
REMARK  12 active torsions:
REMARK  status: ('A' for Active; 'I' for Inactive)
REMARK    1  A    between atoms: C_1  and  C_2
REMARK    2  A    between atoms: C_2  and  N_3
REMARK    3  A    between atoms: C_5  and  C_6
REMARK    4  A    between atoms: C_6  and  C_7
REMARK    5  A    between atoms: C_6  and  C_8
REMARK    6  A    between atoms: C_6  and  C_9
REMARK    7  A    between atoms: C_11  and  N_12
REMARK    8  A    between atoms: C_15  and  C_16
REMARK    9  A    between atoms: C_19  and  N_20
REMARK   10  A    between atoms: C_23  and  C_24
REMARK   11  A    between atoms: C_26  and  O_27
REMARK   12  A    between atoms: O_27  and  C_28
REMARK                            x       y       z     vdW  Elec       q    Type
REMARK                         _______ _______ _______ _____ _____    ______ ____
ROOT
ATOM      1  N   UNL     1       0.600  13.259  21.532  0.00  0.00    +0.000 N 
ATOM      2  C   UNL     1       0.472  11.913  21.401  0.00  0.00    +0.000 A 
ATOM      3  N   UNL     1       1.253  11.142  20.678  0.00  0.00    +0.000 NA
ATOM      4  C   UNL     1       0.771   9.854  20.626  0.00  0.00    +0.000 A 
ATOM      5  C   UNL     1      -0.370   9.634  21.370  0.00  0.00    +0.000 A 
ATOM      6  S   UNL     1      -0.819  11.078  22.183  0.00  0.00    +0.000 S 
ATOM      7  H   UNL     1       0.009  13.672  22.244  0.00  0.00    +0.000 HD
ENDROOT
BRANCH   4   8
ATOM      8  C   UNL     1       1.466   8.841  19.849  0.00  0.00    +0.000 A 
ATOM      9  C   UNL     1       1.786   9.107  18.513  0.00  0.00    +0.000 A 
ATOM     10  C   UNL     1       2.502   8.176  17.764  0.00  0.00    +0.000 A 
ATOM     11  C   UNL     1       2.880   6.945  18.329  0.00  0.00    +0.000 A 
ATOM     12  C   UNL     1       2.510   6.641  19.655  0.00  0.00    +0.000 A 
ATOM     13  C   UNL     1       1.809   7.600  20.401  0.00  0.00    +0.000 A 
BRANCH  11  14
ATOM     14  N   UNL     1       3.671   6.063  17.544  0.00  0.00    +0.000 N 
ATOM     15  C   UNL     1       3.497   4.715  17.322  0.00  0.00    +0.000 A 
ATOM     16  N   UNL     1       4.463   4.192  16.597  0.00  0.00    +0.000 NA
ATOM     17  C   UNL     1       5.310   5.232  16.320  0.00  0.00    +0.000 A 
ATOM     18  C   UNL     1       6.572   5.018  15.582  0.00  0.00    +0.000 C 
ATOM     19  C   UNL     1       4.817   6.402  16.852  0.00  0.00    +0.000 A 
ENDBRANCH  11  14
BRANCH  12  20
ATOM     20  O   UNL     1       2.917   5.444  20.180  0.00  0.00    +0.000 OA
ATOM     21  C   UNL     1       1.939   4.599  20.773  0.00  0.00    +0.000 C 
ENDBRANCH  12  20
ENDBRANCH   4   8
BRANCH   1  26
ATOM     22  N   UNL     1       0.499  14.731  19.618  0.00  0.00    +0.000 N 
ATOM     23  N   UNL     1       1.299  15.388  18.750  0.00  0.00    +0.000 NA
ATOM     24  C   UNL     1       2.540  15.163  19.205  0.00  0.00    +0.000 A 
ATOM     25  C   UNL     1       2.512  14.366  20.371  0.00  0.00    +0.000 A 
ATOM     26  C   UNL     1       1.190  14.065  20.604  0.00  0.00    +0.000 A 
BRANCH  24  27
ATOM     27  C   UNL     1       3.777  15.694  18.502  0.00  0.00    +0.000 C 
ATOM     28  C   UNL     1       4.678  14.559  17.977  0.00  0.00    +0.000 C 
ATOM     29  C   UNL     1       3.361  16.576  17.306  0.00  0.00    +0.000 C 
ATOM     30  C   UNL     1       4.607  16.552  19.481  0.00  0.00    +0.000 C 
ENDBRANCH  24  27
BRANCH  22  32
ATOM     31  C   UNL     1      -1.586  15.876  20.240  0.00  0.00    +0.000 C 
ATOM     32  C   UNL     1      -0.936  14.779  19.416  0.00  0.00    +0.000 C 
ENDBRANCH  22  32
ENDBRANCH   1  26
TORSDOF 6
ENDMDL
