MODEL 1
REMARK VINA RESULT:      -8.4      0.000      0.000
REMARK  Name = 
REMARK  5 active torsions:
REMARK  status: ('A' for Active; 'I' for Inactive)
REMARK    1  A    between atoms: C_1  and  C_2
REMARK    2  A    between atoms: C_5  and  C_6
REMARK    3  A    between atoms: C_7  and  C_8
REMARK    4  A    between atoms: C_15  and  C_16
REMARK    5  A    between atoms: C_23  and  C_24
REMARK                            x       y       z     vdW  Elec       q    Type
REMARK                         _______ _______ _______ _____ _____    ______ ____
ROOT
ATOM      1  C   UNL     1       1.829   8.570  19.403  0.00  0.00    +0.000 A 
ATOM      2  C   UNL     1       2.355   9.239  18.262  0.00  0.00    +0.000 A 
ATOM      3  C   UNL     1       2.052  10.660  17.854  0.00  0.00    +0.000 C 
ATOM      4  C   UNL     1       3.234   8.565  17.402  0.00  0.00    +0.000 A 
ATOM      5  C   UNL     1       3.495   7.216  17.572  0.00  0.00    +0.000 A 
ATOM      6  O   UNL     1       4.406   6.667  16.652  0.00  0.00    +0.000 OA
ATOM      7  C   UNL     1       4.816   5.363  16.778  0.00  0.00    +0.000 A 
ATOM      8  O   UNL     1       5.813   4.920  16.221  0.00  0.00    +0.000 OA
ATOM      9  C   UNL     1       3.980   4.499  17.619  0.00  0.00    +0.000 A 
ATOM     10  C   UNL     1       3.132   4.990  18.536  0.00  0.00    +0.000 A 
ATOM     11  C   UNL     1       2.929   6.465  18.608  0.00  0.00    +0.000 A 
ATOM     12  C   UNL     1       2.187   7.179  19.595  0.00  0.00    +0.000 A 
ATOM     13  C   UNL     1       1.782   6.488  20.880  0.00  0.00    +0.000 C 
ENDROOT
BRANCH   1  18
ATOM     14  C   UNL     1      -1.660  11.349  23.192  0.00  0.00    +0.000 C 
ATOM     15  C   UNL     1      -0.754  10.642  22.230  0.00  0.00    +0.000 A 
ATOM     16  C   UNL     1       0.327   9.882  22.677  0.00  0.00    +0.000 A 
ATOM     17  C   UNL     1       1.123   9.181  21.763  0.00  0.00    +0.000 A 
ATOM     18  C   UNL     1       0.929   9.278  20.373  0.00  0.00    +0.000 A 
ATOM     19  C   UNL     1      -0.140  10.085  19.946  0.00  0.00    +0.000 A 
ATOM     20  C   UNL     1      -0.996  10.716  20.856  0.00  0.00    +0.000 A 
ENDBRANCH   1  18
BRANCH  10  21
ATOM     21  C   UNL     1       2.516   3.964  19.395  0.00  0.00    +0.000 A 
ATOM     22  C   UNL     1       3.289   3.442  20.453  0.00  0.00    +0.000 A 
ATOM     23  C   UNL     1       2.695   2.646  21.426  0.00  0.00    +0.000 A 
ATOM     24  C   UNL     1       1.346   2.314  21.319  0.00  0.00    +0.000 A 
ATOM     25  C   UNL     1       0.600   2.751  20.225  0.00  0.00    +0.000 A 
ATOM     26  C   UNL     1       1.181   3.579  19.261  0.00  0.00    +0.000 A 
ENDBRANCH  10  21
TORSDOF 2
ENDMDL
MODEL 2
REMARK VINA RESULT:      -8.1      0.908      1.416
REMARK  Name = 
REMARK  5 active torsions:
REMARK  status: ('A' for Active; 'I' for Inactive)
REMARK    1  A    between atoms: C_1  and  C_2
REMARK    2  A    between atoms: C_5  and  C_6
REMARK    3  A    between atoms: C_7  and  C_8
REMARK    4  A    between atoms: C_15  and  C_16
REMARK    5  A    between atoms: C_23  and  C_24
REMARK                            x       y       z     vdW  Elec       q    Type
REMARK                         _______ _______ _______ _____ _____    ______ ____
ROOT
ATOM      1  C   UNL     1       1.127   9.413  19.725  0.00  0.00    +0.000 A 
ATOM      2  C   UNL     1       1.609  10.098  18.574  0.00  0.00    +0.000 A 
ATOM      3  C   UNL     1       1.214  11.490  18.146  0.00  0.00    +0.000 C 
ATOM      4  C   UNL     1       2.530   9.471  17.724  0.00  0.00    +0.000 A 
ATOM      5  C   UNL     1       2.879   8.144  17.914  0.00  0.00    +0.000 A 
ATOM      6  O   UNL     1       3.824   7.642  17.001  0.00  0.00    +0.000 OA
ATOM      7  C   UNL     1       4.319   6.370  17.147  0.00  0.00    +0.000 A 
ATOM      8  O   UNL     1       5.343   5.985  16.595  0.00  0.00    +0.000 OA
ATOM      9  C   UNL     1       3.542   5.466  18.000  0.00  0.00    +0.000 A 
ATOM     10  C   UNL     1       2.663   5.914  18.910  0.00  0.00    +0.000 A 
ATOM     11  C   UNL     1       2.363   7.372  18.960  0.00  0.00    +0.000 A 
ATOM     12  C   UNL     1       1.575   8.051  19.937  0.00  0.00    +0.000 A 
ATOM     13  C   UNL     1       1.216   7.354  21.233  0.00  0.00    +0.000 C 
ENDROOT
BRANCH   1  18
ATOM     14  C   UNL     1      -2.537  12.010  23.478  0.00  0.00    +0.000 C 
ATOM     15  C   UNL     1      -1.586  11.348  22.526  0.00  0.00    +0.000 A 
ATOM     16  C   UNL     1      -0.563  10.518  22.984  0.00  0.00    +0.000 A 
ATOM     17  C   UNL     1       0.274   9.863  22.073  0.00  0.00    +0.000 A 
ATOM     18  C   UNL     1       0.182  10.075  20.685  0.00  0.00    +0.000 A 
ATOM     19  C   UNL     1      -0.829  10.950  20.252  0.00  0.00    +0.000 A 
ATOM     20  C   UNL     1      -1.728  11.538  21.149  0.00  0.00    +0.000 A 
ENDBRANCH   1  18
BRANCH  10  21
ATOM     21  C   UNL     1       2.114   4.862  19.784  0.00  0.00    +0.000 A 
ATOM     22  C   UNL     1       1.122   4.014  19.249  0.00  0.00    +0.000 A 
ATOM     23  C   UNL     1       0.732   2.872  19.939  0.00  0.00    +0.000 A 
ATOM     24  C   UNL     1       1.279   2.600  21.191  0.00  0.00    +0.000 A 
ATOM     25  C   UNL     1       2.192   3.484  21.766  0.00  0.00    +0.000 A 
ATOM     26  C   UNL     1       2.614   4.616  21.065  0.00  0.00    +0.000 A 
ENDBRANCH  10  21
TORSDOF 2
ENDMDL
MODEL 3
REMARK VINA RESULT:      -7.8      2.260      4.453
REMARK  Name = 
REMARK  5 active torsions:
REMARK  status: ('A' for Active; 'I' for Inactive)
REMARK    1  A    between atoms: C_1  and  C_2
REMARK    2  A    between atoms: C_5  and  C_6
REMARK    3  A    between atoms: C_7  and  C_8
REMARK    4  A    between atoms: C_15  and  C_16
REMARK    5  A    between atoms: C_23  and  C_24
REMARK                            x       y       z     vdW  Elec       q    Type
REMARK                         _______ _______ _______ _____ _____    ______ ____
ROOT
ATOM      1  C   UNL     1       1.299   8.594  19.834  0.00  0.00    +0.000 A 
ATOM      2  C   UNL     1       0.747   8.043  21.024  0.00  0.00    +0.000 A 
ATOM      3  C   UNL     1      -0.137   8.772  22.006  0.00  0.00    +0.000 C 
ATOM      4  C   UNL     1       1.018   6.711  21.367  0.00  0.00    +0.000 A 
ATOM      5  C   UNL     1       1.923   5.962  20.634  0.00  0.00    +0.000 A 
ATOM      6  O   UNL     1       2.091   4.637  21.075  0.00  0.00    +0.000 OA
ATOM      7  C   UNL     1       2.889   3.770  20.371  0.00  0.00    +0.000 A 
ATOM      8  O   UNL     1       2.838   2.554  20.511  0.00  0.00    +0.000 OA
ATOM      9  C   UNL     1       3.838   4.378  19.434  0.00  0.00    +0.000 A 
ATOM     10  C   UNL     1       3.684   5.625  18.961  0.00  0.00    +0.000 A 
ATOM     11  C   UNL     1       2.589   6.471  19.514  0.00  0.00    +0.000 A 
ATOM     12  C   UNL     1       2.181   7.755  19.047  0.00  0.00    +0.000 A 
ATOM     13  C   UNL     1       2.651   8.250  17.695  0.00  0.00    +0.000 C 
ENDROOT
BRANCH   1  18
ATOM     14  C   UNL     1       0.055  14.074  18.196  0.00  0.00    +0.000 C 
ATOM     15  C   UNL     1       0.359  12.669  18.620  0.00  0.00    +0.000 A 
ATOM     16  C   UNL     1      -0.528  11.625  18.358  0.00  0.00    +0.000 A 
ATOM     17  C   UNL     1      -0.196  10.311  18.710  0.00  0.00    +0.000 A 
ATOM     18  C   UNL     1       0.985   9.999  19.409  0.00  0.00    +0.000 A 
ATOM     19  C   UNL     1       1.842  11.075  19.699  0.00  0.00    +0.000 A 
ATOM     20  C   UNL     1       1.560  12.378  19.271  0.00  0.00    +0.000 A 
ENDBRANCH   1  18
BRANCH  10  21
ATOM     21  C   UNL     1       4.641   5.989  17.901  0.00  0.00    +0.000 A 
ATOM     22  C   UNL     1       5.817   6.667  18.283  0.00  0.00    +0.000 A 
ATOM     23  C   UNL     1       6.854   6.835  17.372  0.00  0.00    +0.000 A 
ATOM     24  C   UNL     1       6.703   6.386  16.062  0.00  0.00    +0.000 A 
ATOM     25  C   UNL     1       5.505   5.798  15.654  0.00  0.00    +0.000 A 
ATOM     26  C   UNL     1       4.471   5.596  16.573  0.00  0.00    +0.000 A 
ENDBRANCH  10  21
TORSDOF 2
ENDMDL
MODEL 4
REMARK VINA RESULT:      -7.7      5.408      8.201
REMARK  Name = 
REMARK  5 active torsions:
REMARK  status: ('A' for Active; 'I' for Inactive)
REMARK    1  A    between atoms: C_1  and  C_2
REMARK    2  A    between atoms: C_5  and  C_6
REMARK    3  A    between atoms: C_7  and  C_8
REMARK    4  A    between atoms: C_15  and  C_16
REMARK    5  A    between atoms: C_23  and  C_24
REMARK                            x       y       z     vdW  Elec       q    Type
REMARK                         _______ _______ _______ _____ _____    ______ ____
ROOT
ATOM      1  C   UNL     1      -5.087  12.754  19.345  0.00  0.00    +0.000 A 
ATOM      2  C   UNL     1      -6.062  12.440  18.357  0.00  0.00    +0.000 A 
ATOM      3  C   UNL     1      -7.533  12.765  18.433  0.00  0.00    +0.000 C 
ATOM      4  C   UNL     1      -5.678  11.766  17.189  0.00  0.00    +0.000 A 
ATOM      5  C   UNL     1      -4.388  11.283  17.042  0.00  0.00    +0.000 A 
ATOM      6  O   UNL     1      -4.131  10.641  15.817  0.00  0.00    +0.000 OA
ATOM      7  C   UNL     1      -2.865  10.205  15.517  0.00  0.00    +0.000 A 
ATOM      8  O   UNL     1      -2.507   9.927  14.379  0.00  0.00    +0.000 OA
ATOM      9  C   UNL     1      -1.941  10.070  16.647  0.00  0.00    +0.000 A 
ATOM     10  C   UNL     1      -2.134  10.704  17.815  0.00  0.00    +0.000 A 
ATOM     11  C   UNL     1      -3.403  11.458  18.019  0.00  0.00    +0.000 A 
ATOM     12  C   UNL     1      -3.728  12.303  19.122  0.00  0.00    +0.000 A 
ATOM     13  C   UNL     1      -2.638  12.761  20.068  0.00  0.00    +0.000 C 
ENDROOT
BRANCH   1  18
ATOM     14  C   UNL     1      -6.493  15.743  24.177  0.00  0.00    +0.000 C 
ATOM     15  C   UNL     1      -6.124  14.968  22.948  0.00  0.00    +0.000 A 
ATOM     16  C   UNL     1      -6.089  13.573  22.954  0.00  0.00    +0.000 A 
ATOM     17  C   UNL     1      -5.801  12.870  21.778  0.00  0.00    +0.000 A 
ATOM     18  C   UNL     1      -5.454  13.523  20.581  0.00  0.00    +0.000 A 
ATOM     19  C   UNL     1      -5.454  14.928  20.613  0.00  0.00    +0.000 A 
ATOM     20  C   UNL     1      -5.829  15.639  21.759  0.00  0.00    +0.000 A 
ENDBRANCH   1  18
BRANCH  10  21
ATOM     21  C   UNL     1      -1.010  10.581  18.759  0.00  0.00    +0.000 A 
ATOM     22  C   UNL     1       0.091  11.445  18.586  0.00  0.00    +0.000 A 
ATOM     23  C   UNL     1       1.072  11.533  19.568  0.00  0.00    +0.000 A 
ATOM     24  C   UNL     1       0.996  10.719  20.696  0.00  0.00    +0.000 A 
ATOM     25  C   UNL     1      -0.042   9.796  20.828  0.00  0.00    +0.000 A 
ATOM     26  C   UNL     1      -1.049   9.725  19.861  0.00  0.00    +0.000 A 
ENDBRANCH  10  21
TORSDOF 2
ENDMDL
MODEL 5
REMARK VINA RESULT:      -7.4      4.455      7.383
REMARK  Name = 
REMARK  5 active torsions:
REMARK  status: ('A' for Active; 'I' for Inactive)
REMARK    1  A    between atoms: C_1  and  C_2
REMARK    2  A    between atoms: C_5  and  C_6
REMARK    3  A    between atoms: C_7  and  C_8
REMARK    4  A    between atoms: C_15  and  C_16
REMARK    5  A    between atoms: C_23  and  C_24
REMARK                            x       y       z     vdW  Elec       q    Type
REMARK                         _______ _______ _______ _____ _____    ______ ____
ROOT
ATOM      1  C   UNL     1      -3.643  12.863  20.430  0.00  0.00    +0.000 A 
ATOM      2  C   UNL     1      -4.904  12.836  19.770  0.00  0.00    +0.000 A 
ATOM      3  C   UNL     1      -6.185  13.443  20.288  0.00  0.00    +0.000 C 
ATOM      4  C   UNL     1      -5.027  12.199  18.527  0.00  0.00    +0.000 A 
ATOM      5  C   UNL     1      -3.970  11.481  17.993  0.00  0.00    +0.000 A 
ATOM      6  O   UNL     1      -4.221  10.906  16.734  0.00  0.00    +0.000 OA
ATOM      7  C   UNL     1      -3.219  10.251  16.061  0.00  0.00    +0.000 A 
ATOM      8  O   UNL     1      -3.271  10.004  14.863  0.00  0.00    +0.000 OA
ATOM      9  C   UNL     1      -2.063   9.838  16.862  0.00  0.00    +0.000 A 
ATOM     10  C   UNL     1      -1.772  10.396  18.048  0.00  0.00    +0.000 A 
ATOM     11  C   UNL     1      -2.733  11.371  18.636  0.00  0.00    +0.000 A 
ATOM     12  C   UNL     1      -2.538  12.167  19.803  0.00  0.00    +0.000 A 
ATOM     13  C   UNL     1      -1.150  12.315  20.392  0.00  0.00    +0.000 C 
ENDROOT
BRANCH   1  18
ATOM     14  C   UNL     1      -2.923  15.654  25.524  0.00  0.00    +0.000 C 
ATOM     15  C   UNL     1      -3.099  14.927  24.225  0.00  0.00    +0.000 A 
ATOM     16  C   UNL     1      -3.414  13.568  24.192  0.00  0.00    +0.000 A 
ATOM     17  C   UNL     1      -3.634  12.925  22.968  0.00  0.00    +0.000 A 
ATOM     18  C   UNL     1      -3.464  13.582  21.736  0.00  0.00    +0.000 A 
ATOM     19  C   UNL     1      -3.105  14.940  21.795  0.00  0.00    +0.000 A 
ATOM     20  C   UNL     1      -2.972  15.614  23.016  0.00  0.00    +0.000 A 
ENDBRANCH   1  18
BRANCH  10  21
ATOM     21  C   UNL     1      -0.479   9.969  18.612  0.00  0.00    +0.000 A 
ATOM     22  C   UNL     1      -0.453   9.569  19.964  0.00  0.00    +0.000 A 
ATOM     23  C   UNL     1       0.675   8.947  20.487  0.00  0.00    +0.000 A 
ATOM     24  C   UNL     1       1.804   8.776  19.688  0.00  0.00    +0.000 A 
ATOM     25  C   UNL     1       1.816   9.254  18.378  0.00  0.00    +0.000 A 
ATOM     26  C   UNL     1       0.674   9.850  17.835  0.00  0.00    +0.000 A 
ENDBRANCH  10  21
TORSDOF 2
ENDMDL
MODEL 6
REMARK VINA RESULT:      -7.3      4.578      7.354
REMARK  Name = 
REMARK  5 active torsions:
REMARK  status: ('A' for Active; 'I' for Inactive)
REMARK    1  A    between atoms: C_1  and  C_2
REMARK    2  A    between atoms: C_5  and  C_6
REMARK    3  A    between atoms: C_7  and  C_8
REMARK    4  A    between atoms: C_15  and  C_16
REMARK    5  A    between atoms: C_23  and  C_24
REMARK                            x       y       z     vdW  Elec       q    Type
REMARK                         _______ _______ _______ _____ _____    ______ ____
ROOT
ATOM      1  C   UNL     1       1.659  14.193  18.901  0.00  0.00    +0.000 A 
ATOM      2  C   UNL     1       0.490  14.973  19.127  0.00  0.00    +0.000 A 
ATOM      3  C   UNL     1       0.462  16.442  19.471  0.00  0.00    +0.000 C 
ATOM      4  C   UNL     1      -0.775  14.374  19.040  0.00  0.00    +0.000 A 
ATOM      5  C   UNL     1      -0.900  13.006  18.868  0.00  0.00    +0.000 A 
ATOM      6  O   UNL     1      -2.224  12.538  18.780  0.00  0.00    +0.000 OA
ATOM      7  C   UNL     1      -2.472  11.214  18.514  0.00  0.00    +0.000 A 
ATOM      8  O   UNL     1      -3.560  10.805  18.125  0.00  0.00    +0.000 OA
ATOM      9  C   UNL     1      -1.358  10.288  18.735  0.00  0.00    +0.000 A 
ATOM     10  C   UNL     1      -0.080  10.696  18.780  0.00  0.00    +0.000 A 
ATOM     11  C   UNL     1       0.206  12.158  18.746  0.00  0.00    +0.000 A 
ATOM     12  C   UNL     1       1.487  12.777  18.644  0.00  0.00    +0.000 A 
ATOM     13  C   UNL     1       2.692  11.954  18.236  0.00  0.00    +0.000 C 
ENDROOT
BRANCH   1  18
ATOM     14  C   UNL     1       6.976  16.636  19.022  0.00  0.00    +0.000 C 
ATOM     15  C   UNL     1       5.609  16.023  18.983  0.00  0.00    +0.000 A 
ATOM     16  C   UNL     1       4.850  16.019  17.812  0.00  0.00    +0.000 A 
ATOM     17  C   UNL     1       3.601  15.386  17.783  0.00  0.00    +0.000 A 
ATOM     18  C   UNL     1       3.025  14.813  18.933  0.00  0.00    +0.000 A 
ATOM     19  C   UNL     1       3.792  14.868  20.110  0.00  0.00    +0.000 A 
ATOM     20  C   UNL     1       5.080  15.419  20.126  0.00  0.00    +0.000 A 
ENDBRANCH   1  18
BRANCH  10  21
ATOM     21  C   UNL     1       0.901   9.598  18.835  0.00  0.00    +0.000 A 
ATOM     22  C   UNL     1       1.164   9.014  20.092  0.00  0.00    +0.000 A 
ATOM     23  C   UNL     1       1.900   7.838  20.176  0.00  0.00    +0.000 A 
ATOM     24  C   UNL     1       2.430   7.270  19.020  0.00  0.00    +0.000 A 
ATOM     25  C   UNL     1       2.252   7.894  17.785  0.00  0.00    +0.000 A 
ATOM     26  C   UNL     1       1.485   9.059  17.688  0.00  0.00    +0.000 A 
ENDBRANCH  10  21
TORSDOF 2
ENDMDL
MODEL 7
REMARK VINA RESULT:      -7.2      4.854      7.979
REMARK  Name = 
REMARK  5 active torsions:
REMARK  status: ('A' for Active; 'I' for Inactive)
REMARK    1  A    between atoms: C_1  and  C_2
REMARK    2  A    between atoms: C_5  and  C_6
REMARK    3  A    between atoms: C_7  and  C_8
REMARK    4  A    between atoms: C_15  and  C_16
REMARK    5  A    between atoms: C_23  and  C_24
REMARK                            x       y       z     vdW  Elec       q    Type
REMARK                         _______ _______ _______ _____ _____    ______ ____
ROOT
ATOM      1  C   UNL     1      -4.643  13.015  19.705  0.00  0.00    +0.000 A 
ATOM      2  C   UNL     1      -5.736  12.815  18.817  0.00  0.00    +0.000 A 
ATOM      3  C   UNL     1      -7.141  13.329  19.017  0.00  0.00    +0.000 C 
ATOM      4  C   UNL     1      -5.552  12.079  17.638  0.00  0.00    +0.000 A 
ATOM      5  C   UNL     1      -4.354  11.431  17.389  0.00  0.00    +0.000 A 
ATOM      6  O   UNL     1      -4.296  10.742  16.164  0.00  0.00    +0.000 OA
ATOM      7  C   UNL     1      -3.128  10.141  15.763  0.00  0.00    +0.000 A 
ATOM      8  O   UNL     1      -2.916   9.802  14.606  0.00  0.00    +0.000 OA
ATOM      9  C   UNL     1      -2.128   9.905  16.809  0.00  0.00    +0.000 A 
ATOM     10  C   UNL     1      -2.130  10.576  17.972  0.00  0.00    +0.000 A 
ATOM     11  C   UNL     1      -3.268  11.492  18.269  0.00  0.00    +0.000 A 
ATOM     12  C   UNL     1      -3.379  12.388  19.373  0.00  0.00    +0.000 A 
ATOM     13  C   UNL     1      -2.156  12.716  20.204  0.00  0.00    +0.000 C 
ENDROOT
BRANCH   1  18
ATOM     14  C   UNL     1      -5.247  16.256  24.541  0.00  0.00    +0.000 C 
ATOM     15  C   UNL     1      -5.101  15.437  23.294  0.00  0.00    +0.000 A 
ATOM     16  C   UNL     1      -4.796  16.030  22.069  0.00  0.00    +0.000 A 
ATOM     17  C   UNL     1      -4.605  15.238  20.930  0.00  0.00    +0.000 A 
ATOM     18  C   UNL     1      -4.792  13.844  20.948  0.00  0.00    +0.000 A 
ATOM     19  C   UNL     1      -5.140  13.275  22.185  0.00  0.00    +0.000 A 
ATOM     20  C   UNL     1      -5.245  14.048  23.348  0.00  0.00    +0.000 A 
ENDBRANCH   1  18
BRANCH  10  21
ATOM     21  C   UNL     1      -0.948  10.323  18.814  0.00  0.00    +0.000 A 
ATOM     22  C   UNL     1      -1.157   9.738  20.081  0.00  0.00    +0.000 A 
ATOM     23  C   UNL     1      -0.078   9.270  20.822  0.00  0.00    +0.000 A 
ATOM     24  C   UNL     1       1.217   9.437  20.337  0.00  0.00    +0.000 A 
ATOM     25  C   UNL     1       1.436  10.097  19.128  0.00  0.00    +0.000 A 
ATOM     26  C   UNL     1       0.354  10.541  18.362  0.00  0.00    +0.000 A 
ENDBRANCH  10  21
TORSDOF 2
ENDMDL
MODEL 8
REMARK VINA RESULT:      -7.2      8.731     10.611
REMARK  Name = 
REMARK  5 active torsions:
REMARK  status: ('A' for Active; 'I' for Inactive)
REMARK    1  A    between atoms: C_1  and  C_2
REMARK    2  A    between atoms: C_5  and  C_6
REMARK    3  A    between atoms: C_7  and  C_8
REMARK    4  A    between atoms: C_15  and  C_16
REMARK    5  A    between atoms: C_23  and  C_24
REMARK                            x       y       z     vdW  Elec       q    Type
REMARK                         _______ _______ _______ _____ _____    ______ ____
ROOT
ATOM      1  C   UNL     1       6.961  14.146  22.971  0.00  0.00    +0.000 A 
ATOM      2  C   UNL     1       6.016  15.181  22.720  0.00  0.00    +0.000 A 
ATOM      3  C   UNL     1       4.758  15.439  23.514  0.00  0.00    +0.000 C 
ATOM      4  C   UNL     1       6.218  16.066  21.652  0.00  0.00    +0.000 A 
ATOM      5  C   UNL     1       7.254  15.868  20.755  0.00  0.00    +0.000 A 
ATOM      6  O   UNL     1       7.354  16.836  19.740  0.00  0.00    +0.000 OA
ATOM      7  C   UNL     1       8.398  16.799  18.849  0.00  0.00    +0.000 A 
ATOM      8  O   UNL     1       8.717  17.757  18.155  0.00  0.00    +0.000 OA
ATOM      9  C   UNL     1       9.124  15.529  18.753  0.00  0.00    +0.000 A 
ATOM     10  C   UNL     1       9.084  14.602  19.723  0.00  0.00    +0.000 A 
ATOM     11  C   UNL     1       8.160  14.808  20.874  0.00  0.00    +0.000 A 
ATOM     12  C   UNL     1       8.078  14.016  22.058  0.00  0.00    +0.000 A 
ATOM     13  C   UNL     1       9.186  13.038  22.388  0.00  0.00    +0.000 C 
ENDROOT
BRANCH   1  18
ATOM     14  C   UNL     1       6.329  10.536  27.534  0.00  0.00    +0.000 C 
ATOM     15  C   UNL     1       6.487  11.473  26.375  0.00  0.00    +0.000 A 
ATOM     16  C   UNL     1       7.140  12.697  26.516  0.00  0.00    +0.000 A 
ATOM     17  C   UNL     1       7.328  13.529  25.405  0.00  0.00    +0.000 A 
ATOM     18  C   UNL     1       6.803  13.216  24.138  0.00  0.00    +0.000 A 
ATOM     19  C   UNL     1       6.113  11.996  24.031  0.00  0.00    +0.000 A 
ATOM     20  C   UNL     1       5.998  11.117  25.115  0.00  0.00    +0.000 A 
ENDBRANCH   1  18
BRANCH  10  21
ATOM     21  C   UNL     1      10.014  13.477  19.518  0.00  0.00    +0.000 A 
ATOM     22  C   UNL     1       9.526  12.335  18.850  0.00  0.00    +0.000 A 
ATOM     23  C   UNL     1      10.404  11.343  18.429  0.00  0.00    +0.000 A 
ATOM     24  C   UNL     1      11.761  11.450  18.724  0.00  0.00    +0.000 A 
ATOM     25  C   UNL     1      12.235  12.533  19.465  0.00  0.00    +0.000 A 
ATOM     26  C   UNL     1      11.364  13.550  19.863  0.00  0.00    +0.000 A 
ENDBRANCH  10  21
TORSDOF 2
ENDMDL
MODEL 9
REMARK VINA RESULT:      -7.1      8.832     10.858
REMARK  Name = 
REMARK  5 active torsions:
REMARK  status: ('A' for Active; 'I' for Inactive)
REMARK    1  A    between atoms: C_1  and  C_2
REMARK    2  A    between atoms: C_5  and  C_6
REMARK    3  A    between atoms: C_7  and  C_8
REMARK    4  A    between atoms: C_15  and  C_16
REMARK    5  A    between atoms: C_23  and  C_24
REMARK                            x       y       z     vdW  Elec       q    Type
REMARK                         _______ _______ _______ _____ _____    ______ ____
ROOT
ATOM      1  C   UNL     1       7.248  14.539  22.599  0.00  0.00    +0.000 A 
ATOM      2  C   UNL     1       6.409  15.670  22.392  0.00  0.00    +0.000 A 
ATOM      3  C   UNL     1       5.194  16.028  23.211  0.00  0.00    +0.000 C 
ATOM      4  C   UNL     1       6.685  16.561  21.346  0.00  0.00    +0.000 A 
ATOM      5  C   UNL     1       7.686  16.287  20.428  0.00  0.00    +0.000 A 
ATOM      6  O   UNL     1       7.870  17.270  19.439  0.00  0.00    +0.000 OA
ATOM      7  C   UNL     1       8.894  17.155  18.532  0.00  0.00    +0.000 A 
ATOM      8  O   UNL     1       9.298  18.097  17.860  0.00  0.00    +0.000 OA
ATOM      9  C   UNL     1       9.487  15.823  18.389  0.00  0.00    +0.000 A 
ATOM     10  C   UNL     1       9.366  14.876  19.333  0.00  0.00    +0.000 A 
ATOM     11  C   UNL     1       8.482  15.139  20.503  0.00  0.00    +0.000 A 
ATOM     12  C   UNL     1       8.336  14.325  21.665  0.00  0.00    +0.000 A 
ATOM     13  C   UNL     1       9.344  13.231  21.952  0.00  0.00    +0.000 C 
ENDROOT
BRANCH   1  18
ATOM     14  C   UNL     1       6.347  10.840  27.044  0.00  0.00    +0.000 C 
ATOM     15  C   UNL     1       6.582  11.775  25.896  0.00  0.00    +0.000 A 
ATOM     16  C   UNL     1       6.110  11.483  24.616  0.00  0.00    +0.000 A 
ATOM     17  C   UNL     1       6.288  12.400  23.573  0.00  0.00    +0.000 A 
ATOM     18  C   UNL     1       7.013  13.595  23.742  0.00  0.00    +0.000 A 
ATOM     19  C   UNL     1       7.514  13.845  25.031  0.00  0.00    +0.000 A 
ATOM     20  C   UNL     1       7.263  12.977  26.100  0.00  0.00    +0.000 A 
ENDBRANCH   1  18
BRANCH  10  21
ATOM     21  C   UNL     1      10.176  13.670  19.082  0.00  0.00    +0.000 A 
ATOM     22  C   UNL     1       9.559  12.592  18.414  0.00  0.00    +0.000 A 
ATOM     23  C   UNL     1      10.324  11.528  17.951  0.00  0.00    +0.000 A 
ATOM     24  C   UNL     1      11.694  11.499  18.204  0.00  0.00    +0.000 A 
ATOM     25  C   UNL     1      12.293  12.517  18.945  0.00  0.00    +0.000 A 
ATOM     26  C   UNL     1      11.537  13.607  19.385  0.00  0.00    +0.000 A 
ENDBRANCH  10  21
TORSDOF 2
ENDMDL
