MODEL 1
REMARK VINA RESULT:      -7.9      0.000      0.000
REMARK  Name = 
REMARK  7 active torsions:
REMARK  status: ('A' for Active; 'I' for Inactive)
REMARK    1  A    between atoms: C_1  and  C_2
REMARK    2  A    between atoms: C_2  and  C_11
REMARK    3  A    between atoms: C_3  and  C_4
REMARK    4  A    between atoms: C_11  and  C_13
REMARK    5  A    between atoms: C_14  and  C_15
REMARK    6  A    between atoms: C_17  and  C_18
REMARK    7  A    between atoms: C_20  and  O_21
REMARK                            x       y       z     vdW  Elec       q    Type
REMARK                         _______ _______ _______ _____ _____    ______ ____
ROOT
ATOM      1  C   UNL     1       5.750   4.886  18.763  0.00  0.00    +0.000 C 
ATOM      2  O   UNL     1       6.441   5.338  19.677  0.00  0.00    +0.000 OA
ENDROOT
BRANCH   1   3
ATOM      3  C   UNL     1       4.371   4.428  19.085  0.00  0.00    +0.000 A 
ATOM      4  C   UNL     1       3.249   5.268  18.935  0.00  0.00    +0.000 A 
ATOM      5  C   UNL     1       3.298   6.699  18.467  0.00  0.00    +0.000 C 
ATOM      6  C   UNL     1       1.983   4.772  19.303  0.00  0.00    +0.000 A 
ATOM      7  C   UNL     1       1.860   3.478  19.797  0.00  0.00    +0.000 A 
ATOM      8  C   UNL     1       0.521   2.912  20.163  0.00  0.00    +0.000 C 
ATOM      9  N   UNL     1       2.927   2.672  19.971  0.00  0.00    +0.000 NA
ATOM     10  C   UNL     1       4.133   3.176  19.644  0.00  0.00    +0.000 A 
BRANCH  10  11
ATOM     11  O   UNL     1       5.117   2.305  19.973  0.00  0.00    +0.000 OA
ATOM     12  H   UNL     1       4.714   1.478  19.649  0.00  0.00    +0.000 HD
ENDBRANCH  10  11
ENDBRANCH   1   3
BRANCH   1  14
ATOM     13  C   UNL     1       7.815   4.441  17.390  0.00  0.00    +0.000 C 
ATOM     14  C   UNL     1       6.346   4.788  17.373  0.00  0.00    +0.000 C 
ATOM     15  C   UNL     1       5.637   5.000  16.247  0.00  0.00    +0.000 C 
BRANCH  15  16
ATOM     16  C   UNL     1       6.137   4.728  14.894  0.00  0.00    +0.000 A 
ATOM     17  C   UNL     1       5.483   3.778  14.094  0.00  0.00    +0.000 A 
ATOM     18  C   UNL     1       5.949   3.498  12.808  0.00  0.00    +0.000 A 
ATOM     19  C   UNL     1       7.070   4.171  12.325  0.00  0.00    +0.000 A 
ATOM     20  F   UNL     1       7.523   3.902  11.096  0.00  0.00    +0.000 F 
ATOM     21  C   UNL     1       7.725   5.116  13.109  0.00  0.00    +0.000 A 
ATOM     22  C   UNL     1       7.260   5.398  14.396  0.00  0.00    +0.000 A 
ENDBRANCH  15  16
ENDBRANCH   1  14
TORSDOF 4
ENDMDL
MODEL 2
REMARK VINA RESULT:      -7.9      0.810      1.495
REMARK  Name = 
REMARK  7 active torsions:
REMARK  status: ('A' for Active; 'I' for Inactive)
REMARK    1  A    between atoms: C_1  and  C_2
REMARK    2  A    between atoms: C_2  and  C_11
REMARK    3  A    between atoms: C_3  and  C_4
REMARK    4  A    between atoms: C_11  and  C_13
REMARK    5  A    between atoms: C_14  and  C_15
REMARK    6  A    between atoms: C_17  and  C_18
REMARK    7  A    between atoms: C_20  and  O_21
REMARK                            x       y       z     vdW  Elec       q    Type
REMARK                         _______ _______ _______ _____ _____    ______ ____
ROOT
ATOM      1  C   UNL     1       5.367   5.302  18.527  0.00  0.00    +0.000 C 
ATOM      2  O   UNL     1       6.247   5.842  19.199  0.00  0.00    +0.000 OA
ENDROOT
BRANCH   1   3
ATOM      3  C   UNL     1       4.224   4.672  19.242  0.00  0.00    +0.000 A 
ATOM      4  C   UNL     1       3.078   5.404  19.614  0.00  0.00    +0.000 A 
ATOM      5  C   UNL     1       2.876   6.876  19.365  0.00  0.00    +0.000 C 
ATOM      6  C   UNL     1       2.059   4.743  20.327  0.00  0.00    +0.000 A 
ATOM      7  C   UNL     1       2.194   3.396  20.646  0.00  0.00    +0.000 A 
ATOM      8  C   UNL     1       1.110   2.659  21.372  0.00  0.00    +0.000 C 
ATOM      9  N   UNL     1       3.295   2.689  20.320  0.00  0.00    +0.000 NA
ATOM     10  C   UNL     1       4.273   3.348  19.667  0.00  0.00    +0.000 A 
BRANCH  10  11
ATOM     11  O   UNL     1       5.356   2.551  19.505  0.00  0.00    +0.000 OA
ATOM     12  H   UNL     1       5.635   2.468  20.436  0.00  0.00    +0.000 HD
ENDBRANCH  10  11
ENDBRANCH   1   3
BRANCH   1  14
ATOM     13  C   UNL     1       4.908   6.490  16.354  0.00  0.00    +0.000 C 
ATOM     14  C   UNL     1       5.509   5.275  17.019  0.00  0.00    +0.000 C 
ATOM     15  C   UNL     1       6.099   4.266  16.348  0.00  0.00    +0.000 C 
BRANCH  15  16
ATOM     16  C   UNL     1       6.417   4.302  14.915  0.00  0.00    +0.000 A 
ATOM     17  C   UNL     1       7.473   5.108  14.462  0.00  0.00    +0.000 A 
ATOM     18  C   UNL     1       7.784   5.163  13.102  0.00  0.00    +0.000 A 
ATOM     19  C   UNL     1       7.037   4.411  12.199  0.00  0.00    +0.000 A 
ATOM     20  F   UNL     1       7.328   4.465  10.895  0.00  0.00    +0.000 F 
ATOM     21  C   UNL     1       5.988   3.607  12.637  0.00  0.00    +0.000 A 
ATOM     22  C   UNL     1       5.675   3.550  13.997  0.00  0.00    +0.000 A 
ENDBRANCH  15  16
ENDBRANCH   1  14
TORSDOF 4
ENDMDL
MODEL 3
REMARK VINA RESULT:      -7.9      0.040      1.058
REMARK  Name = 
REMARK  7 active torsions:
REMARK  status: ('A' for Active; 'I' for Inactive)
REMARK    1  A    between atoms: C_1  and  C_2
REMARK    2  A    between atoms: C_2  and  C_11
REMARK    3  A    between atoms: C_3  and  C_4
REMARK    4  A    between atoms: C_11  and  C_13
REMARK    5  A    between atoms: C_14  and  C_15
REMARK    6  A    between atoms: C_17  and  C_18
REMARK    7  A    between atoms: C_20  and  O_21
REMARK                            x       y       z     vdW  Elec       q    Type
REMARK                         _______ _______ _______ _____ _____    ______ ____
ROOT
ATOM      1  C   UNL     1       5.742   4.857  18.776  0.00  0.00    +0.000 C 
ATOM      2  O   UNL     1       6.437   5.304  19.690  0.00  0.00    +0.000 OA
ENDROOT
BRANCH   1   3
ATOM      3  C   UNL     1       4.363   4.402  19.101  0.00  0.00    +0.000 A 
ATOM      4  C   UNL     1       3.243   5.247  18.960  0.00  0.00    +0.000 A 
ATOM      5  C   UNL     1       3.295   6.679  18.499  0.00  0.00    +0.000 C 
ATOM      6  C   UNL     1       1.977   4.752  19.331  0.00  0.00    +0.000 A 
ATOM      7  C   UNL     1       1.851   3.457  19.819  0.00  0.00    +0.000 A 
ATOM      8  C   UNL     1       0.512   2.893  20.188  0.00  0.00    +0.000 C 
ATOM      9  N   UNL     1       2.916   2.647  19.985  0.00  0.00    +0.000 NA
ATOM     10  C   UNL     1       4.122   3.148  19.655  0.00  0.00    +0.000 A 
BRANCH  10  11
ATOM     11  O   UNL     1       5.105   2.272  19.976  0.00  0.00    +0.000 OA
ATOM     12  H   UNL     1       5.674   2.859  20.509  0.00  0.00    +0.000 HD
ENDBRANCH  10  11
ENDBRANCH   1   3
BRANCH   1  14
ATOM     13  C   UNL     1       7.810   4.451  17.397  0.00  0.00    +0.000 C 
ATOM     14  C   UNL     1       6.333   4.761  17.384  0.00  0.00    +0.000 C 
ATOM     15  C   UNL     1       5.613   4.946  16.260  0.00  0.00    +0.000 C 
BRANCH  15  16
ATOM     16  C   UNL     1       6.112   4.675  14.906  0.00  0.00    +0.000 A 
ATOM     17  C   UNL     1       7.236   5.370  14.433  0.00  0.00    +0.000 A 
ATOM     18  C   UNL     1       7.721   5.133  13.145  0.00  0.00    +0.000 A 
ATOM     19  C   UNL     1       7.078   4.200  12.334  0.00  0.00    +0.000 A 
ATOM     20  F   UNL     1       7.535   3.974  11.097  0.00  0.00    +0.000 F 
ATOM     21  C   UNL     1       5.963   3.504  12.794  0.00  0.00    +0.000 A 
ATOM     22  C   UNL     1       5.478   3.739  14.082  0.00  0.00    +0.000 A 
ENDBRANCH  15  16
ENDBRANCH   1  14
TORSDOF 4
ENDMDL
MODEL 4
REMARK VINA RESULT:      -7.9      0.757      1.009
REMARK  Name = 
REMARK  7 active torsions:
REMARK  status: ('A' for Active; 'I' for Inactive)
REMARK    1  A    between atoms: C_1  and  C_2
REMARK    2  A    between atoms: C_2  and  C_11
REMARK    3  A    between atoms: C_3  and  C_4
REMARK    4  A    between atoms: C_11  and  C_13
REMARK    5  A    between atoms: C_14  and  C_15
REMARK    6  A    between atoms: C_17  and  C_18
REMARK    7  A    between atoms: C_20  and  O_21
REMARK                            x       y       z     vdW  Elec       q    Type
REMARK                         _______ _______ _______ _____ _____    ______ ____
ROOT
ATOM      1  C   UNL     1       5.393   5.302  18.453  0.00  0.00    +0.000 C 
ATOM      2  O   UNL     1       6.283   5.791  19.150  0.00  0.00    +0.000 OA
ENDROOT
BRANCH   1   3
ATOM      3  C   UNL     1       4.216   4.701  19.137  0.00  0.00    +0.000 A 
ATOM      4  C   UNL     1       3.053   5.446  19.421  0.00  0.00    +0.000 A 
ATOM      5  C   UNL     1       2.864   6.905  19.102  0.00  0.00    +0.000 C 
ATOM      6  C   UNL     1       2.001   4.812  20.111  0.00  0.00    +0.000 A 
ATOM      7  C   UNL     1       2.120   3.480  20.492  0.00  0.00    +0.000 A 
ATOM      8  C   UNL     1       1.003   2.771  21.195  0.00  0.00    +0.000 C 
ATOM      9  N   UNL     1       3.236   2.763  20.250  0.00  0.00    +0.000 NA
ATOM     10  C   UNL     1       4.244   3.395  19.619  0.00  0.00    +0.000 A 
BRANCH  10  11
ATOM     11  O   UNL     1       5.335   2.595  19.543  0.00  0.00    +0.000 OA
ATOM     12  H   UNL     1       5.066   1.898  20.171  0.00  0.00    +0.000 HD
ENDBRANCH  10  11
ENDBRANCH   1   3
BRANCH   1  14
ATOM     13  C   UNL     1       5.028   6.569  16.306  0.00  0.00    +0.000 C 
ATOM     14  C   UNL     1       5.555   5.307  16.946  0.00  0.00    +0.000 C 
ATOM     15  C   UNL     1       6.100   4.286  16.257  0.00  0.00    +0.000 C 
BRANCH  15  16
ATOM     16  C   UNL     1       6.440   4.342  14.830  0.00  0.00    +0.000 A 
ATOM     17  C   UNL     1       5.694   3.585  13.912  0.00  0.00    +0.000 A 
ATOM     18  C   UNL     1       6.008   3.617  12.552  0.00  0.00    +0.000 A 
ATOM     19  C   UNL     1       7.068   4.408  12.114  0.00  0.00    +0.000 A 
ATOM     20  F   UNL     1       7.375   4.437  10.812  0.00  0.00    +0.000 F 
ATOM     21  C   UNL     1       7.813   5.163  13.015  0.00  0.00    +0.000 A 
ATOM     22  C   UNL     1       7.501   5.133  14.375  0.00  0.00    +0.000 A 
ENDBRANCH  15  16
ENDBRANCH   1  14
TORSDOF 4
ENDMDL
MODEL 5
REMARK VINA RESULT:      -7.3      4.206      7.398
REMARK  Name = 
REMARK  7 active torsions:
REMARK  status: ('A' for Active; 'I' for Inactive)
REMARK    1  A    between atoms: C_1  and  C_2
REMARK    2  A    between atoms: C_2  and  C_11
REMARK    3  A    between atoms: C_3  and  C_4
REMARK    4  A    between atoms: C_11  and  C_13
REMARK    5  A    between atoms: C_14  and  C_15
REMARK    6  A    between atoms: C_17  and  C_18
REMARK    7  A    between atoms: C_20  and  O_21
REMARK                            x       y       z     vdW  Elec       q    Type
REMARK                         _______ _______ _______ _____ _____    ______ ____
ROOT
ATOM      1  C   UNL     1       3.502   4.499  19.672  0.00  0.00    +0.000 C 
ATOM      2  O   UNL     1       3.649   3.599  20.500  0.00  0.00    +0.000 OA
ENDROOT
BRANCH   1   3
ATOM      3  C   UNL     1       4.389   4.505  18.477  0.00  0.00    +0.000 A 
ATOM      4  C   UNL     1       3.948   4.055  17.215  0.00  0.00    +0.000 A 
ATOM      5  C   UNL     1       2.576   3.506  16.926  0.00  0.00    +0.000 C 
ATOM      6  C   UNL     1       4.864   4.052  16.145  0.00  0.00    +0.000 A 
ATOM      7  C   UNL     1       6.168   4.491  16.343  0.00  0.00    +0.000 A 
ATOM      8  C   UNL     1       7.153   4.532  15.214  0.00  0.00    +0.000 C 
ATOM      9  N   UNL     1       6.612   4.899  17.550  0.00  0.00    +0.000 NA
ATOM     10  C   UNL     1       5.730   4.864  18.568  0.00  0.00    +0.000 A 
BRANCH  10  11
ATOM     11  O   UNL     1       6.338   5.192  19.734  0.00  0.00    +0.000 OA
ATOM     12  H   UNL     1       6.904   4.405  19.847  0.00  0.00    +0.000 HD
ENDBRANCH  10  11
ENDBRANCH   1   3
BRANCH   1  14
ATOM     13  C   UNL     1       1.191   5.014  20.531  0.00  0.00    +0.000 C 
ATOM     14  C   UNL     1       2.458   5.568  19.927  0.00  0.00    +0.000 C 
ATOM     15  C   UNL     1       2.644   6.870  19.631  0.00  0.00    +0.000 C 
BRANCH  15  16
ATOM     16  C   UNL     1       1.732   7.946  20.037  0.00  0.00    +0.000 A 
ATOM     17  C   UNL     1       1.308   8.888  19.086  0.00  0.00    +0.000 A 
ATOM     18  C   UNL     1       0.449   9.924  19.455  0.00  0.00    +0.000 A 
ATOM     19  C   UNL     1       0.016  10.016  20.776  0.00  0.00    +0.000 A 
ATOM     20  F   UNL     1      -0.803  11.010  21.135  0.00  0.00    +0.000 F 
ATOM     21  C   UNL     1       0.428   9.086  21.727  0.00  0.00    +0.000 A 
ATOM     22  C   UNL     1       1.287   8.048  21.360  0.00  0.00    +0.000 A 
ENDBRANCH  15  16
ENDBRANCH   1  14
TORSDOF 4
ENDMDL
MODEL 6
REMARK VINA RESULT:      -7.3      4.211      7.392
REMARK  Name = 
REMARK  7 active torsions:
REMARK  status: ('A' for Active; 'I' for Inactive)
REMARK    1  A    between atoms: C_1  and  C_2
REMARK    2  A    between atoms: C_2  and  C_11
REMARK    3  A    between atoms: C_3  and  C_4
REMARK    4  A    between atoms: C_11  and  C_13
REMARK    5  A    between atoms: C_14  and  C_15
REMARK    6  A    between atoms: C_17  and  C_18
REMARK    7  A    between atoms: C_20  and  O_21
REMARK                            x       y       z     vdW  Elec       q    Type
REMARK                         _______ _______ _______ _____ _____    ______ ____
ROOT
ATOM      1  C   UNL     1       3.511   4.497  19.662  0.00  0.00    +0.000 C 
ATOM      2  O   UNL     1       3.658   3.596  20.490  0.00  0.00    +0.000 OA
ENDROOT
BRANCH   1   3
ATOM      3  C   UNL     1       4.397   4.504  18.467  0.00  0.00    +0.000 A 
ATOM      4  C   UNL     1       3.956   4.054  17.205  0.00  0.00    +0.000 A 
ATOM      5  C   UNL     1       2.584   3.505  16.916  0.00  0.00    +0.000 C 
ATOM      6  C   UNL     1       4.871   4.052  16.134  0.00  0.00    +0.000 A 
ATOM      7  C   UNL     1       6.175   4.491  16.332  0.00  0.00    +0.000 A 
ATOM      8  C   UNL     1       7.160   4.534  15.203  0.00  0.00    +0.000 C 
ATOM      9  N   UNL     1       6.619   4.899  17.538  0.00  0.00    +0.000 NA
ATOM     10  C   UNL     1       5.739   4.863  18.557  0.00  0.00    +0.000 A 
BRANCH  10  11
ATOM     11  O   UNL     1       6.347   5.191  19.723  0.00  0.00    +0.000 OA
ATOM     12  H   UNL     1       6.225   4.353  20.208  0.00  0.00    +0.000 HD
ENDBRANCH  10  11
ENDBRANCH   1   3
BRANCH   1  14
ATOM     13  C   UNL     1       1.208   5.015  20.542  0.00  0.00    +0.000 C 
ATOM     14  C   UNL     1       2.468   5.566  19.918  0.00  0.00    +0.000 C 
ATOM     15  C   UNL     1       2.647   6.865  19.608  0.00  0.00    +0.000 C 
BRANCH  15  16
ATOM     16  C   UNL     1       1.738   7.944  20.014  0.00  0.00    +0.000 A 
ATOM     17  C   UNL     1       1.289   8.004  21.343  0.00  0.00    +0.000 A 
ATOM     18  C   UNL     1       0.416   9.017  21.747  0.00  0.00    +0.000 A 
ATOM     19  C   UNL     1      -0.006   9.966  20.818  0.00  0.00    +0.000 A 
ATOM     20  F   UNL     1      -0.847  10.934  21.199  0.00  0.00    +0.000 F 
ATOM     21  C   UNL     1       0.433   9.916  19.498  0.00  0.00    +0.000 A 
ATOM     22  C   UNL     1       1.307   8.905  19.093  0.00  0.00    +0.000 A 
ENDBRANCH  15  16
ENDBRANCH   1  14
TORSDOF 4
ENDMDL
MODEL 7
REMARK VINA RESULT:      -7.3      4.189      7.283
REMARK  Name = 
REMARK  7 active torsions:
REMARK  status: ('A' for Active; 'I' for Inactive)
REMARK    1  A    between atoms: C_1  and  C_2
REMARK    2  A    between atoms: C_2  and  C_11
REMARK    3  A    between atoms: C_3  and  C_4
REMARK    4  A    between atoms: C_11  and  C_13
REMARK    5  A    between atoms: C_14  and  C_15
REMARK    6  A    between atoms: C_17  and  C_18
REMARK    7  A    between atoms: C_20  and  O_21
REMARK                            x       y       z     vdW  Elec       q    Type
REMARK                         _______ _______ _______ _____ _____    ______ ____
ROOT
ATOM      1  C   UNL     1       4.569   5.715  18.498  0.00  0.00    +0.000 C 
ATOM      2  O   UNL     1       5.313   5.508  19.458  0.00  0.00    +0.000 OA
ENDROOT
BRANCH   1   3
ATOM      3  C   UNL     1       5.009   5.250  17.155  0.00  0.00    +0.000 A 
ATOM      4  C   UNL     1       4.642   3.990  16.641  0.00  0.00    +0.000 A 
ATOM      5  C   UNL     1       3.804   2.972  17.368  0.00  0.00    +0.000 C 
ATOM      6  C   UNL     1       5.138   3.608  15.378  0.00  0.00    +0.000 A 
ATOM      7  C   UNL     1       5.965   4.469  14.666  0.00  0.00    +0.000 A 
ATOM      8  C   UNL     1       6.477   4.105  13.305  0.00  0.00    +0.000 C 
ATOM      9  N   UNL     1       6.345   5.667  15.156  0.00  0.00    +0.000 NA
ATOM     10  C   UNL     1       5.888   6.000  16.378  0.00  0.00    +0.000 A 
BRANCH  10  11
ATOM     11  O   UNL     1       6.436   7.169  16.789  0.00  0.00    +0.000 OA
ATOM     12  H   UNL     1       5.817   7.391  17.510  0.00  0.00    +0.000 HD
ENDBRANCH  10  11
ENDBRANCH   1   3
BRANCH   1  14
ATOM     13  C   UNL     1       2.215   5.600  19.390  0.00  0.00    +0.000 C 
ATOM     14  C   UNL     1       3.267   6.456  18.726  0.00  0.00    +0.000 C 
ATOM     15  C   UNL     1       3.071   7.739  18.361  0.00  0.00    +0.000 C 
BRANCH  15  16
ATOM     16  C   UNL     1       1.895   8.533  18.737  0.00  0.00    +0.000 A 
ATOM     17  C   UNL     1       1.152   9.182  17.737  0.00  0.00    +0.000 A 
ATOM     18  C   UNL     1       0.036   9.950  18.076  0.00  0.00    +0.000 A 
ATOM     19  C   UNL     1      -0.332  10.067  19.414  0.00  0.00    +0.000 A 
ATOM     20  F   UNL     1      -1.397  10.807  19.743  0.00  0.00    +0.000 F 
ATOM     21  C   UNL     1       0.397   9.428  20.413  0.00  0.00    +0.000 A 
ATOM     22  C   UNL     1       1.512   8.658  20.077  0.00  0.00    +0.000 A 
ENDBRANCH  15  16
ENDBRANCH   1  14
TORSDOF 4
ENDMDL
MODEL 8
REMARK VINA RESULT:      -7.2      4.219      7.334
REMARK  Name = 
REMARK  7 active torsions:
REMARK  status: ('A' for Active; 'I' for Inactive)
REMARK    1  A    between atoms: C_1  and  C_2
REMARK    2  A    between atoms: C_2  and  C_11
REMARK    3  A    between atoms: C_3  and  C_4
REMARK    4  A    between atoms: C_11  and  C_13
REMARK    5  A    between atoms: C_14  and  C_15
REMARK    6  A    between atoms: C_17  and  C_18
REMARK    7  A    between atoms: C_20  and  O_21
REMARK                            x       y       z     vdW  Elec       q    Type
REMARK                         _______ _______ _______ _____ _____    ______ ____
ROOT
ATOM      1  C   UNL     1       4.443   5.737  18.686  0.00  0.00    +0.000 C 
ATOM      2  O   UNL     1       5.074   5.406  19.691  0.00  0.00    +0.000 OA
ENDROOT
BRANCH   1   3
ATOM      3  C   UNL     1       5.011   5.391  17.355  0.00  0.00    +0.000 A 
ATOM      4  C   UNL     1       4.624   4.230  16.654  0.00  0.00    +0.000 A 
ATOM      5  C   UNL     1       3.636   3.210  17.153  0.00  0.00    +0.000 C 
ATOM      6  C   UNL     1       5.242   3.953  15.418  0.00  0.00    +0.000 A 
ATOM      7  C   UNL     1       6.207   4.817  14.913  0.00  0.00    +0.000 A 
ATOM      8  C   UNL     1       6.855   4.566  13.586  0.00  0.00    +0.000 C 
ATOM      9  N   UNL     1       6.607   5.917  15.585  0.00  0.00    +0.000 NA
ATOM     10  C   UNL     1       6.028   6.147  16.779  0.00  0.00    +0.000 A 
BRANCH  10  11
ATOM     11  O   UNL     1       6.601   7.214  17.387  0.00  0.00    +0.000 OA
ATOM     12  H   UNL     1       7.536   6.940  17.344  0.00  0.00    +0.000 HD
ENDBRANCH  10  11
ENDBRANCH   1   3
BRANCH   1  14
ATOM     13  C   UNL     1       2.068   5.688  19.524  0.00  0.00    +0.000 C 
ATOM     14  C   UNL     1       3.147   6.503  18.853  0.00  0.00    +0.000 C 
ATOM     15  C   UNL     1       2.978   7.773  18.433  0.00  0.00    +0.000 C 
BRANCH  15  16
ATOM     16  C   UNL     1       1.805   8.597  18.749  0.00  0.00    +0.000 A 
ATOM     17  C   UNL     1       1.434   8.785  20.090  0.00  0.00    +0.000 A 
ATOM     18  C   UNL     1       0.315   9.558  20.409  0.00  0.00    +0.000 A 
ATOM     19  C   UNL     1      -0.428  10.140  19.386  0.00  0.00    +0.000 A 
ATOM     20  F   UNL     1      -1.504  10.876  19.688  0.00  0.00    +0.000 F 
ATOM     21  C   UNL     1      -0.069   9.961  18.053  0.00  0.00    +0.000 A 
ATOM     22  C   UNL     1       1.050   9.190  17.731  0.00  0.00    +0.000 A 
ENDBRANCH  15  16
ENDBRANCH   1  14
TORSDOF 4
ENDMDL
MODEL 9
REMARK VINA RESULT:      -6.9      4.767      7.043
REMARK  Name = 
REMARK  7 active torsions:
REMARK  status: ('A' for Active; 'I' for Inactive)
REMARK    1  A    between atoms: C_1  and  C_2
REMARK    2  A    between atoms: C_2  and  C_11
REMARK    3  A    between atoms: C_3  and  C_4
REMARK    4  A    between atoms: C_11  and  C_13
REMARK    5  A    between atoms: C_14  and  C_15
REMARK    6  A    between atoms: C_17  and  C_18
REMARK    7  A    between atoms: C_20  and  O_21
REMARK                            x       y       z     vdW  Elec       q    Type
REMARK                         _______ _______ _______ _____ _____    ______ ____
ROOT
ATOM      1  C   UNL     1       3.675   6.677  17.803  0.00  0.00    +0.000 C 
ATOM      2  O   UNL     1       4.408   7.039  16.880  0.00  0.00    +0.000 OA
ENDROOT
BRANCH   1   3
ATOM      3  C   UNL     1       3.854   5.303  18.344  0.00  0.00    +0.000 A 
ATOM      4  C   UNL     1       2.837   4.329  18.267  0.00  0.00    +0.000 A 
ATOM      5  C   UNL     1       1.474   4.551  17.668  0.00  0.00    +0.000 C 
ATOM      6  C   UNL     1       3.071   3.065  18.843  0.00  0.00    +0.000 A 
ATOM      7  C   UNL     1       4.285   2.798  19.466  0.00  0.00    +0.000 A 
ATOM      8  C   UNL     1       4.574   1.451  20.055  0.00  0.00    +0.000 C 
ATOM      9  N   UNL     1       5.257   3.727  19.570  0.00  0.00    +0.000 NA
ATOM     10  C   UNL     1       5.002   4.940  19.042  0.00  0.00    +0.000 A 
BRANCH  10  11
ATOM     11  O   UNL     1       6.012   5.800  19.316  0.00  0.00    +0.000 OA
ATOM     12  H   UNL     1       5.768   6.049  20.227  0.00  0.00    +0.000 HD
ENDBRANCH  10  11
ENDBRANCH   1   3
BRANCH   1  14
ATOM     13  C   UNL     1       2.272   7.402  19.766  0.00  0.00    +0.000 C 
ATOM     14  C   UNL     1       2.614   7.631  18.313  0.00  0.00    +0.000 C 
ATOM     15  C   UNL     1       2.032   8.572  17.543  0.00  0.00    +0.000 C 
BRANCH  15  16
ATOM     16  C   UNL     1       1.146   9.624  18.055  0.00  0.00    +0.000 A 
ATOM     17  C   UNL     1      -0.244   9.488  17.910  0.00  0.00    +0.000 A 
ATOM     18  C   UNL     1      -1.103  10.483  18.382  0.00  0.00    +0.000 A 
ATOM     19  C   UNL     1      -0.568  11.612  18.998  0.00  0.00    +0.000 A 
ATOM     20  F   UNL     1      -1.387  12.569  19.446  0.00  0.00    +0.000 F 
ATOM     21  C   UNL     1       0.808  11.757  19.149  0.00  0.00    +0.000 A 
ATOM     22  C   UNL     1       1.669  10.763  18.678  0.00  0.00    +0.000 A 
ENDBRANCH  15  16
ENDBRANCH   1  14
TORSDOF 4
ENDMDL
