MODEL 1
REMARK VINA RESULT:      -7.2      0.000      0.000
REMARK  Name = 
REMARK  10 active torsions:
REMARK  status: ('A' for Active; 'I' for Inactive)
REMARK    1  A    between atoms: C_1  and  C_2
REMARK    2  A    between atoms: C_2  and  C_3
REMARK    3  A    between atoms: C_3  and  C_4
REMARK    4  A    between atoms: C_4  and  N_5
REMARK    5  A    between atoms: N_8  and  C_9
REMARK    6  A    between atoms: C_9  and  C_10
REMARK    7  A    between atoms: C_10  and  O_11
REMARK    8  A    between atoms: C_10  and  C_12
REMARK    9  A    between atoms: C_12  and  N_13
REMARK   10  A    between atoms: N_16  and  C_17
REMARK                            x       y       z     vdW  Elec       q    Type
REMARK                         _______ _______ _______ _____ _____    ______ ____
ROOT
ATOM      1  C   UNL     1       7.316   5.624  16.725  0.00  0.00    +0.000 C 
ENDROOT
BRANCH   1   2
ATOM      2  O   UNL     1       7.659   5.604  15.330  0.00  0.00    +0.000 OA
ATOM      3  H   UNL     1       7.116   4.921  14.903  0.00  0.00    +0.000 HD
ENDBRANCH   1   2
BRANCH   1   4
ATOM      4  C   UNL     1       6.119   4.706  17.054  0.00  0.00    +0.000 C 
BRANCH   4   8
ATOM      5  N   UNL     1       3.081   3.059  18.160  0.00  0.00    +0.000 NA
ATOM      6  C   UNL     1       3.219   3.950  16.987  0.00  0.00    +0.000 C 
ATOM      7  C   UNL     1       3.753   5.343  17.370  0.00  0.00    +0.000 C 
ATOM      8  N   UNL     1       5.098   5.275  17.973  0.00  0.00    +0.000 NA
ATOM      9  C   UNL     1       4.989   4.427  19.187  0.00  0.00    +0.000 C 
ATOM     10  C   UNL     1       4.350   3.036  18.928  0.00  0.00    +0.000 C 
BRANCH   5  11
ATOM     11  C   UNL     1       1.986   3.490  19.028  0.00  0.00    +0.000 C 
BRANCH  11  12
ATOM     12  C   UNL     1       1.402   2.335  19.839  0.00  0.00    +0.000 C 
BRANCH  12  14
ATOM     13  C   UNL     1       2.314   3.693  21.783  0.00  0.00    +0.000 C 
ATOM     14  C   UNL     1       1.290   2.665  21.327  0.00  0.00    +0.000 C 
ENDBRANCH  12  14
ENDBRANCH  11  12
ENDBRANCH   5  11
ENDBRANCH   4   8
ENDBRANCH   1   4
BRANCH   1  15
ATOM     15  C   UNL     1       7.022   7.037  17.203  0.00  0.00    +0.000 C 
BRANCH  15  16
ATOM     16  N   UNL     1       7.974   7.495  18.190  0.00  0.00    +0.000 N 
ATOM     17  C   UNL     1       8.183   8.855  18.230  0.00  0.00    +0.000 C 
ATOM     18  O   UNL     1       7.502   9.616  17.554  0.00  0.00    +0.000 OA
ATOM     19  N   UNL     1       9.214   9.203  19.064  0.00  0.00    +0.000 N 
ATOM     20  H   UNL     1       8.748   6.886  18.406  0.00  0.00    +0.000 HD
ATOM     21  H   UNL     1       9.788   8.456  19.422  0.00  0.00    +0.000 HD
BRANCH  19  22
ATOM     22  C   UNL     1       9.651  10.523  19.276  0.00  0.00    +0.000 A 
ATOM     23  C   UNL     1      10.243  11.297  18.272  0.00  0.00    +0.000 A 
ATOM     24  C   UNL     1      10.745  12.566  18.551  0.00  0.00    +0.000 A 
ATOM     25  C   UNL     1      10.641  13.076  19.839  0.00  0.00    +0.000 A 
ATOM     26 CL   UNL     1      11.302  14.620  20.198  0.00  0.00    +0.000 Cl
ATOM     27  C   UNL     1      10.010  12.336  20.839  0.00  0.00    +0.000 A 
ATOM     28  C   UNL     1       9.503  11.065  20.556  0.00  0.00    +0.000 A 
ENDBRANCH  19  22
ENDBRANCH  15  16
ENDBRANCH   1  15
TORSDOF 9
ENDMDL
MODEL 2
REMARK VINA RESULT:      -7.1      0.773      1.295
REMARK  Name = 
REMARK  10 active torsions:
REMARK  status: ('A' for Active; 'I' for Inactive)
REMARK    1  A    between atoms: C_1  and  C_2
REMARK    2  A    between atoms: C_2  and  C_3
REMARK    3  A    between atoms: C_3  and  C_4
REMARK    4  A    between atoms: C_4  and  N_5
REMARK    5  A    between atoms: N_8  and  C_9
REMARK    6  A    between atoms: C_9  and  C_10
REMARK    7  A    between atoms: C_10  and  O_11
REMARK    8  A    between atoms: C_10  and  C_12
REMARK    9  A    between atoms: C_12  and  N_13
REMARK   10  A    between atoms: N_16  and  C_17
REMARK                            x       y       z     vdW  Elec       q    Type
REMARK                         _______ _______ _______ _____ _____    ______ ____
ROOT
ATOM      1  C   UNL     1       7.185   5.763  16.812  0.00  0.00    +0.000 C 
ENDROOT
BRANCH   1   2
ATOM      2  O   UNL     1       7.664   5.527  15.479  0.00  0.00    +0.000 OA
ATOM      3  H   UNL     1       7.000   4.988  15.019  0.00  0.00    +0.000 HD
ENDBRANCH   1   2
BRANCH   1   4
ATOM      4  C   UNL     1       5.803   5.122  17.069  0.00  0.00    +0.000 C 
BRANCH   4   8
ATOM      5  N   UNL     1       2.391   4.631  18.198  0.00  0.00    +0.000 NA
ATOM      6  C   UNL     1       3.041   5.928  17.907  0.00  0.00    +0.000 C 
ATOM      7  C   UNL     1       4.311   6.148  18.748  0.00  0.00    +0.000 C 
ATOM      8  N   UNL     1       5.339   5.124  18.481  0.00  0.00    +0.000 NA
ATOM      9  C   UNL     1       4.738   3.807  18.811  0.00  0.00    +0.000 C 
ATOM     10  C   UNL     1       3.386   3.535  18.100  0.00  0.00    +0.000 C 
BRANCH   5  11
ATOM     11  C   UNL     1       1.784   4.629  19.529  0.00  0.00    +0.000 C 
BRANCH  11  12
ATOM     12  C   UNL     1       1.034   3.331  19.820  0.00  0.00    +0.000 C 
BRANCH  12  14
ATOM     13  C   UNL     1       2.594   2.507  21.648  0.00  0.00    +0.000 C 
ATOM     14  C   UNL     1       1.170   2.894  21.278  0.00  0.00    +0.000 C 
ENDBRANCH  12  14
ENDBRANCH  11  12
ENDBRANCH   5  11
ENDBRANCH   4   8
ENDBRANCH   1   4
BRANCH   1  15
ATOM     15  C   UNL     1       7.122   7.251  17.123  0.00  0.00    +0.000 C 
BRANCH  15  16
ATOM     16  N   UNL     1       7.996   7.625  18.212  0.00  0.00    +0.000 N 
ATOM     17  C   UNL     1       8.258   8.970  18.331  0.00  0.00    +0.000 C 
ATOM     18  O   UNL     1       7.675   9.788  17.631  0.00  0.00    +0.000 OA
ATOM     19  N   UNL     1       9.220   9.237  19.271  0.00  0.00    +0.000 N 
ATOM     20  H   UNL     1       8.721   6.972  18.471  0.00  0.00    +0.000 HD
ATOM     21  H   UNL     1       9.726   8.450  19.647  0.00  0.00    +0.000 HD
BRANCH  19  22
ATOM     22  C   UNL     1       9.690  10.526  19.581  0.00  0.00    +0.000 A 
ATOM     23  C   UNL     1       9.377  11.180  20.778  0.00  0.00    +0.000 A 
ATOM     24  C   UNL     1       9.787  12.493  21.002  0.00  0.00    +0.000 A 
ATOM     25  C   UNL     1      10.531  13.153  20.031  0.00  0.00    +0.000 A 
ATOM     26 CL   UNL     1      10.997  14.787  20.284  0.00  0.00    +0.000 Cl
ATOM     27  C   UNL     1      10.892  12.497  18.855  0.00  0.00    +0.000 A 
ATOM     28  C   UNL     1      10.482  11.179  18.633  0.00  0.00    +0.000 A 
ENDBRANCH  19  22
ENDBRANCH  15  16
ENDBRANCH   1  15
TORSDOF 9
ENDMDL
MODEL 3
REMARK VINA RESULT:      -7.0      1.626      2.106
REMARK  Name = 
REMARK  10 active torsions:
REMARK  status: ('A' for Active; 'I' for Inactive)
REMARK    1  A    between atoms: C_1  and  C_2
REMARK    2  A    between atoms: C_2  and  C_3
REMARK    3  A    between atoms: C_3  and  C_4
REMARK    4  A    between atoms: C_4  and  N_5
REMARK    5  A    between atoms: N_8  and  C_9
REMARK    6  A    between atoms: C_9  and  C_10
REMARK    7  A    between atoms: C_10  and  O_11
REMARK    8  A    between atoms: C_10  and  C_12
REMARK    9  A    between atoms: C_12  and  N_13
REMARK   10  A    between atoms: N_16  and  C_17
REMARK                            x       y       z     vdW  Elec       q    Type
REMARK                         _______ _______ _______ _____ _____    ______ ____
ROOT
ATOM      1  C   UNL     1       6.992   5.789  19.154  0.00  0.00    +0.000 C 
ENDROOT
BRANCH   1   2
ATOM      2  O   UNL     1       7.823   5.301  20.219  0.00  0.00    +0.000 OA
ATOM      3  H   UNL     1       7.865   5.992  20.900  0.00  0.00    +0.000 HD
ENDBRANCH   1   2
BRANCH   1   4
ATOM      4  C   UNL     1       6.397   4.651  18.296  0.00  0.00    +0.000 C 
BRANCH   4   8
ATOM      5  N   UNL     1       2.832   4.942  17.689  0.00  0.00    +0.000 NA
ATOM      6  C   UNL     1       3.603   5.641  18.741  0.00  0.00    +0.000 C 
ATOM      7  C   UNL     1       4.345   4.664  19.671  0.00  0.00    +0.000 C 
ATOM      8  N   UNL     1       5.329   3.842  18.941  0.00  0.00    +0.000 NA
ATOM      9  C   UNL     1       4.582   3.083  17.906  0.00  0.00    +0.000 C 
ATOM     10  C   UNL     1       3.705   3.972  16.985  0.00  0.00    +0.000 C 
BRANCH   5  11
ATOM     11  C   UNL     1       1.676   4.245  18.254  0.00  0.00    +0.000 C 
BRANCH  11  12
ATOM     12  C   UNL     1       1.503   4.527  19.744  0.00  0.00    +0.000 C 
BRANCH  12  14
ATOM     13  C   UNL     1       1.835   2.925  21.688  0.00  0.00    +0.000 C 
ATOM     14  C   UNL     1       0.962   3.318  20.507  0.00  0.00    +0.000 C 
ENDBRANCH  12  14
ENDBRANCH  11  12
ENDBRANCH   5  11
ENDBRANCH   4   8
ENDBRANCH   1   4
BRANCH   1  15
ATOM     15  C   UNL     1       7.750   6.758  18.260  0.00  0.00    +0.000 C 
BRANCH  15  16
ATOM     16  N   UNL     1       8.571   7.678  19.015  0.00  0.00    +0.000 N 
ATOM     17  C   UNL     1       8.555   8.984  18.582  0.00  0.00    +0.000 C 
ATOM     18  O   UNL     1       7.789   9.344  17.696  0.00  0.00    +0.000 OA
ATOM     19  N   UNL     1       9.479   9.764  19.230  0.00  0.00    +0.000 N 
ATOM     20  H   UNL     1       9.424   7.317  19.416  0.00  0.00    +0.000 HD
ATOM     21  H   UNL     1      10.150   9.290  19.815  0.00  0.00    +0.000 HD
BRANCH  19  22
ATOM     22  C   UNL     1       9.686  11.130  18.969  0.00  0.00    +0.000 A 
ATOM     23  C   UNL     1       9.175  12.144  19.786  0.00  0.00    +0.000 A 
ATOM     24  C   UNL     1       9.325  13.485  19.438  0.00  0.00    +0.000 A 
ATOM     25  C   UNL     1      10.007  13.818  18.274  0.00  0.00    +0.000 A 
ATOM     26 CL   UNL     1      10.153  15.467  17.817  0.00  0.00    +0.000 Cl
ATOM     27  C   UNL     1      10.565  12.820  17.475  0.00  0.00    +0.000 A 
ATOM     28  C   UNL     1      10.415  11.475  17.828  0.00  0.00    +0.000 A 
ENDBRANCH  19  22
ENDBRANCH  15  16
ENDBRANCH   1  15
TORSDOF 9
ENDMDL
MODEL 4
REMARK VINA RESULT:      -6.9      1.709      2.034
REMARK  Name = 
REMARK  10 active torsions:
REMARK  status: ('A' for Active; 'I' for Inactive)
REMARK    1  A    between atoms: C_1  and  C_2
REMARK    2  A    between atoms: C_2  and  C_3
REMARK    3  A    between atoms: C_3  and  C_4
REMARK    4  A    between atoms: C_4  and  N_5
REMARK    5  A    between atoms: N_8  and  C_9
REMARK    6  A    between atoms: C_9  and  C_10
REMARK    7  A    between atoms: C_10  and  O_11
REMARK    8  A    between atoms: C_10  and  C_12
REMARK    9  A    between atoms: C_12  and  N_13
REMARK   10  A    between atoms: N_16  and  C_17
REMARK                            x       y       z     vdW  Elec       q    Type
REMARK                         _______ _______ _______ _____ _____    ______ ____
ROOT
ATOM      1  C   UNL     1       7.279   5.695  19.293  0.00  0.00    +0.000 C 
ENDROOT
BRANCH   1   2
ATOM      2  O   UNL     1       8.402   5.147  20.002  0.00  0.00    +0.000 OA
ATOM      3  H   UNL     1       8.090   4.868  20.878  0.00  0.00    +0.000 HD
ENDBRANCH   1   2
BRANCH   1   4
ATOM      4  C   UNL     1       6.454   4.613  18.563  0.00  0.00    +0.000 C 
BRANCH   4   8
ATOM      5  N   UNL     1       2.994   5.037  17.557  0.00  0.00    +0.000 NA
ATOM      6  C   UNL     1       3.762   5.926  18.458  0.00  0.00    +0.000 C 
ATOM      7  C   UNL     1       4.324   5.176  19.680  0.00  0.00    +0.000 C 
ATOM      8  N   UNL     1       5.261   4.105  19.290  0.00  0.00    +0.000 NA
ATOM      9  C   UNL     1       4.510   3.162  18.424  0.00  0.00    +0.000 C 
ATOM     10  C   UNL     1       3.803   3.841  17.220  0.00  0.00    +0.000 C 
BRANCH   5  11
ATOM     11  C   UNL     1       1.732   4.624  18.169  0.00  0.00    +0.000 C 
BRANCH  11  12
ATOM     12  C   UNL     1       1.472   3.128  18.004  0.00  0.00    +0.000 C 
BRANCH  12  14
ATOM     13  C   UNL     1       1.044   3.216  20.507  0.00  0.00    +0.000 C 
ATOM     14  C   UNL     1       0.711   2.534  19.188  0.00  0.00    +0.000 C 
ENDBRANCH  12  14
ENDBRANCH  11  12
ENDBRANCH   5  11
ENDBRANCH   4   8
ENDBRANCH   1   4
BRANCH   1  15
ATOM     15  C   UNL     1       7.717   6.759  18.299  0.00  0.00    +0.000 C 
BRANCH  15  16
ATOM     16  N   UNL     1       8.606   7.734  18.891  0.00  0.00    +0.000 N 
ATOM     17  C   UNL     1       8.514   9.010  18.383  0.00  0.00    +0.000 C 
ATOM     18  O   UNL     1       7.641   9.304  17.576  0.00  0.00    +0.000 OA
ATOM     19  N   UNL     1       9.494   9.839  18.865  0.00  0.00    +0.000 N 
ATOM     20  H   UNL     1       9.507   7.409  19.207  0.00  0.00    +0.000 HD
ATOM     21  H   UNL     1      10.239   9.411  19.392  0.00  0.00    +0.000 HD
BRANCH  19  22
ATOM     22  C   UNL     1       9.643  11.188  18.496  0.00  0.00    +0.000 A 
ATOM     23  C   UNL     1      10.723  11.652  17.737  0.00  0.00    +0.000 A 
ATOM     24  C   UNL     1      10.879  13.012  17.475  0.00  0.00    +0.000 A 
ATOM     25  C   UNL     1       9.940  13.915  17.959  0.00  0.00    +0.000 A 
ATOM     26 CL   UNL     1      10.156  15.596  17.678  0.00  0.00    +0.000 Cl
ATOM     27  C   UNL     1       8.833  13.462  18.675  0.00  0.00    +0.000 A 
ATOM     28  C   UNL     1       8.677  12.098  18.935  0.00  0.00    +0.000 A 
ENDBRANCH  19  22
ENDBRANCH  15  16
ENDBRANCH   1  15
TORSDOF 9
ENDMDL
MODEL 5
REMARK VINA RESULT:      -6.9      1.159      1.360
REMARK  Name = 
REMARK  10 active torsions:
REMARK  status: ('A' for Active; 'I' for Inactive)
REMARK    1  A    between atoms: C_1  and  C_2
REMARK    2  A    between atoms: C_2  and  C_3
REMARK    3  A    between atoms: C_3  and  C_4
REMARK    4  A    between atoms: C_4  and  N_5
REMARK    5  A    between atoms: N_8  and  C_9
REMARK    6  A    between atoms: C_9  and  C_10
REMARK    7  A    between atoms: C_10  and  O_11
REMARK    8  A    between atoms: C_10  and  C_12
REMARK    9  A    between atoms: C_12  and  N_13
REMARK   10  A    between atoms: N_16  and  C_17
REMARK                            x       y       z     vdW  Elec       q    Type
REMARK                         _______ _______ _______ _____ _____    ______ ____
ROOT
ATOM      1  C   UNL     1       7.021   5.375  18.402  0.00  0.00    +0.000 C 
ENDROOT
BRANCH   1   2
ATOM      2  O   UNL     1       7.798   4.230  18.018  0.00  0.00    +0.000 OA
ATOM      3  H   UNL     1       8.003   4.316  17.072  0.00  0.00    +0.000 HD
ENDBRANCH   1   2
BRANCH   1   4
ATOM      4  C   UNL     1       5.524   5.220  18.055  0.00  0.00    +0.000 C 
BRANCH   4   8
ATOM      5  N   UNL     1       2.024   4.345  17.672  0.00  0.00    +0.000 NA
ATOM      6  C   UNL     1       2.565   5.487  18.444  0.00  0.00    +0.000 C 
ATOM      7  C   UNL     1       3.555   5.039  19.534  0.00  0.00    +0.000 C 
ATOM      8  N   UNL     1       4.732   4.354  18.967  0.00  0.00    +0.000 NA
ATOM      9  C   UNL     1       4.233   3.169  18.225  0.00  0.00    +0.000 C 
ATOM     10  C   UNL     1       3.138   3.500  17.176  0.00  0.00    +0.000 C 
BRANCH   5  11
ATOM     11  C   UNL     1       1.116   3.538  18.485  0.00  0.00    +0.000 C 
BRANCH  11  12
ATOM     12  C   UNL     1       1.054   4.017  19.933  0.00  0.00    +0.000 C 
BRANCH  12  14
ATOM     13  C   UNL     1       2.123   2.916  21.958  0.00  0.00    +0.000 C 
ATOM     14  C   UNL     1       1.005   2.859  20.929  0.00  0.00    +0.000 C 
ENDBRANCH  12  14
ENDBRANCH  11  12
ENDBRANCH   5  11
ENDBRANCH   4   8
ENDBRANCH   1   4
BRANCH   1  15
ATOM     15  C   UNL     1       7.562   6.648  17.770  0.00  0.00    +0.000 C 
BRANCH  15  16
ATOM     16  N   UNL     1       8.382   7.412  18.683  0.00  0.00    +0.000 N 
ATOM     17  C   UNL     1       8.423   8.769  18.455  0.00  0.00    +0.000 C 
ATOM     18  O   UNL     1       7.703   9.286  17.610  0.00  0.00    +0.000 OA
ATOM     19  N   UNL     1       9.345   9.406  19.245  0.00  0.00    +0.000 N 
ATOM     20  H   UNL     1       9.207   6.964  19.052  0.00  0.00    +0.000 HD
ATOM     21  H   UNL     1       9.978   8.826  19.772  0.00  0.00    +0.000 HD
BRANCH  19  22
ATOM     22  C   UNL     1       9.604  10.788  19.203  0.00  0.00    +0.000 A 
ATOM     23  C   UNL     1      10.053  11.441  18.049  0.00  0.00    +0.000 A 
ATOM     24  C   UNL     1      10.387  12.793  18.079  0.00  0.00    +0.000 A 
ATOM     25  C   UNL     1      10.255  13.505  19.264  0.00  0.00    +0.000 A 
ATOM     26 CL   UNL     1      10.710  15.161  19.316  0.00  0.00    +0.000 Cl
ATOM     27  C   UNL     1       9.762  12.880  20.409  0.00  0.00    +0.000 A 
ATOM     28  C   UNL     1       9.425  11.524  20.377  0.00  0.00    +0.000 A 
ENDBRANCH  19  22
ENDBRANCH  15  16
ENDBRANCH   1  15
TORSDOF 9
ENDMDL
MODEL 6
REMARK VINA RESULT:      -6.9      0.697      1.224
REMARK  Name = 
REMARK  10 active torsions:
REMARK  status: ('A' for Active; 'I' for Inactive)
REMARK    1  A    between atoms: C_1  and  C_2
REMARK    2  A    between atoms: C_2  and  C_3
REMARK    3  A    between atoms: C_3  and  C_4
REMARK    4  A    between atoms: C_4  and  N_5
REMARK    5  A    between atoms: N_8  and  C_9
REMARK    6  A    between atoms: C_9  and  C_10
REMARK    7  A    between atoms: C_10  and  O_11
REMARK    8  A    between atoms: C_10  and  C_12
REMARK    9  A    between atoms: C_12  and  N_13
REMARK   10  A    between atoms: N_16  and  C_17
REMARK                            x       y       z     vdW  Elec       q    Type
REMARK                         _______ _______ _______ _____ _____    ______ ____
ROOT
ATOM      1  C   UNL     1       7.498   5.844  16.743  0.00  0.00    +0.000 C 
ENDROOT
BRANCH   1   2
ATOM      2  O   UNL     1       7.573   5.679  15.319  0.00  0.00    +0.000 OA
ATOM      3  H   UNL     1       8.425   5.259  15.115  0.00  0.00    +0.000 HD
ENDBRANCH   1   2
BRANCH   1   4
ATOM      4  C   UNL     1       6.390   4.980  17.384  0.00  0.00    +0.000 C 
BRANCH   4   8
ATOM      5  N   UNL     1       3.381   3.384  18.632  0.00  0.00    +0.000 NA
ATOM      6  C   UNL     1       4.016   3.153  17.315  0.00  0.00    +0.000 C 
ATOM      7  C   UNL     1       4.148   4.449  16.495  0.00  0.00    +0.000 C 
ATOM      8  N   UNL     1       4.996   5.449  17.170  0.00  0.00    +0.000 NA
ATOM      9  C   UNL     1       4.362   5.746  18.479  0.00  0.00    +0.000 C 
ATOM     10  C   UNL     1       4.076   4.487  19.340  0.00  0.00    +0.000 C 
BRANCH   5  11
ATOM     11  C   UNL     1       1.962   3.707  18.488  0.00  0.00    +0.000 C 
BRANCH  11  12
ATOM     12  C   UNL     1       1.064   2.691  19.190  0.00  0.00    +0.000 C 
BRANCH  12  14
ATOM     13  C   UNL     1       1.868   2.553  21.597  0.00  0.00    +0.000 C 
ATOM     14  C   UNL     1       0.793   3.062  20.648  0.00  0.00    +0.000 C 
ENDBRANCH  12  14
ENDBRANCH  11  12
ENDBRANCH   5  11
ENDBRANCH   4   8
ENDBRANCH   1   4
BRANCH   1  15
ATOM     15  C   UNL     1       7.291   7.302  17.122  0.00  0.00    +0.000 C 
BRANCH  15  16
ATOM     16  N   UNL     1       8.127   7.709  18.229  0.00  0.00    +0.000 N 
ATOM     17  C   UNL     1       8.375   9.060  18.323  0.00  0.00    +0.000 C 
ATOM     18  O   UNL     1       7.809   9.856  17.584  0.00  0.00    +0.000 OA
ATOM     19  N   UNL     1       9.304   9.357  19.287  0.00  0.00    +0.000 N 
ATOM     20  H   UNL     1       8.848   7.069  18.527  0.00  0.00    +0.000 HD
ATOM     21  H   UNL     1       9.803   8.583  19.698  0.00  0.00    +0.000 HD
BRANCH  19  22
ATOM     22  C   UNL     1       9.755  10.657  19.579  0.00  0.00    +0.000 A 
ATOM     23  C   UNL     1       9.478  11.301  20.790  0.00  0.00    +0.000 A 
ATOM     24  C   UNL     1       9.864  12.623  21.000  0.00  0.00    +0.000 A 
ATOM     25  C   UNL     1      10.549  13.303  20.000  0.00  0.00    +0.000 A 
ATOM     26 CL   UNL     1      10.984  14.948  20.237  0.00  0.00    +0.000 Cl
ATOM     27  C   UNL     1      10.875  12.659  18.808  0.00  0.00    +0.000 A 
ATOM     28  C   UNL     1      10.489  11.331  18.600  0.00  0.00    +0.000 A 
ENDBRANCH  19  22
ENDBRANCH  15  16
ENDBRANCH   1  15
TORSDOF 9
ENDMDL
MODEL 7
REMARK VINA RESULT:      -6.8      1.544      2.040
REMARK  Name = 
REMARK  10 active torsions:
REMARK  status: ('A' for Active; 'I' for Inactive)
REMARK    1  A    between atoms: C_1  and  C_2
REMARK    2  A    between atoms: C_2  and  C_3
REMARK    3  A    between atoms: C_3  and  C_4
REMARK    4  A    between atoms: C_4  and  N_5
REMARK    5  A    between atoms: N_8  and  C_9
REMARK    6  A    between atoms: C_9  and  C_10
REMARK    7  A    between atoms: C_10  and  O_11
REMARK    8  A    between atoms: C_10  and  C_12
REMARK    9  A    between atoms: C_12  and  N_13
REMARK   10  A    between atoms: N_16  and  C_17
REMARK                            x       y       z     vdW  Elec       q    Type
REMARK                         _______ _______ _______ _____ _____    ______ ____
ROOT
ATOM      1  C   UNL     1       7.450   6.565  17.684  0.00  0.00    +0.000 C 
ENDROOT
BRANCH   1   2
ATOM      2  O   UNL     1       7.774   6.690  16.291  0.00  0.00    +0.000 OA
ATOM      3  H   UNL     1       8.584   6.179  16.129  0.00  0.00    +0.000 HD
ENDBRANCH   1   2
BRANCH   1   4
ATOM      4  C   UNL     1       5.928   6.507  17.937  0.00  0.00    +0.000 C 
BRANCH   4   8
ATOM      5  N   UNL     1       3.211   4.175  17.351  0.00  0.00    +0.000 NA
ATOM      6  C   UNL     1       3.110   5.488  18.026  0.00  0.00    +0.000 C 
ATOM      7  C   UNL     1       4.045   5.591  19.246  0.00  0.00    +0.000 C 
ATOM      8  N   UNL     1       5.464   5.448  18.872  0.00  0.00    +0.000 NA
ATOM      9  C   UNL     1       5.615   4.116  18.234  0.00  0.00    +0.000 C 
ATOM     10  C   UNL     1       4.632   3.865  17.060  0.00  0.00    +0.000 C 
BRANCH   5  11
ATOM     11  C   UNL     1       2.631   3.111  18.170  0.00  0.00    +0.000 C 
BRANCH  11  12
ATOM     12  C   UNL     1       1.232   3.463  18.669  0.00  0.00    +0.000 C 
BRANCH  12  14
ATOM     13  C   UNL     1       1.662   3.584  21.170  0.00  0.00    +0.000 C 
ATOM     14  C   UNL     1       0.936   2.865  20.044  0.00  0.00    +0.000 C 
ENDBRANCH  12  14
ENDBRANCH  11  12
ENDBRANCH   5  11
ENDBRANCH   4   8
ENDBRANCH   1   4
BRANCH   1  15
ATOM     15  C   UNL     1       8.060   7.695  18.498  0.00  0.00    +0.000 C 
BRANCH  15  16
ATOM     16  N   UNL     1       8.065   8.951  17.781  0.00  0.00    +0.000 N 
ATOM     17  C   UNL     1       8.774   9.972  18.372  0.00  0.00    +0.000 C 
ATOM     18  O   UNL     1       9.454   9.769  19.371  0.00  0.00    +0.000 OA
ATOM     19  N   UNL     1       8.599  11.172  17.732  0.00  0.00    +0.000 N 
ATOM     20  H   UNL     1       7.239   9.187  17.252  0.00  0.00    +0.000 HD
ATOM     21  H   UNL     1       7.880  11.215  17.027  0.00  0.00    +0.000 HD
BRANCH  19  22
ATOM     22  C   UNL     1       9.193  12.380  18.138  0.00  0.00    +0.000 A 
ATOM     23  C   UNL     1       8.670  13.177  19.162  0.00  0.00    +0.000 A 
ATOM     24  C   UNL     1       9.239  14.412  19.467  0.00  0.00    +0.000 A 
ATOM     25  C   UNL     1      10.350  14.848  18.756  0.00  0.00    +0.000 A 
ATOM     26 CL   UNL     1      11.024  16.391  19.098  0.00  0.00    +0.000 Cl
ATOM     27  C   UNL     1      10.912  14.044  17.766  0.00  0.00    +0.000 A 
ATOM     28  C   UNL     1      10.342  12.804  17.463  0.00  0.00    +0.000 A 
ENDBRANCH  19  22
ENDBRANCH  15  16
ENDBRANCH   1  15
TORSDOF 9
ENDMDL
MODEL 8
REMARK VINA RESULT:      -6.8      1.444      1.910
REMARK  Name = 
REMARK  10 active torsions:
REMARK  status: ('A' for Active; 'I' for Inactive)
REMARK    1  A    between atoms: C_1  and  C_2
REMARK    2  A    between atoms: C_2  and  C_3
REMARK    3  A    between atoms: C_3  and  C_4
REMARK    4  A    between atoms: C_4  and  N_5
REMARK    5  A    between atoms: N_8  and  C_9
REMARK    6  A    between atoms: C_9  and  C_10
REMARK    7  A    between atoms: C_10  and  O_11
REMARK    8  A    between atoms: C_10  and  C_12
REMARK    9  A    between atoms: C_12  and  N_13
REMARK   10  A    between atoms: N_16  and  C_17
REMARK                            x       y       z     vdW  Elec       q    Type
REMARK                         _______ _______ _______ _____ _____    ______ ____
ROOT
ATOM      1  C   UNL     1       7.145   6.529  18.209  0.00  0.00    +0.000 C 
ENDROOT
BRANCH   1   2
ATOM      2  O   UNL     1       7.885   5.726  19.142  0.00  0.00    +0.000 OA
ATOM      3  H   UNL     1       8.299   5.002  18.644  0.00  0.00    +0.000 HD
ENDBRANCH   1   2
BRANCH   1   4
ATOM      4  C   UNL     1       6.768   5.754  16.928  0.00  0.00    +0.000 C 
BRANCH   4   8
ATOM      5  N   UNL     1       3.769   4.160  18.202  0.00  0.00    +0.000 NA
ATOM      6  C   UNL     1       4.614   3.676  17.088  0.00  0.00    +0.000 C 
ATOM      7  C   UNL     1       4.747   4.716  15.960  0.00  0.00    +0.000 C 
ATOM      8  N   UNL     1       5.384   5.962  16.426  0.00  0.00    +0.000 NA
ATOM      9  C   UNL     1       4.534   6.507  17.514  0.00  0.00    +0.000 C 
ATOM     10  C   UNL     1       4.241   5.493  18.652  0.00  0.00    +0.000 C 
BRANCH   5  11
ATOM     11  C   UNL     1       2.363   4.243  17.805  0.00  0.00    +0.000 C 
BRANCH  11  12
ATOM     12  C   UNL     1       1.483   3.273  18.588  0.00  0.00    +0.000 C 
BRANCH  12  14
ATOM     13  C   UNL     1       1.476   3.034  21.118  0.00  0.00    +0.000 C 
ATOM     14  C   UNL     1       1.018   3.855  19.923  0.00  0.00    +0.000 C 
ENDBRANCH  12  14
ENDBRANCH  11  12
ENDBRANCH   5  11
ENDBRANCH   4   8
ENDBRANCH   1   4
BRANCH   1  15
ATOM     15  C   UNL     1       7.908   7.791  17.836  0.00  0.00    +0.000 C 
BRANCH  15  16
ATOM     16  N   UNL     1       8.643   8.341  18.952  0.00  0.00    +0.000 N 
ATOM     17  C   UNL     1       8.923   9.687  18.877  0.00  0.00    +0.000 C 
ATOM     18  O   UNL     1       8.456  10.375  17.978  0.00  0.00    +0.000 OA
ATOM     19  N   UNL     1       9.761  10.106  19.877  0.00  0.00    +0.000 N 
ATOM     20  H   UNL     1       9.311   7.739  19.411  0.00  0.00    +0.000 HD
ATOM     21  H   UNL     1      10.194   9.393  20.443  0.00  0.00    +0.000 HD
BRANCH  19  22
ATOM     22  C   UNL     1      10.221  11.427  20.024  0.00  0.00    +0.000 A 
ATOM     23  C   UNL     1       9.492  12.413  20.699  0.00  0.00    +0.000 A 
ATOM     24  C   UNL     1       9.942  13.731  20.740  0.00  0.00    +0.000 A 
ATOM     25  C   UNL     1      11.138  14.065  20.118  0.00  0.00    +0.000 A 
ATOM     26 CL   UNL     1      11.672  15.698  20.125  0.00  0.00    +0.000 Cl
ATOM     27  C   UNL     1      11.900  13.084  19.484  0.00  0.00    +0.000 A 
ATOM     28  C   UNL     1      11.448  11.762  19.447  0.00  0.00    +0.000 A 
ENDBRANCH  19  22
ENDBRANCH  15  16
ENDBRANCH   1  15
TORSDOF 9
ENDMDL
MODEL 9
REMARK VINA RESULT:      -6.7      1.600      1.942
REMARK  Name = 
REMARK  10 active torsions:
REMARK  status: ('A' for Active; 'I' for Inactive)
REMARK    1  A    between atoms: C_1  and  C_2
REMARK    2  A    between atoms: C_2  and  C_3
REMARK    3  A    between atoms: C_3  and  C_4
REMARK    4  A    between atoms: C_4  and  N_5
REMARK    5  A    between atoms: N_8  and  C_9
REMARK    6  A    between atoms: C_9  and  C_10
REMARK    7  A    between atoms: C_10  and  O_11
REMARK    8  A    between atoms: C_10  and  C_12
REMARK    9  A    between atoms: C_12  and  N_13
REMARK   10  A    between atoms: N_16  and  C_17
REMARK                            x       y       z     vdW  Elec       q    Type
REMARK                         _______ _______ _______ _____ _____    ______ ____
ROOT
ATOM      1  C   UNL     1       7.118   5.853  19.029  0.00  0.00    +0.000 C 
ENDROOT
BRANCH   1   2
ATOM      2  O   UNL     1       7.862   5.422  20.179  0.00  0.00    +0.000 OA
ATOM      3  H   UNL     1       8.749   5.166  19.878  0.00  0.00    +0.000 HD
ENDBRANCH   1   2
BRANCH   1   4
ATOM      4  C   UNL     1       6.664   4.675  18.140  0.00  0.00    +0.000 C 
BRANCH   4   8
ATOM      5  N   UNL     1       3.415   4.570  19.750  0.00  0.00    +0.000 NA
ATOM      6  C   UNL     1       4.128   3.427  19.137  0.00  0.00    +0.000 C 
ATOM      7  C   UNL     1       4.460   3.674  17.653  0.00  0.00    +0.000 C 
ATOM      8  N   UNL     1       5.348   4.837  17.469  0.00  0.00    +0.000 NA
ATOM      9  C   UNL     1       4.643   6.017  18.028  0.00  0.00    +0.000 C 
ATOM     10  C   UNL     1       4.159   5.827  19.491  0.00  0.00    +0.000 C 
BRANCH   5  11
ATOM     11  C   UNL     1       2.053   4.687  19.230  0.00  0.00    +0.000 C 
BRANCH  11  12
ATOM     12  C   UNL     1       1.007   4.213  20.236  0.00  0.00    +0.000 C 
BRANCH  12  14
ATOM     13  C   UNL     1       0.699   2.130  18.813  0.00  0.00    +0.000 C 
ATOM     14  C   UNL     1       0.828   2.695  20.219  0.00  0.00    +0.000 C 
ENDBRANCH  12  14
ENDBRANCH  11  12
ENDBRANCH   5  11
ENDBRANCH   4   8
ENDBRANCH   1   4
BRANCH   1  15
ATOM     15  C   UNL     1       7.914   6.845  18.194  0.00  0.00    +0.000 C 
BRANCH  15  16
ATOM     16  N   UNL     1       8.663   7.776  19.008  0.00  0.00    +0.000 N 
ATOM     17  C   UNL     1       8.618   9.090  18.604  0.00  0.00    +0.000 C 
ATOM     18  O   UNL     1       7.882   9.442  17.691  0.00  0.00    +0.000 OA
ATOM     19  N   UNL     1       9.479   9.887  19.313  0.00  0.00    +0.000 N 
ATOM     20  H   UNL     1       9.509   7.437  19.441  0.00  0.00    +0.000 HD
ATOM     21  H   UNL     1      10.139   9.425  19.919  0.00  0.00    +0.000 HD
BRANCH  19  22
ATOM     22  C   UNL     1       9.646  11.266  19.093  0.00  0.00    +0.000 A 
ATOM     23  C   UNL     1      10.230  11.784  17.932  0.00  0.00    +0.000 A 
ATOM     24  C   UNL     1      10.461  13.151  17.797  0.00  0.00    +0.000 A 
ATOM     25  C   UNL     1      10.089  14.013  18.822  0.00  0.00    +0.000 A 
ATOM     26 CL   UNL     1      10.415  15.693  18.679  0.00  0.00    +0.000 Cl
ATOM     27  C   UNL     1       9.462  13.517  19.965  0.00  0.00    +0.000 A 
ATOM     28  C   UNL     1       9.229  12.145  20.097  0.00  0.00    +0.000 A 
ENDBRANCH  19  22
ENDBRANCH  15  16
ENDBRANCH   1  15
TORSDOF 9
ENDMDL
