MODEL 1
REMARK VINA RESULT:      -8.5      0.000      0.000
REMARK  Name = 
REMARK  7 active torsions:
REMARK  status: ('A' for Active; 'I' for Inactive)
REMARK    1  A    between atoms: C_2  and  C_3
REMARK    2  A    between atoms: C_3  and  N_4
REMARK    3  A    between atoms: C_5  and  S_6
REMARK    4  A    between atoms: S_6  and  C_7
REMARK    5  A    between atoms: C_7  and  C_8
REMARK    6  A    between atoms: C_9  and  C_10
REMARK    7  A    between atoms: C_13  and  C_14
REMARK                            x       y       z     vdW  Elec       q    Type
REMARK                         _______ _______ _______ _____ _____    ______ ____
ROOT
ATOM      1  N   UNL     1       2.824   6.543  19.104  0.00  0.00    +0.000 N 
ATOM      2  C   UNL     1       3.131   7.330  17.988  0.00  0.00    +0.000 A 
ATOM      3  N   UNL     1       2.652   8.516  17.765  0.00  0.00    +0.000 NA
ATOM      4  C   UNL     1       1.783   8.975  18.704  0.00  0.00    +0.000 A 
ATOM      5  S   UNL     1       1.085  10.529  18.604  0.00  0.00    +0.000 S 
ATOM      6  C   UNL     1       0.178  10.299  20.036  0.00  0.00    +0.000 A 
ATOM      7  C   UNL     1       0.378   9.047  20.590  0.00  0.00    +0.000 A 
ATOM      8  C   UNL     1       1.336   8.297  19.815  0.00  0.00    +0.000 A 
ATOM      9  C   UNL     1       1.863   6.964  20.036  0.00  0.00    +0.000 A 
ATOM     10  O   UNL     1       1.474   6.264  20.969  0.00  0.00    +0.000 OA
ATOM     11  C   UNL     1      -0.328   8.590  21.838  0.00  0.00    +0.000 C 
ATOM     12  C   UNL     1       0.002   9.452  23.058  0.00  0.00    +0.000 C 
ATOM     13  C   UNL     1      -0.733  10.795  23.087  0.00  0.00    +0.000 C 
ATOM     14  C   UNL     1      -0.327  11.794  21.996  0.00  0.00    +0.000 C 
ATOM     15  C   UNL     1      -0.716  11.382  20.572  0.00  0.00    +0.000 C 
ENDROOT
BRANCH   1  16
ATOM     16  C   UNL     1       3.363   5.205  19.359  0.00  0.00    +0.000 C 
BRANCH  16  18
ATOM     17  C   UNL     1       1.731   4.048  17.797  0.00  0.00    +0.000 C 
ATOM     18  C   UNL     1       2.369   4.142  18.971  0.00  0.00    +0.000 C 
ENDBRANCH  16  18
ENDBRANCH   1  16
BRANCH   2  19
ATOM     19  S   UNL     1       4.232   6.629  16.805  0.00  0.00    +0.000 S 
BRANCH  19  20
ATOM     20  C   UNL     1       5.878   7.073  17.419  0.00  0.00    +0.000 C 
BRANCH  20  21
ATOM     21  C   UNL     1       6.790   5.890  17.314  0.00  0.00    +0.000 A 
ATOM     22  C   UNL     1       7.609   5.303  18.327  0.00  0.00    +0.000 A 
ATOM     23  C   UNL     1       7.776   5.682  19.749  0.00  0.00    +0.000 C 
ATOM     24  N   UNL     1       8.295   4.254  17.860  0.00  0.00    +0.000 NA
ATOM     25  O   UNL     1       7.933   4.123  16.539  0.00  0.00    +0.000 OA
ATOM     26  C   UNL     1       7.036   5.091  16.215  0.00  0.00    +0.000 A 
ATOM     27  C   UNL     1       6.545   5.058  14.823  0.00  0.00    +0.000 C 
ENDBRANCH  20  21
ENDBRANCH  19  20
ENDBRANCH   2  19
TORSDOF 5
ENDMDL
MODEL 2
REMARK VINA RESULT:      -8.3      0.510      1.598
REMARK  Name = 
REMARK  7 active torsions:
REMARK  status: ('A' for Active; 'I' for Inactive)
REMARK    1  A    between atoms: C_2  and  C_3
REMARK    2  A    between atoms: C_3  and  N_4
REMARK    3  A    between atoms: C_5  and  S_6
REMARK    4  A    between atoms: S_6  and  C_7
REMARK    5  A    between atoms: C_7  and  C_8
REMARK    6  A    between atoms: C_9  and  C_10
REMARK    7  A    between atoms: C_13  and  C_14
REMARK                            x       y       z     vdW  Elec       q    Type
REMARK                         _______ _______ _______ _____ _____    ______ ____
ROOT
ATOM      1  N   UNL     1       2.877   6.585  19.078  0.00  0.00    +0.000 N 
ATOM      2  C   UNL     1       3.141   7.380  17.957  0.00  0.00    +0.000 A 
ATOM      3  N   UNL     1       2.618   8.549  17.740  0.00  0.00    +0.000 NA
ATOM      4  C   UNL     1       1.748   8.979  18.691  0.00  0.00    +0.000 A 
ATOM      5  S   UNL     1       0.996  10.508  18.599  0.00  0.00    +0.000 S 
ATOM      6  C   UNL     1       0.117  10.249  20.045  0.00  0.00    +0.000 A 
ATOM      7  C   UNL     1       0.369   9.006  20.596  0.00  0.00    +0.000 A 
ATOM      8  C   UNL     1       1.340   8.288  19.809  0.00  0.00    +0.000 A 
ATOM      9  C   UNL     1       1.915   6.974  20.023  0.00  0.00    +0.000 A 
ATOM     10  O   UNL     1       1.564   6.263  20.962  0.00  0.00    +0.000 OA
ATOM     11  C   UNL     1      -0.304   8.527  21.855  0.00  0.00    +0.000 C 
ATOM     12  C   UNL     1       0.014   9.400  23.069  0.00  0.00    +0.000 C 
ATOM     13  C   UNL     1      -0.767  10.718  23.107  0.00  0.00    +0.000 C 
ATOM     14  C   UNL     1      -0.411  11.729  22.010  0.00  0.00    +0.000 C 
ATOM     15  C   UNL     1      -0.805  11.302  20.592  0.00  0.00    +0.000 C 
ENDROOT
BRANCH   1  16
ATOM     16  C   UNL     1       3.465   5.267  19.326  0.00  0.00    +0.000 C 
BRANCH  16  18
ATOM     17  C   UNL     1       3.190   3.233  17.832  0.00  0.00    +0.000 C 
ATOM     18  C   UNL     1       2.683   4.187  18.624  0.00  0.00    +0.000 C 
ENDBRANCH  16  18
ENDBRANCH   1  16
BRANCH   2  19
ATOM     19  S   UNL     1       4.248   6.716  16.759  0.00  0.00    +0.000 S 
BRANCH  19  20
ATOM     20  C   UNL     1       5.891   7.098  17.419  0.00  0.00    +0.000 C 
BRANCH  20  21
ATOM     21  C   UNL     1       6.776   5.895  17.297  0.00  0.00    +0.000 A 
ATOM     22  C   UNL     1       6.983   5.051  16.164  0.00  0.00    +0.000 A 
ATOM     23  C   UNL     1       6.404   5.132  14.803  0.00  0.00    +0.000 C 
ATOM     24  N   UNL     1       7.848   4.067  16.433  0.00  0.00    +0.000 NA
ATOM     25  O   UNL     1       8.233   4.250  17.741  0.00  0.00    +0.000 OA
ATOM     26  C   UNL     1       7.601   5.337  18.254  0.00  0.00    +0.000 A 
ATOM     27  C   UNL     1       7.939   5.664  19.654  0.00  0.00    +0.000 C 
ENDBRANCH  20  21
ENDBRANCH  19  20
ENDBRANCH   2  19
TORSDOF 5
ENDMDL
MODEL 3
REMARK VINA RESULT:      -7.9      1.036      1.212
REMARK  Name = 
REMARK  7 active torsions:
REMARK  status: ('A' for Active; 'I' for Inactive)
REMARK    1  A    between atoms: C_2  and  C_3
REMARK    2  A    between atoms: C_3  and  N_4
REMARK    3  A    between atoms: C_5  and  S_6
REMARK    4  A    between atoms: S_6  and  C_7
REMARK    5  A    between atoms: C_7  and  C_8
REMARK    6  A    between atoms: C_9  and  C_10
REMARK    7  A    between atoms: C_13  and  C_14
REMARK                            x       y       z     vdW  Elec       q    Type
REMARK                         _______ _______ _______ _____ _____    ______ ____
ROOT
ATOM      1  N   UNL     1       2.263   6.572  19.810  0.00  0.00    +0.000 N 
ATOM      2  C   UNL     1       2.848   6.905  18.583  0.00  0.00    +0.000 A 
ATOM      3  N   UNL     1       2.696   8.044  17.978  0.00  0.00    +0.000 NA
ATOM      4  C   UNL     1       1.891   8.935  18.614  0.00  0.00    +0.000 A 
ATOM      5  S   UNL     1       1.608  10.499  17.992  0.00  0.00    +0.000 S 
ATOM      6  C   UNL     1       0.554  10.904  19.277  0.00  0.00    +0.000 A 
ATOM      7  C   UNL     1       0.393   9.862  20.173  0.00  0.00    +0.000 A 
ATOM      8  C   UNL     1       1.198   8.730  19.785  0.00  0.00    +0.000 A 
ATOM      9  C   UNL     1       1.360   7.445  20.436  0.00  0.00    +0.000 A 
ATOM     10  O   UNL     1       0.733   7.154  21.453  0.00  0.00    +0.000 OA
ATOM     11  C   UNL     1      -0.508   9.958  21.375  0.00  0.00    +0.000 C 
ATOM     12  C   UNL     1      -0.080  11.055  22.352  0.00  0.00    +0.000 C 
ATOM     13  C   UNL     1      -0.462  12.469  21.904  0.00  0.00    +0.000 C 
ATOM     14  C   UNL     1       0.268  12.987  20.659  0.00  0.00    +0.000 C 
ATOM     15  C   UNL     1      -0.088  12.261  19.358  0.00  0.00    +0.000 C 
ENDROOT
BRANCH   1  16
ATOM     16  C   UNL     1       2.433   5.288  20.496  0.00  0.00    +0.000 C 
BRANCH  16  18
ATOM     17  C   UNL     1       1.103   3.132  20.664  0.00  0.00    +0.000 C 
ATOM     18  C   UNL     1       1.364   4.311  20.081  0.00  0.00    +0.000 C 
ENDBRANCH  16  18
ENDBRANCH   1  16
BRANCH   2  19
ATOM     19  S   UNL     1       3.839   5.668  17.816  0.00  0.00    +0.000 S 
BRANCH  19  20
ATOM     20  C   UNL     1       5.346   6.548  17.332  0.00  0.00    +0.000 C 
BRANCH  20  21
ATOM     21  C   UNL     1       6.477   5.576  17.197  0.00  0.00    +0.000 A 
ATOM     22  C   UNL     1       7.439   5.184  18.177  0.00  0.00    +0.000 A 
ATOM     23  C   UNL     1       7.581   5.609  19.588  0.00  0.00    +0.000 C 
ATOM     24  N   UNL     1       8.306   4.290  17.688  0.00  0.00    +0.000 NA
ATOM     25  O   UNL     1       7.925   4.068  16.384  0.00  0.00    +0.000 OA
ATOM     26  C   UNL     1       6.837   4.828  16.092  0.00  0.00    +0.000 A 
ATOM     27  C   UNL     1       6.307   4.674  14.724  0.00  0.00    +0.000 C 
ENDBRANCH  20  21
ENDBRANCH  19  20
ENDBRANCH   2  19
TORSDOF 5
ENDMDL
MODEL 4
REMARK VINA RESULT:      -7.9      1.707      2.628
REMARK  Name = 
REMARK  7 active torsions:
REMARK  status: ('A' for Active; 'I' for Inactive)
REMARK    1  A    between atoms: C_2  and  C_3
REMARK    2  A    between atoms: C_3  and  N_4
REMARK    3  A    between atoms: C_5  and  S_6
REMARK    4  A    between atoms: S_6  and  C_7
REMARK    5  A    between atoms: C_7  and  C_8
REMARK    6  A    between atoms: C_9  and  C_10
REMARK    7  A    between atoms: C_13  and  C_14
REMARK                            x       y       z     vdW  Elec       q    Type
REMARK                         _______ _______ _______ _____ _____    ______ ____
ROOT
ATOM      1  N   UNL     1       3.155   4.828  19.702  0.00  0.00    +0.000 N 
ATOM      2  C   UNL     1       3.725   5.198  18.478  0.00  0.00    +0.000 A 
ATOM      3  N   UNL     1       3.538   6.341  17.892  0.00  0.00    +0.000 NA
ATOM      4  C   UNL     1       2.710   7.198  18.546  0.00  0.00    +0.000 A 
ATOM      5  S   UNL     1       2.380   8.763  17.950  0.00  0.00    +0.000 S 
ATOM      6  C   UNL     1       1.320   9.117  19.246  0.00  0.00    +0.000 A 
ATOM      7  C   UNL     1       1.193   8.056  20.125  0.00  0.00    +0.000 A 
ATOM      8  C   UNL     1       2.029   6.955  19.716  0.00  0.00    +0.000 A 
ATOM      9  C   UNL     1       2.230   5.664  20.345  0.00  0.00    +0.000 A 
ATOM     10  O   UNL     1       1.617   5.339  21.360  0.00  0.00    +0.000 OA
ATOM     11  C   UNL     1       0.296   8.108  21.332  0.00  0.00    +0.000 C 
ATOM     12  C   UNL     1       0.696   9.201  22.325  0.00  0.00    +0.000 C 
ATOM     13  C   UNL     1       0.272  10.610  21.902  0.00  0.00    +0.000 C 
ATOM     14  C   UNL     1       0.982  11.169  20.663  0.00  0.00    +0.000 C 
ATOM     15  C   UNL     1       0.641  10.454  19.351  0.00  0.00    +0.000 C 
ENDROOT
BRANCH   1  16
ATOM     16  C   UNL     1       3.365   3.539  20.367  0.00  0.00    +0.000 C 
BRANCH  16  18
ATOM     17  C   UNL     1       1.747   2.108  19.033  0.00  0.00    +0.000 C 
ATOM     18  C   UNL     1       2.169   2.641  20.188  0.00  0.00    +0.000 C 
ENDBRANCH  16  18
ENDBRANCH   1  16
BRANCH   2  19
ATOM     19  S   UNL     1       4.747   4.001  17.687  0.00  0.00    +0.000 S 
BRANCH  19  20
ATOM     20  C   UNL     1       4.565   4.366  15.922  0.00  0.00    +0.000 C 
BRANCH  20  21
ATOM     21  C   UNL     1       5.880   4.809  15.360  0.00  0.00    +0.000 A 
ATOM     22  C   UNL     1       6.464   4.490  14.096  0.00  0.00    +0.000 A 
ATOM     23  C   UNL     1       5.938   3.654  12.993  0.00  0.00    +0.000 C 
ATOM     24  N   UNL     1       7.660   5.071  13.944  0.00  0.00    +0.000 NA
ATOM     25  O   UNL     1       7.879   5.791  15.095  0.00  0.00    +0.000 OA
ATOM     26  C   UNL     1       6.822   5.641  15.935  0.00  0.00    +0.000 A 
ATOM     27  C   UNL     1       6.916   6.379  17.210  0.00  0.00    +0.000 C 
ENDBRANCH  20  21
ENDBRANCH  19  20
ENDBRANCH   2  19
TORSDOF 5
ENDMDL
MODEL 5
REMARK VINA RESULT:      -7.9      1.575      2.346
REMARK  Name = 
REMARK  7 active torsions:
REMARK  status: ('A' for Active; 'I' for Inactive)
REMARK    1  A    between atoms: C_2  and  C_3
REMARK    2  A    between atoms: C_3  and  N_4
REMARK    3  A    between atoms: C_5  and  S_6
REMARK    4  A    between atoms: S_6  and  C_7
REMARK    5  A    between atoms: C_7  and  C_8
REMARK    6  A    between atoms: C_9  and  C_10
REMARK    7  A    between atoms: C_13  and  C_14
REMARK                            x       y       z     vdW  Elec       q    Type
REMARK                         _______ _______ _______ _____ _____    ______ ____
ROOT
ATOM      1  N   UNL     1       2.753   4.935  19.689  0.00  0.00    +0.000 N 
ATOM      2  C   UNL     1       3.307   5.200  18.431  0.00  0.00    +0.000 A 
ATOM      3  N   UNL     1       3.203   6.332  17.802  0.00  0.00    +0.000 NA
ATOM      4  C   UNL     1       2.483   7.288  18.446  0.00  0.00    +0.000 A 
ATOM      5  S   UNL     1       2.274   8.851  17.794  0.00  0.00    +0.000 S 
ATOM      6  C   UNL     1       1.303   9.355  19.110  0.00  0.00    +0.000 A 
ATOM      7  C   UNL     1       1.113   8.347  20.038  0.00  0.00    +0.000 A 
ATOM      8  C   UNL     1       1.828   7.156  19.650  0.00  0.00    +0.000 A 
ATOM      9  C   UNL     1       1.935   5.879  20.327  0.00  0.00    +0.000 A 
ATOM     10  O   UNL     1       1.333   5.654  21.375  0.00  0.00    +0.000 OA
ATOM     11  C   UNL     1       0.271   8.530  21.273  0.00  0.00    +0.000 C 
ATOM     12  C   UNL     1       0.808   9.620  22.202  0.00  0.00    +0.000 C 
ATOM     13  C   UNL     1       0.498  11.044  21.733  0.00  0.00    +0.000 C 
ATOM     14  C   UNL     1       1.208  11.485  20.446  0.00  0.00    +0.000 C 
ATOM     15  C   UNL     1       0.753  10.752  19.180  0.00  0.00    +0.000 C 
ENDROOT
BRANCH   1  16
ATOM     16  C   UNL     1       2.870   3.660  20.402  0.00  0.00    +0.000 C 
BRANCH  16  18
ATOM     17  C   UNL     1       0.892   2.781  19.074  0.00  0.00    +0.000 C 
ATOM     18  C   UNL     1       1.648   2.806  20.180  0.00  0.00    +0.000 C 
ENDBRANCH  16  18
ENDBRANCH   1  16
BRANCH   2  19
ATOM     19  S   UNL     1       4.184   3.884  17.658  0.00  0.00    +0.000 S 
BRANCH  19  20
ATOM     20  C   UNL     1       5.903   4.138  18.171  0.00  0.00    +0.000 C 
BRANCH  20  21
ATOM     21  C   UNL     1       6.625   4.941  17.133  0.00  0.00    +0.000 A 
ATOM     22  C   UNL     1       6.685   4.727  15.722  0.00  0.00    +0.000 A 
ATOM     23  C   UNL     1       6.048   3.677  14.895  0.00  0.00    +0.000 C 
ATOM     24  N   UNL     1       7.435   5.653  15.114  0.00  0.00    +0.000 NA
ATOM     25  O   UNL     1       7.873   6.497  16.108  0.00  0.00    +0.000 OA
ATOM     26  C   UNL     1       7.389   6.079  17.307  0.00  0.00    +0.000 A 
ATOM     27  C   UNL     1       7.767   6.909  18.467  0.00  0.00    +0.000 C 
ENDBRANCH  20  21
ENDBRANCH  19  20
ENDBRANCH   2  19
TORSDOF 5
ENDMDL
MODEL 6
REMARK VINA RESULT:      -7.8      1.122      1.991
REMARK  Name = 
REMARK  7 active torsions:
REMARK  status: ('A' for Active; 'I' for Inactive)
REMARK    1  A    between atoms: C_2  and  C_3
REMARK    2  A    between atoms: C_3  and  N_4
REMARK    3  A    between atoms: C_5  and  S_6
REMARK    4  A    between atoms: S_6  and  C_7
REMARK    5  A    between atoms: C_7  and  C_8
REMARK    6  A    between atoms: C_9  and  C_10
REMARK    7  A    between atoms: C_13  and  C_14
REMARK                            x       y       z     vdW  Elec       q    Type
REMARK                         _______ _______ _______ _____ _____    ______ ____
ROOT
ATOM      1  N   UNL     1       2.235   6.708  19.794  0.00  0.00    +0.000 N 
ATOM      2  C   UNL     1       2.788   7.045  18.552  0.00  0.00    +0.000 A 
ATOM      3  N   UNL     1       2.611   8.181  17.949  0.00  0.00    +0.000 NA
ATOM      4  C   UNL     1       1.813   9.066  18.603  0.00  0.00    +0.000 A 
ATOM      5  S   UNL     1       1.502  10.626  17.985  0.00  0.00    +0.000 S 
ATOM      6  C   UNL     1       0.476  11.025  19.295  0.00  0.00    +0.000 A 
ATOM      7  C   UNL     1       0.346   9.983  20.196  0.00  0.00    +0.000 A 
ATOM      8  C   UNL     1       1.152   8.857  19.791  0.00  0.00    +0.000 A 
ATOM      9  C   UNL     1       1.340   7.575  20.439  0.00  0.00    +0.000 A 
ATOM     10  O   UNL     1       0.741   7.280  21.472  0.00  0.00    +0.000 OA
ATOM     11  C   UNL     1      -0.526  10.074  21.419  0.00  0.00    +0.000 C 
ATOM     12  C   UNL     1      -0.084  11.176  22.384  0.00  0.00    +0.000 C 
ATOM     13  C   UNL     1      -0.489  12.586  21.943  0.00  0.00    +0.000 C 
ATOM     14  C   UNL     1       0.206  13.108  20.680  0.00  0.00    +0.000 C 
ATOM     15  C   UNL     1      -0.175  12.376  19.388  0.00  0.00    +0.000 C 
ENDROOT
BRANCH   1  16
ATOM     16  C   UNL     1       2.433   5.428  20.478  0.00  0.00    +0.000 C 
BRANCH  16  18
ATOM     17  C   UNL     1       1.071   3.299  20.716  0.00  0.00    +0.000 C 
ATOM     18  C   UNL     1       1.379   4.431  20.070  0.00  0.00    +0.000 C 
ENDBRANCH  16  18
ENDBRANCH   1  16
BRANCH   2  19
ATOM     19  S   UNL     1       3.770   5.814  17.763  0.00  0.00    +0.000 S 
BRANCH  19  20
ATOM     20  C   UNL     1       5.299   6.684  17.329  0.00  0.00    +0.000 C 
BRANCH  20  21
ATOM     21  C   UNL     1       6.402   5.692  17.122  0.00  0.00    +0.000 A 
ATOM     22  C   UNL     1       6.674   4.887  15.973  0.00  0.00    +0.000 A 
ATOM     23  C   UNL     1       5.964   4.816  14.676  0.00  0.00    +0.000 C 
ATOM     24  N   UNL     1       7.749   4.113  16.158  0.00  0.00    +0.000 NA
ATOM     25  O   UNL     1       8.210   4.400  17.422  0.00  0.00    +0.000 OA
ATOM     26  C   UNL     1       7.414   5.341  17.994  0.00  0.00    +0.000 A 
ATOM     27  C   UNL     1       7.806   5.760  19.354  0.00  0.00    +0.000 C 
ENDBRANCH  20  21
ENDBRANCH  19  20
ENDBRANCH   2  19
TORSDOF 5
ENDMDL
MODEL 7
REMARK VINA RESULT:      -7.7      1.570      1.914
REMARK  Name = 
REMARK  7 active torsions:
REMARK  status: ('A' for Active; 'I' for Inactive)
REMARK    1  A    between atoms: C_2  and  C_3
REMARK    2  A    between atoms: C_3  and  N_4
REMARK    3  A    between atoms: C_5  and  S_6
REMARK    4  A    between atoms: S_6  and  C_7
REMARK    5  A    between atoms: C_7  and  C_8
REMARK    6  A    between atoms: C_9  and  C_10
REMARK    7  A    between atoms: C_13  and  C_14
REMARK                            x       y       z     vdW  Elec       q    Type
REMARK                         _______ _______ _______ _____ _____    ______ ____
ROOT
ATOM      1  N   UNL     1       2.813   4.766  19.536  0.00  0.00    +0.000 N 
ATOM      2  C   UNL     1       3.284   5.067  18.252  0.00  0.00    +0.000 A 
ATOM      3  N   UNL     1       3.139   6.215  17.663  0.00  0.00    +0.000 NA
ATOM      4  C   UNL     1       2.461   7.151  18.377  0.00  0.00    +0.000 A 
ATOM      5  S   UNL     1       2.210   8.731  17.783  0.00  0.00    +0.000 S 
ATOM      6  C   UNL     1       1.324   9.196  19.171  0.00  0.00    +0.000 A 
ATOM      7  C   UNL     1       1.195   8.163  20.082  0.00  0.00    +0.000 A 
ATOM      8  C   UNL     1       1.885   6.985  19.616  0.00  0.00    +0.000 A 
ATOM      9  C   UNL     1       2.035   5.690  20.250  0.00  0.00    +0.000 A 
ATOM     10  O   UNL     1       1.503   5.435  21.328  0.00  0.00    +0.000 OA
ATOM     11  C   UNL     1       0.434   8.310  21.372  0.00  0.00    +0.000 C 
ATOM     12  C   UNL     1       1.029   9.376  22.295  0.00  0.00    +0.000 C 
ATOM     13  C   UNL     1       0.688  10.812  21.885  0.00  0.00    +0.000 C 
ATOM     14  C   UNL     1       1.314  11.289  20.568  0.00  0.00    +0.000 C 
ATOM     15  C   UNL     1       0.779  10.589  19.314  0.00  0.00    +0.000 C 
ENDROOT
BRANCH   1  16
ATOM     16  C   UNL     1       2.975   3.472  20.204  0.00  0.00    +0.000 C 
BRANCH  16  18
ATOM     17  C   UNL     1       0.794   2.508  19.335  0.00  0.00    +0.000 C 
ATOM     18  C   UNL     1       2.113   2.420  19.558  0.00  0.00    +0.000 C 
ENDBRANCH  16  18
ENDBRANCH   1  16
BRANCH   2  19
ATOM     19  S   UNL     1       4.111   3.773  17.389  0.00  0.00    +0.000 S 
BRANCH  19  20
ATOM     20  C   UNL     1       5.831   3.904  17.943  0.00  0.00    +0.000 C 
BRANCH  20  21
ATOM     21  C   UNL     1       6.578   4.846  17.050  0.00  0.00    +0.000 A 
ATOM     22  C   UNL     1       7.361   5.985  17.409  0.00  0.00    +0.000 A 
ATOM     23  C   UNL     1       7.664   6.542  18.747  0.00  0.00    +0.000 C 
ATOM     24  N   UNL     1       7.879   6.588  16.332  0.00  0.00    +0.000 NA
ATOM     25  O   UNL     1       7.457   5.853  15.248  0.00  0.00    +0.000 OA
ATOM     26  C   UNL     1       6.688   4.815  15.673  0.00  0.00    +0.000 A 
ATOM     27  C   UNL     1       6.181   3.927  14.609  0.00  0.00    +0.000 C 
ENDBRANCH  20  21
ENDBRANCH  19  20
ENDBRANCH   2  19
TORSDOF 5
ENDMDL
MODEL 8
REMARK VINA RESULT:      -7.7      1.545      2.124
REMARK  Name = 
REMARK  7 active torsions:
REMARK  status: ('A' for Active; 'I' for Inactive)
REMARK    1  A    between atoms: C_2  and  C_3
REMARK    2  A    between atoms: C_3  and  N_4
REMARK    3  A    between atoms: C_5  and  S_6
REMARK    4  A    between atoms: S_6  and  C_7
REMARK    5  A    between atoms: C_7  and  C_8
REMARK    6  A    between atoms: C_9  and  C_10
REMARK    7  A    between atoms: C_13  and  C_14
REMARK                            x       y       z     vdW  Elec       q    Type
REMARK                         _______ _______ _______ _____ _____    ______ ____
ROOT
ATOM      1  N   UNL     1       2.263   6.354  19.938  0.00  0.00    +0.000 N 
ATOM      2  C   UNL     1       2.875   6.554  18.695  0.00  0.00    +0.000 A 
ATOM      3  N   UNL     1       2.798   7.650  18.001  0.00  0.00    +0.000 NA
ATOM      4  C   UNL     1       2.046   8.635  18.558  0.00  0.00    +0.000 A 
ATOM      5  S   UNL     1       1.865  10.160  17.814  0.00  0.00    +0.000 S 
ATOM      6  C   UNL     1       0.831  10.729  19.053  0.00  0.00    +0.000 A 
ATOM      7  C   UNL     1       0.600   9.772  20.024  0.00  0.00    +0.000 A 
ATOM      8  C   UNL     1       1.335   8.566  19.735  0.00  0.00    +0.000 A 
ATOM      9  C   UNL     1       1.412   7.327  20.484  0.00  0.00    +0.000 A 
ATOM     10  O   UNL     1       0.763   7.156  21.514  0.00  0.00    +0.000 OA
ATOM     11  C   UNL     1      -0.299  10.017  21.206  0.00  0.00    +0.000 C 
ATOM     12  C   UNL     1       0.190  11.158  22.100  0.00  0.00    +0.000 C 
ATOM     13  C   UNL     1      -0.100  12.554  21.540  0.00  0.00    +0.000 C 
ATOM     14  C   UNL     1       0.669  12.928  20.267  0.00  0.00    +0.000 C 
ATOM     15  C   UNL     1       0.276  12.125  19.021  0.00  0.00    +0.000 C 
ENDROOT
BRANCH   1  16
ATOM     16  C   UNL     1       2.348   5.120  20.723  0.00  0.00    +0.000 C 
BRANCH  16  18
ATOM     17  C   UNL     1       1.102   2.908  20.769  0.00  0.00    +0.000 C 
ATOM     18  C   UNL     1       1.215   4.187  20.383  0.00  0.00    +0.000 C 
ENDBRANCH  16  18
ENDBRANCH   1  16
BRANCH   2  19
ATOM     19  S   UNL     1       3.790   5.202  18.036  0.00  0.00    +0.000 S 
BRANCH  19  20
ATOM     20  C   UNL     1       5.490   5.515  18.579  0.00  0.00    +0.000 C 
BRANCH  20  21
ATOM     21  C   UNL     1       6.373   5.708  17.385  0.00  0.00    +0.000 A 
ATOM     22  C   UNL     1       6.476   4.900  16.212  0.00  0.00    +0.000 A 
ATOM     23  C   UNL     1       5.741   3.670  15.840  0.00  0.00    +0.000 C 
ATOM     24  N   UNL     1       7.382   5.387  15.355  0.00  0.00    +0.000 NA
ATOM     25  O   UNL     1       7.882   6.527  15.942  0.00  0.00    +0.000 OA
ATOM     26  C   UNL     1       7.281   6.721  17.145  0.00  0.00    +0.000 A 
ATOM     27  C   UNL     1       7.711   7.927  17.880  0.00  0.00    +0.000 C 
ENDBRANCH  20  21
ENDBRANCH  19  20
ENDBRANCH   2  19
TORSDOF 5
ENDMDL
MODEL 9
REMARK VINA RESULT:      -7.6      1.757      2.303
REMARK  Name = 
REMARK  7 active torsions:
REMARK  status: ('A' for Active; 'I' for Inactive)
REMARK    1  A    between atoms: C_2  and  C_3
REMARK    2  A    between atoms: C_3  and  N_4
REMARK    3  A    between atoms: C_5  and  S_6
REMARK    4  A    between atoms: S_6  and  C_7
REMARK    5  A    between atoms: C_7  and  C_8
REMARK    6  A    between atoms: C_9  and  C_10
REMARK    7  A    between atoms: C_13  and  C_14
REMARK                            x       y       z     vdW  Elec       q    Type
REMARK                         _______ _______ _______ _____ _____    ______ ____
ROOT
ATOM      1  N   UNL     1       3.224   4.803  19.593  0.00  0.00    +0.000 N 
ATOM      2  C   UNL     1       3.776   5.185  18.364  0.00  0.00    +0.000 A 
ATOM      3  N   UNL     1       3.584   6.337  17.795  0.00  0.00    +0.000 NA
ATOM      4  C   UNL     1       2.770   7.189  18.472  0.00  0.00    +0.000 A 
ATOM      5  S   UNL     1       2.437   8.762  17.900  0.00  0.00    +0.000 S 
ATOM      6  C   UNL     1       1.398   9.104  19.216  0.00  0.00    +0.000 A 
ATOM      7  C   UNL     1       1.280   8.033  20.084  0.00  0.00    +0.000 A 
ATOM      8  C   UNL     1       2.106   6.933  19.649  0.00  0.00    +0.000 A 
ATOM      9  C   UNL     1       2.311   5.635  20.259  0.00  0.00    +0.000 A 
ATOM     10  O   UNL     1       1.712   5.299  21.279  0.00  0.00    +0.000 OA
ATOM     11  C   UNL     1       0.401   8.073  21.305  0.00  0.00    +0.000 C 
ATOM     12  C   UNL     1       0.820   9.152  22.305  0.00  0.00    +0.000 C 
ATOM     13  C   UNL     1       0.395  10.568  21.905  0.00  0.00    +0.000 C 
ATOM     14  C   UNL     1       1.088  11.139  20.662  0.00  0.00    +0.000 C 
ATOM     15  C   UNL     1       0.725  10.441  19.347  0.00  0.00    +0.000 C 
ENDROOT
BRANCH   1  16
ATOM     16  C   UNL     1       3.438   3.505  20.238  0.00  0.00    +0.000 C 
BRANCH  16  18
ATOM     17  C   UNL     1       1.329   2.540  19.207  0.00  0.00    +0.000 C 
ATOM     18  C   UNL     1       2.612   2.432  19.578  0.00  0.00    +0.000 C 
ENDBRANCH  16  18
ENDBRANCH   1  16
BRANCH   2  19
ATOM     19  S   UNL     1       4.782   3.995  17.543  0.00  0.00    +0.000 S 
BRANCH  19  20
ATOM     20  C   UNL     1       4.451   4.278  15.785  0.00  0.00    +0.000 C 
BRANCH  20  21
ATOM     21  C   UNL     1       5.728   4.616  15.079  0.00  0.00    +0.000 A 
ATOM     22  C   UNL     1       6.821   5.410  15.544  0.00  0.00    +0.000 A 
ATOM     23  C   UNL     1       7.006   6.102  16.840  0.00  0.00    +0.000 C 
ATOM     24  N   UNL     1       7.794   5.493  14.629  0.00  0.00    +0.000 NA
ATOM     25  O   UNL     1       7.367   4.748  13.554  0.00  0.00    +0.000 OA
ATOM     26  C   UNL     1       6.143   4.223  13.821  0.00  0.00    +0.000 A 
ATOM     27  C   UNL     1       5.569   3.380  12.754  0.00  0.00    +0.000 C 
ENDBRANCH  20  21
ENDBRANCH  19  20
ENDBRANCH   2  19
TORSDOF 5
ENDMDL
