MODEL 1
REMARK VINA RESULT:      -7.8      0.000      0.000
REMARK  Name = 
REMARK  9 active torsions:
REMARK  status: ('A' for Active; 'I' for Inactive)
REMARK    1  A    between atoms: C_1  and  N_2
REMARK    2  A    between atoms: N_2  and  C_3
REMARK    3  A    between atoms: N_2  and  C_4
REMARK    4  A    between atoms: C_4  and  C_5
REMARK    5  A    between atoms: C_10  and  C_11
REMARK    6  A    between atoms: C_11  and  N_12
REMARK    7  A    between atoms: N_12  and  C_13
REMARK    8  A    between atoms: C_14  and  C_16
REMARK    9  A    between atoms: C_20  and  C_21
REMARK                            x       y       z     vdW  Elec       q    Type
REMARK                         _______ _______ _______ _____ _____    ______ ____
ROOT
ATOM      1  N   UNL     1       2.073   7.881  19.412  0.00  0.00    +0.000 N 
ATOM      2  C   UNL     1       2.357   8.237  18.026  0.00  0.00    +0.000 C 
ATOM      3  C   UNL     1       1.249   8.591  20.294  0.00  0.00    +0.000 C 
ATOM      4  O   UNL     1       1.138   8.284  21.482  0.00  0.00    +0.000 OA
ENDROOT
BRANCH   3   5
ATOM      5  C   UNL     1       0.494   9.795  19.843  0.00  0.00    +0.000 A 
ATOM      6  C   UNL     1       0.837  11.032  20.406  0.00  0.00    +0.000 A 
ATOM      7  C   UNL     1       0.165  12.190  20.016  0.00  0.00    +0.000 A 
ATOM      8  C   UNL     1      -0.846  12.118  19.055  0.00  0.00    +0.000 A 
ATOM      9  C   UNL     1      -1.225  10.888  18.499  0.00  0.00    +0.000 A 
ATOM     10  C   UNL     1      -0.569   9.723  18.935  0.00  0.00    +0.000 A 
BRANCH   9  11
ATOM     11  C   UNL     1      -2.256  10.829  17.462  0.00  0.00    +0.000 A 
ATOM     12  C   UNL     1      -2.390  10.157  16.261  0.00  0.00    +0.000 A 
ATOM     13  C   UNL     1      -3.658  10.507  15.734  0.00  0.00    +0.000 A 
ATOM     14  C   UNL     1      -4.217  11.378  16.639  0.00  0.00    +0.000 A 
ATOM     15  O   UNL     1      -3.377  11.578  17.685  0.00  0.00    +0.000 OA
ENDBRANCH   9  11
ENDBRANCH   3   5
BRANCH   1  16
ATOM     16  C   UNL     1       2.685   6.648  19.889  0.00  0.00    +0.000 C 
BRANCH  16  22
ATOM     17  C   UNL     1       2.627   4.509  18.302  0.00  0.00    +0.000 A 
ATOM     18  C   UNL     1       2.152   3.179  18.181  0.00  0.00    +0.000 A 
ATOM     19  C   UNL     1       1.211   2.640  19.055  0.00  0.00    +0.000 A 
ATOM     20  C   UNL     1       0.708   3.424  20.076  0.00  0.00    +0.000 A 
ATOM     21  C   UNL     1       1.196   4.719  20.248  0.00  0.00    +0.000 A 
ATOM     22  C   UNL     1       2.189   5.286  19.401  0.00  0.00    +0.000 A 
BRANCH  17  23
ATOM     23  C   UNL     1       3.623   4.950  17.249  0.00  0.00    +0.000 C 
BRANCH  23  25
ATOM     24  C   UNL     1       5.766   4.481  18.465  0.00  0.00    +0.000 C 
ATOM     25  N   UNL     1       4.931   4.314  17.300  0.00  0.00    +0.000 NA
ATOM     26  C   UNL     1       5.572   3.899  16.079  0.00  0.00    +0.000 C 
ENDBRANCH  23  25
ENDBRANCH  17  23
ENDBRANCH  16  22
ENDBRANCH   1  16
TORSDOF 6
ENDMDL
MODEL 2
REMARK VINA RESULT:      -7.7      1.162      1.434
REMARK  Name = 
REMARK  9 active torsions:
REMARK  status: ('A' for Active; 'I' for Inactive)
REMARK    1  A    between atoms: C_1  and  N_2
REMARK    2  A    between atoms: N_2  and  C_3
REMARK    3  A    between atoms: N_2  and  C_4
REMARK    4  A    between atoms: C_4  and  C_5
REMARK    5  A    between atoms: C_10  and  C_11
REMARK    6  A    between atoms: C_11  and  N_12
REMARK    7  A    between atoms: N_12  and  C_13
REMARK    8  A    between atoms: C_14  and  C_16
REMARK    9  A    between atoms: C_20  and  C_21
REMARK                            x       y       z     vdW  Elec       q    Type
REMARK                         _______ _______ _______ _____ _____    ______ ____
ROOT
ATOM      1  N   UNL     1       2.123   8.051  19.197  0.00  0.00    +0.000 N 
ATOM      2  C   UNL     1       2.555   8.401  17.849  0.00  0.00    +0.000 C 
ATOM      3  C   UNL     1       1.210   8.765  19.983  0.00  0.00    +0.000 C 
ATOM      4  O   UNL     1       0.972   8.463  21.153  0.00  0.00    +0.000 OA
ENDROOT
BRANCH   3   5
ATOM      5  C   UNL     1       0.511   9.969  19.449  0.00  0.00    +0.000 A 
ATOM      6  C   UNL     1       0.984  11.229  19.839  0.00  0.00    +0.000 A 
ATOM      7  C   UNL     1       0.369  12.387  19.365  0.00  0.00    +0.000 A 
ATOM      8  C   UNL     1      -0.717  12.290  18.492  0.00  0.00    +0.000 A 
ATOM      9  C   UNL     1      -1.226  11.041  18.111  0.00  0.00    +0.000 A 
ATOM     10  C   UNL     1      -0.623   9.883  18.632  0.00  0.00    +0.000 A 
BRANCH   9  11
ATOM     11  C   UNL     1      -2.337  10.950  17.163  0.00  0.00    +0.000 A 
ATOM     12  C   UNL     1      -2.562  10.251  15.992  0.00  0.00    +0.000 A 
ATOM     13  C   UNL     1      -3.871  10.579  15.563  0.00  0.00    +0.000 A 
ATOM     14  C   UNL     1      -4.364  11.466  16.490  0.00  0.00    +0.000 A 
ATOM     15  O   UNL     1      -3.444  11.696  17.459  0.00  0.00    +0.000 OA
ENDBRANCH   9  11
ENDBRANCH   3   5
BRANCH   1  16
ATOM     16  C   UNL     1       2.677   6.818  19.742  0.00  0.00    +0.000 C 
BRANCH  16  22
ATOM     17  C   UNL     1       4.118   4.895  18.593  0.00  0.00    +0.000 A 
ATOM     18  C   UNL     1       4.043   3.667  17.887  0.00  0.00    +0.000 A 
ATOM     19  C   UNL     1       2.848   3.178  17.365  0.00  0.00    +0.000 A 
ATOM     20  C   UNL     1       1.688   3.911  17.526  0.00  0.00    +0.000 A 
ATOM     21  C   UNL     1       1.724   5.097  18.261  0.00  0.00    +0.000 A 
ATOM     22  C   UNL     1       2.919   5.603  18.846  0.00  0.00    +0.000 A 
BRANCH  17  23
ATOM     23  C   UNL     1       5.500   5.299  19.065  0.00  0.00    +0.000 C 
BRANCH  23  25
ATOM     24  C   UNL     1       6.103   6.717  17.086  0.00  0.00    +0.000 C 
ATOM     25  N   UNL     1       6.446   5.676  18.025  0.00  0.00    +0.000 NA
ATOM     26  C   UNL     1       7.498   4.768  17.653  0.00  0.00    +0.000 C 
ENDBRANCH  23  25
ENDBRANCH  17  23
ENDBRANCH  16  22
ENDBRANCH   1  16
TORSDOF 6
ENDMDL
MODEL 3
REMARK VINA RESULT:      -7.6      1.173      1.451
REMARK  Name = 
REMARK  9 active torsions:
REMARK  status: ('A' for Active; 'I' for Inactive)
REMARK    1  A    between atoms: C_1  and  N_2
REMARK    2  A    between atoms: N_2  and  C_3
REMARK    3  A    between atoms: N_2  and  C_4
REMARK    4  A    between atoms: C_4  and  C_5
REMARK    5  A    between atoms: C_10  and  C_11
REMARK    6  A    between atoms: C_11  and  N_12
REMARK    7  A    between atoms: N_12  and  C_13
REMARK    8  A    between atoms: C_14  and  C_16
REMARK    9  A    between atoms: C_20  and  C_21
REMARK                            x       y       z     vdW  Elec       q    Type
REMARK                         _______ _______ _______ _____ _____    ______ ____
ROOT
ATOM      1  N   UNL     1       1.951   7.776  19.687  0.00  0.00    +0.000 N 
ATOM      2  C   UNL     1       1.236   7.971  20.943  0.00  0.00    +0.000 C 
ATOM      3  C   UNL     1       1.847   8.580  18.545  0.00  0.00    +0.000 C 
ATOM      4  O   UNL     1       2.406   8.294  17.485  0.00  0.00    +0.000 OA
ENDROOT
BRANCH   3   5
ATOM      5  C   UNL     1       1.003   9.809  18.542  0.00  0.00    +0.000 A 
ATOM      6  C   UNL     1       1.539  10.974  19.106  0.00  0.00    +0.000 A 
ATOM      7  C   UNL     1       0.793  12.152  19.126  0.00  0.00    +0.000 A 
ATOM      8  C   UNL     1      -0.489  12.172  18.572  0.00  0.00    +0.000 A 
ATOM      9  C   UNL     1      -1.057  11.013  18.027  0.00  0.00    +0.000 A 
ATOM     10  C   UNL     1      -0.310   9.822  18.056  0.00  0.00    +0.000 A 
BRANCH   9  11
ATOM     11  C   UNL     1      -2.384  11.055  17.412  0.00  0.00    +0.000 A 
ATOM     12  C   UNL     1      -3.639  11.456  17.831  0.00  0.00    +0.000 A 
ATOM     13  C   UNL     1      -4.517  11.271  16.735  0.00  0.00    +0.000 A 
ATOM     14  C   UNL     1      -3.749  10.759  15.716  0.00  0.00    +0.000 A 
ATOM     15  O   UNL     1      -2.460  10.625  16.116  0.00  0.00    +0.000 OA
ENDBRANCH   9  11
ENDBRANCH   3   5
BRANCH   1  16
ATOM     16  C   UNL     1       2.885   6.659  19.654  0.00  0.00    +0.000 C 
BRANCH  16  22
ATOM     17  C   UNL     1       3.005   4.604  17.963  0.00  0.00    +0.000 A 
ATOM     18  C   UNL     1       2.589   3.266  17.747  0.00  0.00    +0.000 A 
ATOM     19  C   UNL     1       1.617   2.650  18.532  0.00  0.00    +0.000 A 
ATOM     20  C   UNL     1       1.023   3.363  19.557  0.00  0.00    +0.000 A 
ATOM     21  C   UNL     1       1.451   4.664  19.823  0.00  0.00    +0.000 A 
ATOM     22  C   UNL     1       2.472   5.308  19.069  0.00  0.00    +0.000 A 
BRANCH  17  23
ATOM     23  C   UNL     1       4.047   5.132  16.997  0.00  0.00    +0.000 C 
BRANCH  23  25
ATOM     24  C   UNL     1       6.309   4.780  18.021  0.00  0.00    +0.000 C 
ATOM     25  N   UNL     1       5.333   4.452  17.009  0.00  0.00    +0.000 NA
ATOM     26  C   UNL     1       5.807   3.799  15.817  0.00  0.00    +0.000 C 
ENDBRANCH  23  25
ENDBRANCH  17  23
ENDBRANCH  16  22
ENDBRANCH   1  16
TORSDOF 6
ENDMDL
MODEL 4
REMARK VINA RESULT:      -7.5      1.377      1.706
REMARK  Name = 
REMARK  9 active torsions:
REMARK  status: ('A' for Active; 'I' for Inactive)
REMARK    1  A    between atoms: C_1  and  N_2
REMARK    2  A    between atoms: N_2  and  C_3
REMARK    3  A    between atoms: N_2  and  C_4
REMARK    4  A    between atoms: C_4  and  C_5
REMARK    5  A    between atoms: C_10  and  C_11
REMARK    6  A    between atoms: C_11  and  N_12
REMARK    7  A    between atoms: N_12  and  C_13
REMARK    8  A    between atoms: C_14  and  C_16
REMARK    9  A    between atoms: C_20  and  C_21
REMARK                            x       y       z     vdW  Elec       q    Type
REMARK                         _______ _______ _______ _____ _____    ______ ____
ROOT
ATOM      1  N   UNL     1       2.176   7.700  19.403  0.00  0.00    +0.000 N 
ATOM      2  C   UNL     1       1.480   7.567  20.678  0.00  0.00    +0.000 C 
ATOM      3  C   UNL     1       1.908   8.652  18.412  0.00  0.00    +0.000 C 
ATOM      4  O   UNL     1       2.471   8.637  17.316  0.00  0.00    +0.000 OA
ENDROOT
BRANCH   3   5
ATOM      5  C   UNL     1       0.880   9.712  18.619  0.00  0.00    +0.000 A 
ATOM      6  C   UNL     1       1.106  10.656  19.628  0.00  0.00    +0.000 A 
ATOM      7  C   UNL     1       0.177  11.670  19.861  0.00  0.00    +0.000 A 
ATOM      8  C   UNL     1      -0.977  11.750  19.079  0.00  0.00    +0.000 A 
ATOM      9  C   UNL     1      -1.238  10.800  18.081  0.00  0.00    +0.000 A 
ATOM     10  C   UNL     1      -0.314   9.757  17.889  0.00  0.00    +0.000 A 
BRANCH   9  11
ATOM     11  C   UNL     1      -2.429  10.916  17.239  0.00  0.00    +0.000 A 
ATOM     12  C   UNL     1      -2.773  10.476  15.974  0.00  0.00    +0.000 A 
ATOM     13  C   UNL     1      -4.105  10.896  15.741  0.00  0.00    +0.000 A 
ATOM     14  C   UNL     1      -4.492  11.577  16.872  0.00  0.00    +0.000 A 
ATOM     15  O   UNL     1      -3.485  11.594  17.781  0.00  0.00    +0.000 OA
ENDBRANCH   9  11
ENDBRANCH   3   5
BRANCH   1  16
ATOM     16  C   UNL     1       3.274   6.769  19.179  0.00  0.00    +0.000 C 
BRANCH  16  22
ATOM     17  C   UNL     1       3.801   4.911  17.344  0.00  0.00    +0.000 A 
ATOM     18  C   UNL     1       3.519   3.581  16.939  0.00  0.00    +0.000 A 
ATOM     19  C   UNL     1       2.483   2.835  17.495  0.00  0.00    +0.000 A 
ATOM     20  C   UNL     1       1.688   3.404  18.472  0.00  0.00    +0.000 A 
ATOM     21  C   UNL     1       1.976   4.692  18.926  0.00  0.00    +0.000 A 
ATOM     22  C   UNL     1       3.054   5.465  18.411  0.00  0.00    +0.000 A 
BRANCH  17  23
ATOM     23  C   UNL     1       4.940   5.593  16.614  0.00  0.00    +0.000 C 
BRANCH  23  25
ATOM     24  C   UNL     1       6.753   7.104  17.462  0.00  0.00    +0.000 C 
ATOM     25  N   UNL     1       6.163   5.790  17.377  0.00  0.00    +0.000 NA
ATOM     26  C   UNL     1       7.007   4.662  17.676  0.00  0.00    +0.000 C 
ENDBRANCH  23  25
ENDBRANCH  17  23
ENDBRANCH  16  22
ENDBRANCH   1  16
TORSDOF 6
ENDMDL
MODEL 5
REMARK VINA RESULT:      -7.5      1.564      2.024
REMARK  Name = 
REMARK  9 active torsions:
REMARK  status: ('A' for Active; 'I' for Inactive)
REMARK    1  A    between atoms: C_1  and  N_2
REMARK    2  A    between atoms: N_2  and  C_3
REMARK    3  A    between atoms: N_2  and  C_4
REMARK    4  A    between atoms: C_4  and  C_5
REMARK    5  A    between atoms: C_10  and  C_11
REMARK    6  A    between atoms: C_11  and  N_12
REMARK    7  A    between atoms: N_12  and  C_13
REMARK    8  A    between atoms: C_14  and  C_16
REMARK    9  A    between atoms: C_20  and  C_21
REMARK                            x       y       z     vdW  Elec       q    Type
REMARK                         _______ _______ _______ _____ _____    ______ ____
ROOT
ATOM      1  N   UNL     1       2.306   7.701  19.097  0.00  0.00    +0.000 N 
ATOM      2  C   UNL     1       1.720   7.325  20.378  0.00  0.00    +0.000 C 
ATOM      3  C   UNL     1       1.893   8.760  18.279  0.00  0.00    +0.000 C 
ATOM      4  O   UNL     1       2.371   8.954  17.160  0.00  0.00    +0.000 OA
ENDROOT
BRANCH   3   5
ATOM      5  C   UNL     1       0.805   9.686  18.708  0.00  0.00    +0.000 A 
ATOM      6  C   UNL     1       0.984  10.399  19.901  0.00  0.00    +0.000 A 
ATOM      7  C   UNL     1      -0.001  11.281  20.345  0.00  0.00    +0.000 A 
ATOM      8  C   UNL     1      -1.164  11.461  19.594  0.00  0.00    +0.000 A 
ATOM      9  C   UNL     1      -1.377  10.738  18.412  0.00  0.00    +0.000 A 
ATOM     10  C   UNL     1      -0.395   9.819  18.001  0.00  0.00    +0.000 A 
BRANCH   9  11
ATOM     11  C   UNL     1      -2.579  10.964  17.610  0.00  0.00    +0.000 A 
ATOM     12  C   UNL     1      -3.855  11.426  17.877  0.00  0.00    +0.000 A 
ATOM     13  C   UNL     1      -4.553  11.442  16.645  0.00  0.00    +0.000 A 
ATOM     14  C   UNL     1      -3.667  10.980  15.701  0.00  0.00    +0.000 A 
ATOM     15  O   UNL     1      -2.473  10.689  16.275  0.00  0.00    +0.000 OA
ENDBRANCH   9  11
ENDBRANCH   3   5
BRANCH   1  16
ATOM     16  C   UNL     1       3.452   6.911  18.666  0.00  0.00    +0.000 C 
BRANCH  16  22
ATOM     17  C   UNL     1       4.221   4.368  18.465  0.00  0.00    +0.000 A 
ATOM     18  C   UNL     1       3.764   3.041  18.263  0.00  0.00    +0.000 A 
ATOM     19  C   UNL     1       2.468   2.753  17.844  0.00  0.00    +0.000 A 
ATOM     20  C   UNL     1       1.587   3.791  17.605  0.00  0.00    +0.000 A 
ATOM     21  C   UNL     1       1.994   5.104  17.845  0.00  0.00    +0.000 A 
ATOM     22  C   UNL     1       3.297   5.431  18.316  0.00  0.00    +0.000 A 
BRANCH  17  23
ATOM     23  C   UNL     1       5.669   4.509  18.888  0.00  0.00    +0.000 C 
BRANCH  23  25
ATOM     24  C   UNL     1       6.821   4.519  16.661  0.00  0.00    +0.000 C 
ATOM     25  N   UNL     1       6.555   5.152  17.930  0.00  0.00    +0.000 NA
ATOM     26  C   UNL     1       7.486   6.154  18.379  0.00  0.00    +0.000 C 
ENDBRANCH  23  25
ENDBRANCH  17  23
ENDBRANCH  16  22
ENDBRANCH   1  16
TORSDOF 6
ENDMDL
MODEL 6
REMARK VINA RESULT:      -7.5      1.063      1.439
REMARK  Name = 
REMARK  9 active torsions:
REMARK  status: ('A' for Active; 'I' for Inactive)
REMARK    1  A    between atoms: C_1  and  N_2
REMARK    2  A    between atoms: N_2  and  C_3
REMARK    3  A    between atoms: N_2  and  C_4
REMARK    4  A    between atoms: C_4  and  C_5
REMARK    5  A    between atoms: C_10  and  C_11
REMARK    6  A    between atoms: C_11  and  N_12
REMARK    7  A    between atoms: N_12  and  C_13
REMARK    8  A    between atoms: C_14  and  C_16
REMARK    9  A    between atoms: C_20  and  C_21
REMARK                            x       y       z     vdW  Elec       q    Type
REMARK                         _______ _______ _______ _____ _____    ______ ____
ROOT
ATOM      1  N   UNL     1       2.126   8.111  18.995  0.00  0.00    +0.000 N 
ATOM      2  C   UNL     1       2.460   8.442  17.614  0.00  0.00    +0.000 C 
ATOM      3  C   UNL     1       1.306   8.861  19.848  0.00  0.00    +0.000 C 
ATOM      4  O   UNL     1       1.153   8.571  21.036  0.00  0.00    +0.000 OA
ENDROOT
BRANCH   3   5
ATOM      5  C   UNL     1       0.611  10.088  19.366  0.00  0.00    +0.000 A 
ATOM      6  C   UNL     1       1.217  11.326  19.615  0.00  0.00    +0.000 A 
ATOM      7  C   UNL     1       0.610  12.505  19.183  0.00  0.00    +0.000 A 
ATOM      8  C   UNL     1      -0.602  12.450  18.491  0.00  0.00    +0.000 A 
ATOM      9  C   UNL     1      -1.242  11.225  18.255  0.00  0.00    +0.000 A 
ATOM     10  C   UNL     1      -0.639  10.049  18.737  0.00  0.00    +0.000 A 
BRANCH   9  11
ATOM     11  C   UNL     1      -2.489  11.174  17.493  0.00  0.00    +0.000 A 
ATOM     12  C   UNL     1      -3.813  11.462  17.772  0.00  0.00    +0.000 A 
ATOM     13  C   UNL     1      -4.543  11.233  16.580  0.00  0.00    +0.000 A 
ATOM     14  C   UNL     1      -3.626  10.810  15.648  0.00  0.00    +0.000 A 
ATOM     15  O   UNL     1      -2.383  10.771  16.191  0.00  0.00    +0.000 OA
ENDBRANCH   9  11
ENDBRANCH   3   5
BRANCH   1  16
ATOM     16  C   UNL     1       2.677   6.861  19.500  0.00  0.00    +0.000 C 
BRANCH  16  22
ATOM     17  C   UNL     1       3.436   5.084  17.666  0.00  0.00    +0.000 A 
ATOM     18  C   UNL     1       3.249   3.757  17.203  0.00  0.00    +0.000 A 
ATOM     19  C   UNL     1       2.206   2.950  17.651  0.00  0.00    +0.000 A 
ATOM     20  C   UNL     1       1.309   3.454  18.573  0.00  0.00    +0.000 A 
ATOM     21  C   UNL     1       1.499   4.738  19.084  0.00  0.00    +0.000 A 
ATOM     22  C   UNL     1       2.580   5.573  18.681  0.00  0.00    +0.000 A 
BRANCH  17  23
ATOM     23  C   UNL     1       4.599   5.837  17.052  0.00  0.00    +0.000 C 
BRANCH  23  25
ATOM     24  C   UNL     1       6.800   6.953  17.496  0.00  0.00    +0.000 C 
ATOM     25  N   UNL     1       5.742   6.070  17.922  0.00  0.00    +0.000 NA
ATOM     26  C   UNL     1       6.042   5.133  18.973  0.00  0.00    +0.000 C 
ENDBRANCH  23  25
ENDBRANCH  17  23
ENDBRANCH  16  22
ENDBRANCH   1  16
TORSDOF 6
ENDMDL
MODEL 7
REMARK VINA RESULT:      -7.4      1.293      1.575
REMARK  Name = 
REMARK  9 active torsions:
REMARK  status: ('A' for Active; 'I' for Inactive)
REMARK    1  A    between atoms: C_1  and  N_2
REMARK    2  A    between atoms: N_2  and  C_3
REMARK    3  A    between atoms: N_2  and  C_4
REMARK    4  A    between atoms: C_4  and  C_5
REMARK    5  A    between atoms: C_10  and  C_11
REMARK    6  A    between atoms: C_11  and  N_12
REMARK    7  A    between atoms: N_12  and  C_13
REMARK    8  A    between atoms: C_14  and  C_16
REMARK    9  A    between atoms: C_20  and  C_21
REMARK                            x       y       z     vdW  Elec       q    Type
REMARK                         _______ _______ _______ _____ _____    ______ ____
ROOT
ATOM      1  N   UNL     1       1.865   8.036  19.775  0.00  0.00    +0.000 N 
ATOM      2  C   UNL     1       1.195   8.311  21.041  0.00  0.00    +0.000 C 
ATOM      3  C   UNL     1       1.743   8.785  18.598  0.00  0.00    +0.000 C 
ATOM      4  O   UNL     1       2.261   8.432  17.537  0.00  0.00    +0.000 OA
ENDROOT
BRANCH   3   5
ATOM      5  C   UNL     1       0.930  10.034  18.559  0.00  0.00    +0.000 A 
ATOM      6  C   UNL     1       1.588  11.252  18.774  0.00  0.00    +0.000 A 
ATOM      7  C   UNL     1       0.875  12.450  18.744  0.00  0.00    +0.000 A 
ATOM      8  C   UNL     1      -0.499  12.436  18.491  0.00  0.00    +0.000 A 
ATOM      9  C   UNL     1      -1.184  11.227  18.302  0.00  0.00    +0.000 A 
ATOM     10  C   UNL     1      -0.459  10.025  18.379  0.00  0.00    +0.000 A 
BRANCH   9  11
ATOM     11  C   UNL     1      -2.614  11.226  17.995  0.00  0.00    +0.000 A 
ATOM     12  C   UNL     1      -3.399  10.646  17.015  0.00  0.00    +0.000 A 
ATOM     13  C   UNL     1      -4.740  11.008  17.295  0.00  0.00    +0.000 A 
ATOM     14  C   UNL     1      -4.694  11.794  18.422  0.00  0.00    +0.000 A 
ATOM     15  O   UNL     1      -3.414  11.931  18.851  0.00  0.00    +0.000 OA
ENDBRANCH   9  11
ENDBRANCH   3   5
BRANCH   1  16
ATOM     16  C   UNL     1       2.769   6.894  19.769  0.00  0.00    +0.000 C 
BRANCH  16  22
ATOM     17  C   UNL     1       2.672   4.638  18.357  0.00  0.00    +0.000 A 
ATOM     18  C   UNL     1       2.202   3.300  18.358  0.00  0.00    +0.000 A 
ATOM     19  C   UNL     1       1.295   2.827  19.304  0.00  0.00    +0.000 A 
ATOM     20  C   UNL     1       0.822   3.687  20.277  0.00  0.00    +0.000 A 
ATOM     21  C   UNL     1       1.307   4.994  20.331  0.00  0.00    +0.000 A 
ATOM     22  C   UNL     1       2.267   5.497  19.407  0.00  0.00    +0.000 A 
BRANCH  17  23
ATOM     23  C   UNL     1       3.628   4.998  17.238  0.00  0.00    +0.000 C 
BRANCH  23  25
ATOM     24  C   UNL     1       5.494   6.664  17.067  0.00  0.00    +0.000 C 
ATOM     25  N   UNL     1       4.945   5.463  17.647  0.00  0.00    +0.000 NA
ATOM     26  C   UNL     1       5.863   4.546  18.270  0.00  0.00    +0.000 C 
ENDBRANCH  23  25
ENDBRANCH  17  23
ENDBRANCH  16  22
ENDBRANCH   1  16
TORSDOF 6
ENDMDL
MODEL 8
REMARK VINA RESULT:      -7.4      1.183      2.535
REMARK  Name = 
REMARK  9 active torsions:
REMARK  status: ('A' for Active; 'I' for Inactive)
REMARK    1  A    between atoms: C_1  and  N_2
REMARK    2  A    between atoms: N_2  and  C_3
REMARK    3  A    between atoms: N_2  and  C_4
REMARK    4  A    between atoms: C_4  and  C_5
REMARK    5  A    between atoms: C_10  and  C_11
REMARK    6  A    between atoms: C_11  and  N_12
REMARK    7  A    between atoms: N_12  and  C_13
REMARK    8  A    between atoms: C_14  and  C_16
REMARK    9  A    between atoms: C_20  and  C_21
REMARK                            x       y       z     vdW  Elec       q    Type
REMARK                         _______ _______ _______ _____ _____    ______ ____
ROOT
ATOM      1  N   UNL     1       2.067   8.088  18.982  0.00  0.00    +0.000 N 
ATOM      2  C   UNL     1       2.375   8.408  17.593  0.00  0.00    +0.000 C 
ATOM      3  C   UNL     1       1.266   8.846  19.845  0.00  0.00    +0.000 C 
ATOM      4  O   UNL     1       1.134   8.564  21.038  0.00  0.00    +0.000 OA
ENDROOT
BRANCH   3   5
ATOM      5  C   UNL     1       0.564  10.072  19.368  0.00  0.00    +0.000 A 
ATOM      6  C   UNL     1       1.092  11.316  19.739  0.00  0.00    +0.000 A 
ATOM      7  C   UNL     1       0.476  12.493  19.316  0.00  0.00    +0.000 A 
ATOM      8  C   UNL     1      -0.665  12.432  18.513  0.00  0.00    +0.000 A 
ATOM      9  C   UNL     1      -1.228  11.199  18.153  0.00  0.00    +0.000 A 
ATOM     10  C   UNL     1      -0.621  10.021  18.625  0.00  0.00    +0.000 A 
BRANCH   9  11
ATOM     11  C   UNL     1      -2.398  11.145  17.277  0.00  0.00    +0.000 A 
ATOM     12  C   UNL     1      -2.633  10.687  15.993  0.00  0.00    +0.000 A 
ATOM     13  C   UNL     1      -4.008  10.895  15.728  0.00  0.00    +0.000 A 
ATOM     14  C   UNL     1      -4.530  11.476  16.860  0.00  0.00    +0.000 A 
ATOM     15  O   UNL     1      -3.564  11.631  17.800  0.00  0.00    +0.000 OA
ENDBRANCH   9  11
ENDBRANCH   3   5
BRANCH   1  16
ATOM     16  C   UNL     1       2.625   6.840  19.485  0.00  0.00    +0.000 C 
BRANCH  16  22
ATOM     17  C   UNL     1       2.815   4.724  17.877  0.00  0.00    +0.000 A 
ATOM     18  C   UNL     1       3.617   4.098  16.890  0.00  0.00    +0.000 A 
ATOM     19  C   UNL     1       4.919   4.509  16.616  0.00  0.00    +0.000 A 
ATOM     20  C   UNL     1       5.464   5.558  17.331  0.00  0.00    +0.000 A 
ATOM     21  C   UNL     1       4.678   6.225  18.272  0.00  0.00    +0.000 A 
ATOM     22  C   UNL     1       3.330   5.861  18.546  0.00  0.00    +0.000 A 
BRANCH  17  23
ATOM     23  C   UNL     1       1.434   4.133  18.075  0.00  0.00    +0.000 C 
BRANCH  23  25
ATOM     24  C   UNL     1       0.995   3.728  20.510  0.00  0.00    +0.000 C 
ATOM     25  N   UNL     1       1.285   3.214  19.193  0.00  0.00    +0.000 NA
ATOM     26  C   UNL     1       1.836   1.887  19.105  0.00  0.00    +0.000 C 
ENDBRANCH  23  25
ENDBRANCH  17  23
ENDBRANCH  16  22
ENDBRANCH   1  16
TORSDOF 6
ENDMDL
MODEL 9
REMARK VINA RESULT:      -7.2      2.454      8.161
REMARK  Name = 
REMARK  9 active torsions:
REMARK  status: ('A' for Active; 'I' for Inactive)
REMARK    1  A    between atoms: C_1  and  N_2
REMARK    2  A    between atoms: N_2  and  C_3
REMARK    3  A    between atoms: N_2  and  C_4
REMARK    4  A    between atoms: C_4  and  C_5
REMARK    5  A    between atoms: C_10  and  C_11
REMARK    6  A    between atoms: C_11  and  N_12
REMARK    7  A    between atoms: N_12  and  C_13
REMARK    8  A    between atoms: C_14  and  C_16
REMARK    9  A    between atoms: C_20  and  C_21
REMARK                            x       y       z     vdW  Elec       q    Type
REMARK                         _______ _______ _______ _____ _____    ______ ____
ROOT
ATOM      1  N   UNL     1       1.276   9.557  19.319  0.00  0.00    +0.000 N 
ATOM      2  C   UNL     1       1.080   8.827  20.566  0.00  0.00    +0.000 C 
ATOM      3  C   UNL     1       2.007   9.113  18.209  0.00  0.00    +0.000 C 
ATOM      4  O   UNL     1       2.214   9.829  17.229  0.00  0.00    +0.000 OA
ENDROOT
BRANCH   3   5
ATOM      5  C   UNL     1       2.617   7.753  18.182  0.00  0.00    +0.000 A 
ATOM      6  C   UNL     1       3.766   7.565  17.402  0.00  0.00    +0.000 A 
ATOM      7  C   UNL     1       4.378   6.313  17.346  0.00  0.00    +0.000 A 
ATOM      8  C   UNL     1       3.849   5.246  18.076  0.00  0.00    +0.000 A 
ATOM      9  C   UNL     1       2.685   5.404  18.841  0.00  0.00    +0.000 A 
ATOM     10  C   UNL     1       2.054   6.660  18.852  0.00  0.00    +0.000 A 
BRANCH   9  11
ATOM     11  C   UNL     1       2.164   4.292  19.637  0.00  0.00    +0.000 A 
ATOM     12  C   UNL     1       1.667   4.163  20.920  0.00  0.00    +0.000 A 
ATOM     13  C   UNL     1       1.292   2.806  21.081  0.00  0.00    +0.000 A 
ATOM     14  C   UNL     1       1.592   2.186  19.891  0.00  0.00    +0.000 A 
ATOM     15  O   UNL     1       2.119   3.076  19.014  0.00  0.00    +0.000 OA
ENDBRANCH   9  11
ENDBRANCH   3   5
BRANCH   1  16
ATOM     16  C   UNL     1       0.610  10.849  19.226  0.00  0.00    +0.000 C 
BRANCH  16  22
ATOM     17  C   UNL     1      -1.857  11.806  19.535  0.00  0.00    +0.000 A 
ATOM     18  C   UNL     1      -3.157  11.838  18.970  0.00  0.00    +0.000 A 
ATOM     19  C   UNL     1      -3.543  10.992  17.934  0.00  0.00    +0.000 A 
ATOM     20  C   UNL     1      -2.636  10.076  17.435  0.00  0.00    +0.000 A 
ATOM     21  C   UNL     1      -1.334  10.058  17.937  0.00  0.00    +0.000 A 
ATOM     22  C   UNL     1      -0.894  10.939  18.965  0.00  0.00    +0.000 A 
BRANCH  17  23
ATOM     23  C   UNL     1      -1.613  12.770  20.678  0.00  0.00    +0.000 C 
BRANCH  23  25
ATOM     24  C   UNL     1      -1.087  11.227  22.584  0.00  0.00    +0.000 C 
ATOM     25  N   UNL     1      -1.907  12.268  22.012  0.00  0.00    +0.000 NA
ATOM     26  C   UNL     1      -3.215  12.469  22.578  0.00  0.00    +0.000 C 
ENDBRANCH  23  25
ENDBRANCH  17  23
ENDBRANCH  16  22
ENDBRANCH   1  16
TORSDOF 6
ENDMDL
