MODEL 1
REMARK VINA RESULT:      -8.9      0.000      0.000
REMARK  Name = 
REMARK  12 active torsions:
REMARK  status: ('A' for Active; 'I' for Inactive)
REMARK    1  A    between atoms: N_1  and  C_2
REMARK    2  A    between atoms: C_2  and  C_3
REMARK    3  A    between atoms: C_3  and  C_4
REMARK    4  A    between atoms: C_4  and  C_5
REMARK    5  A    between atoms: C_5  and  C_6
REMARK    6  A    between atoms: C_6  and  N_7
REMARK    7  A    between atoms: C_6  and  C_28
REMARK    8  A    between atoms: C_8  and  C_10
REMARK    9  A    between atoms: C_15  and  C_17
REMARK   10  A    between atoms: C_17  and  C_18
REMARK   11  A    between atoms: N_30  and  C_31
REMARK   12  A    between atoms: C_31  and  C_32
REMARK                            x       y       z     vdW  Elec       q    Type
REMARK                         _______ _______ _______ _____ _____    ______ ____
ROOT
ATOM      1  N   UNL     1       4.885   4.876  17.496  0.00  0.00    +0.000 N 
ATOM      2  C   UNL     1       5.087   4.311  18.742  0.00  0.00    +0.000 C 
ATOM      3  O   UNL     1       6.021   4.644  19.465  0.00  0.00    +0.000 OA
ATOM      4  H   UNL     1       4.059   4.644  16.952  0.00  0.00    +0.000 HD
ENDROOT
BRANCH   2   5
ATOM      5  C   UNL     1       3.979   3.333  19.175  0.00  0.00    +0.000 C 
ATOM      6  C   UNL     1       3.971   2.201  18.131  0.00  0.00    +0.000 C 
ATOM      7  C   UNL     1       2.656   1.478  18.363  0.00  0.00    +0.000 C 
ATOM      8  C   UNL     1       1.726   2.547  18.912  0.00  0.00    +0.000 C 
ATOM      9  N   UNL     1       2.557   3.708  19.205  0.00  0.00    +0.000 N 
ATOM     10  C   UNL     1       1.957   4.724  19.932  0.00  0.00    +0.000 C 
ATOM     11  O   UNL     1       0.777   4.640  20.286  0.00  0.00    +0.000 OA
BRANCH  10  12
ATOM     12  C   UNL     1       2.737   5.985  20.237  0.00  0.00    +0.000 C 
BRANCH  12  13
ATOM     13  C   UNL     1       2.314   7.255  19.526  0.00  0.00    +0.000 A 
ATOM     14  C   UNL     1       2.755   7.538  18.224  0.00  0.00    +0.000 A 
ATOM     15  C   UNL     1       2.395   8.723  17.590  0.00  0.00    +0.000 A 
ATOM     16  C   UNL     1       1.590   9.648  18.245  0.00  0.00    +0.000 A 
ATOM     17  C   UNL     1       1.137   9.406  19.550  0.00  0.00    +0.000 A 
ATOM     18  C   UNL     1       0.349  10.367  20.208  0.00  0.00    +0.000 A 
ATOM     19  C   UNL     1      -0.087  10.166  21.516  0.00  0.00    +0.000 A 
ATOM     20  C   UNL     1       0.247   8.995  22.179  0.00  0.00    +0.000 A 
ATOM     21  C   UNL     1       1.020   8.025  21.533  0.00  0.00    +0.000 A 
ATOM     22  C   UNL     1       1.490   8.204  20.210  0.00  0.00    +0.000 A 
ENDBRANCH  12  13
ENDBRANCH  10  12
ENDBRANCH   2   5
BRANCH   1  23
ATOM     23  C   UNL     1       5.800   5.848  16.899  0.00  0.00    +0.000 C 
BRANCH  23  24
ATOM     24  C   UNL     1       6.655   5.041  15.902  0.00  0.00    +0.000 C 
ATOM     25  O   UNL     1       7.715   4.517  16.239  0.00  0.00    +0.000 OA
ATOM     26  N   UNL     1       6.118   4.912  14.639  0.00  0.00    +0.000 N 
ATOM     27  H   UNL     1       5.365   5.531  14.362  0.00  0.00    +0.000 HD
BRANCH  26  28
ATOM     28  C   UNL     1       6.869   4.260  13.570  0.00  0.00    +0.000 C 
BRANCH  28  29
ATOM     29  C   UNL     1       6.009   3.436  12.610  0.00  0.00    +0.000 C 
ATOM     30  N   UNL     1       6.638   2.420  11.945  0.00  0.00    +0.000 N 
ATOM     31  O   UNL     1       4.821   3.665  12.412  0.00  0.00    +0.000 OA
ATOM     32  H   UNL     1       7.640   2.447  11.822  0.00  0.00    +0.000 HD
ATOM     33  H   UNL     1       6.089   1.960  11.227  0.00  0.00    +0.000 HD
ENDBRANCH  28  29
ENDBRANCH  26  28
ENDBRANCH  23  24
BRANCH  23  34
ATOM     34  C   UNL     1       6.678   6.528  17.965  0.00  0.00    +0.000 C 
BRANCH  34  35
ATOM     35  C   UNL     1       7.203   7.894  17.503  0.00  0.00    +0.000 C 
BRANCH  35  36
ATOM     36  C   UNL     1       8.427   8.359  18.302  0.00  0.00    +0.000 C 
BRANCH  36  37
ATOM     37  C   UNL     1       8.643   9.875  18.224  0.00  0.00    +0.000 C 
BRANCH  37  38
ATOM     38  N   UNL     1       9.242  10.402  19.446  0.00  0.00    +0.000 NA
ATOM     39  H   UNL     1      10.069   9.853  19.681  0.00  0.00    +0.000 HD
ATOM     40  H   UNL     1       8.593  10.280  20.223  0.00  0.00    +0.000 HD
ENDBRANCH  37  38
ENDBRANCH  36  37
ENDBRANCH  35  36
ENDBRANCH  34  35
ENDBRANCH  23  34
ENDBRANCH   1  23
TORSDOF 12
ENDMDL
MODEL 2
REMARK VINA RESULT:      -8.3      1.335      1.450
REMARK  Name = 
REMARK  12 active torsions:
REMARK  status: ('A' for Active; 'I' for Inactive)
REMARK    1  A    between atoms: N_1  and  C_2
REMARK    2  A    between atoms: C_2  and  C_3
REMARK    3  A    between atoms: C_3  and  C_4
REMARK    4  A    between atoms: C_4  and  C_5
REMARK    5  A    between atoms: C_5  and  C_6
REMARK    6  A    between atoms: C_6  and  N_7
REMARK    7  A    between atoms: C_6  and  C_28
REMARK    8  A    between atoms: C_8  and  C_10
REMARK    9  A    between atoms: C_15  and  C_17
REMARK   10  A    between atoms: C_17  and  C_18
REMARK   11  A    between atoms: N_30  and  C_31
REMARK   12  A    between atoms: C_31  and  C_32
REMARK                            x       y       z     vdW  Elec       q    Type
REMARK                         _______ _______ _______ _____ _____    ______ ____
ROOT
ATOM      1  N   UNL     1       4.199   4.959  17.153  0.00  0.00    +0.000 N 
ATOM      2  C   UNL     1       4.426   4.518  18.444  0.00  0.00    +0.000 C 
ATOM      3  O   UNL     1       5.344   4.957  19.130  0.00  0.00    +0.000 OA
ATOM      4  H   UNL     1       3.384   4.641  16.635  0.00  0.00    +0.000 HD
ENDROOT
BRANCH   2   5
ATOM      5  C   UNL     1       3.366   3.532  18.967  0.00  0.00    +0.000 C 
ATOM      6  C   UNL     1       3.173   2.479  17.860  0.00  0.00    +0.000 C 
ATOM      7  C   UNL     1       1.885   1.765  18.234  0.00  0.00    +0.000 C 
ATOM      8  C   UNL     1       1.076   2.809  18.985  0.00  0.00    +0.000 C 
ATOM      9  N   UNL     1       1.974   3.931  19.231  0.00  0.00    +0.000 N 
ATOM     10  C   UNL     1       1.516   4.903  20.106  0.00  0.00    +0.000 C 
ATOM     11  O   UNL     1       0.398   4.815  20.622  0.00  0.00    +0.000 OA
BRANCH  10  12
ATOM     12  C   UNL     1       2.368   6.124  20.378  0.00  0.00    +0.000 C 
BRANCH  12  13
ATOM     13  C   UNL     1       1.978   7.414  19.684  0.00  0.00    +0.000 A 
ATOM     14  C   UNL     1       2.308   7.642  18.338  0.00  0.00    +0.000 A 
ATOM     15  C   UNL     1       1.982   8.842  17.717  0.00  0.00    +0.000 A 
ATOM     16  C   UNL     1       1.323   9.840  18.428  0.00  0.00    +0.000 A 
ATOM     17  C   UNL     1       0.986   9.655  19.776  0.00  0.00    +0.000 A 
ATOM     18  C   UNL     1       0.347  10.686  20.488  0.00  0.00    +0.000 A 
ATOM     19  C   UNL     1       0.030  10.539  21.836  0.00  0.00    +0.000 A 
ATOM     20  C   UNL     1       0.334   9.355  22.488  0.00  0.00    +0.000 A 
ATOM     21  C   UNL     1       0.958   8.315  21.791  0.00  0.00    +0.000 A 
ATOM     22  C   UNL     1       1.305   8.437  20.425  0.00  0.00    +0.000 A 
ENDBRANCH  12  13
ENDBRANCH  10  12
ENDBRANCH   2   5
BRANCH   1  23
ATOM     23  C   UNL     1       5.067   5.915  16.468  0.00  0.00    +0.000 C 
BRANCH  23  24
ATOM     24  C   UNL     1       6.083   5.055  15.691  0.00  0.00    +0.000 C 
ATOM     25  O   UNL     1       6.707   4.146  16.234  0.00  0.00    +0.000 OA
ATOM     26  N   UNL     1       6.194   5.349  14.348  0.00  0.00    +0.000 N 
ATOM     27  H   UNL     1       5.824   6.229  14.007  0.00  0.00    +0.000 HD
BRANCH  26  28
ATOM     28  C   UNL     1       7.191   4.681  13.516  0.00  0.00    +0.000 C 
BRANCH  28  29
ATOM     29  C   UNL     1       6.603   3.711  12.489  0.00  0.00    +0.000 C 
ATOM     30  N   UNL     1       5.256   3.489  12.559  0.00  0.00    +0.000 N 
ATOM     31  O   UNL     1       7.285   3.134  11.648  0.00  0.00    +0.000 OA
ATOM     32  H   UNL     1       4.765   3.658  13.425  0.00  0.00    +0.000 HD
ATOM     33  H   UNL     1       4.900   2.757  11.952  0.00  0.00    +0.000 HD
ENDBRANCH  28  29
ENDBRANCH  26  28
ENDBRANCH  23  24
BRANCH  23  34
ATOM     34  C   UNL     1       5.775   6.852  17.463  0.00  0.00    +0.000 C 
BRANCH  34  35
ATOM     35  C   UNL     1       7.283   6.950  17.201  0.00  0.00    +0.000 C 
BRANCH  35  36
ATOM     36  C   UNL     1       8.111   6.927  18.491  0.00  0.00    +0.000 C 
BRANCH  36  37
ATOM     37  C   UNL     1       8.238   5.520  19.088  0.00  0.00    +0.000 C 
BRANCH  37  38
ATOM     38  N   UNL     1       8.047   5.524  20.534  0.00  0.00    +0.000 NA
ATOM     39  H   UNL     1       7.108   5.188  20.751  0.00  0.00    +0.000 HD
ATOM     40  H   UNL     1       8.091   6.481  20.881  0.00  0.00    +0.000 HD
ENDBRANCH  37  38
ENDBRANCH  36  37
ENDBRANCH  35  36
ENDBRANCH  34  35
ENDBRANCH  23  34
ENDBRANCH   1  23
TORSDOF 12
ENDMDL
MODEL 3
REMARK VINA RESULT:      -8.2      1.493      4.279
REMARK  Name = 
REMARK  12 active torsions:
REMARK  status: ('A' for Active; 'I' for Inactive)
REMARK    1  A    between atoms: N_1  and  C_2
REMARK    2  A    between atoms: C_2  and  C_3
REMARK    3  A    between atoms: C_3  and  C_4
REMARK    4  A    between atoms: C_4  and  C_5
REMARK    5  A    between atoms: C_5  and  C_6
REMARK    6  A    between atoms: C_6  and  N_7
REMARK    7  A    between atoms: C_6  and  C_28
REMARK    8  A    between atoms: C_8  and  C_10
REMARK    9  A    between atoms: C_15  and  C_17
REMARK   10  A    between atoms: C_17  and  C_18
REMARK   11  A    between atoms: N_30  and  C_31
REMARK   12  A    between atoms: C_31  and  C_32
REMARK                            x       y       z     vdW  Elec       q    Type
REMARK                         _______ _______ _______ _____ _____    ______ ____
ROOT
ATOM      1  N   UNL     1       5.952   3.922  18.277  0.00  0.00    +0.000 N 
ATOM      2  C   UNL     1       4.643   4.355  18.175  0.00  0.00    +0.000 C 
ATOM      3  O   UNL     1       4.327   5.313  17.476  0.00  0.00    +0.000 OA
ATOM      4  H   UNL     1       6.177   3.077  18.796  0.00  0.00    +0.000 HD
ENDROOT
BRANCH   2   5
ATOM      5  C   UNL     1       3.627   3.463  18.911  0.00  0.00    +0.000 C 
ATOM      6  C   UNL     1       3.343   2.271  17.978  0.00  0.00    +0.000 C 
ATOM      7  C   UNL     1       2.089   1.632  18.547  0.00  0.00    +0.000 C 
ATOM      8  C   UNL     1       1.345   2.779  19.211  0.00  0.00    +0.000 C 
ATOM      9  N   UNL     1       2.261   3.912  19.229  0.00  0.00    +0.000 N 
ATOM     10  C   UNL     1       1.878   5.000  19.996  0.00  0.00    +0.000 C 
ATOM     11  O   UNL     1       0.805   4.998  20.608  0.00  0.00    +0.000 OA
BRANCH  10  12
ATOM     12  C   UNL     1       2.752   6.235  20.030  0.00  0.00    +0.000 C 
BRANCH  12  13
ATOM     13  C   UNL     1       2.180   7.509  19.440  0.00  0.00    +0.000 A 
ATOM     14  C   UNL     1       2.384   7.838  18.090  0.00  0.00    +0.000 A 
ATOM     15  C   UNL     1       1.890   9.026  17.562  0.00  0.00    +0.000 A 
ATOM     16  C   UNL     1       1.185   9.910  18.372  0.00  0.00    +0.000 A 
ATOM     17  C   UNL     1       0.969   9.622  19.728  0.00  0.00    +0.000 A 
ATOM     18  C   UNL     1       0.280  10.541  20.539  0.00  0.00    +0.000 A 
ATOM     19  C   UNL     1       0.079  10.294  21.895  0.00  0.00    +0.000 A 
ATOM     20  C   UNL     1       0.553   9.118  22.456  0.00  0.00    +0.000 A 
ATOM     21  C   UNL     1       1.228   8.188  21.660  0.00  0.00    +0.000 A 
ATOM     22  C   UNL     1       1.460   8.415  20.282  0.00  0.00    +0.000 A 
ENDBRANCH  12  13
ENDBRANCH  10  12
ENDBRANCH   2   5
BRANCH   1  23
ATOM     23  C   UNL     1       7.075   4.605  17.637  0.00  0.00    +0.000 C 
BRANCH  23  24
ATOM     24  C   UNL     1       7.579   5.622  18.679  0.00  0.00    +0.000 C 
ATOM     25  O   UNL     1       7.572   5.369  19.882  0.00  0.00    +0.000 OA
ATOM     26  N   UNL     1       8.078   6.798  18.159  0.00  0.00    +0.000 N 
ATOM     27  H   UNL     1       7.865   7.036  17.196  0.00  0.00    +0.000 HD
BRANCH  26  28
ATOM     28  C   UNL     1       8.494   7.887  19.036  0.00  0.00    +0.000 C 
BRANCH  28  29
ATOM     29  C   UNL     1       8.460   9.270  18.381  0.00  0.00    +0.000 C 
ATOM     30  N   UNL     1       9.206  10.247  18.980  0.00  0.00    +0.000 N 
ATOM     31  O   UNL     1       7.793   9.521  17.384  0.00  0.00    +0.000 OA
ATOM     32  H   UNL     1       9.455  10.161  19.954  0.00  0.00    +0.000 HD
ATOM     33  H   UNL     1       9.082  11.183  18.607  0.00  0.00    +0.000 HD
ENDBRANCH  28  29
ENDBRANCH  26  28
ENDBRANCH  23  24
BRANCH  23  34
ATOM     34  C   UNL     1       6.644   5.306  16.336  0.00  0.00    +0.000 C 
BRANCH  34  35
ATOM     35  C   UNL     1       7.136   4.567  15.085  0.00  0.00    +0.000 C 
BRANCH  35  36
ATOM     36  C   UNL     1       5.999   3.882  14.317  0.00  0.00    +0.000 C 
BRANCH  36  37
ATOM     37  C   UNL     1       6.336   3.655  12.838  0.00  0.00    +0.000 C 
BRANCH  37  38
ATOM     38  N   UNL     1       5.161   3.262  12.067  0.00  0.00    +0.000 NA
ATOM     39  H   UNL     1       5.454   2.696  11.271  0.00  0.00    +0.000 HD
ATOM     40  H   UNL     1       4.718   4.092  11.674  0.00  0.00    +0.000 HD
ENDBRANCH  37  38
ENDBRANCH  36  37
ENDBRANCH  35  36
ENDBRANCH  34  35
ENDBRANCH  23  34
ENDBRANCH   1  23
TORSDOF 12
ENDMDL
MODEL 4
REMARK VINA RESULT:      -7.9      1.262      1.465
REMARK  Name = 
REMARK  12 active torsions:
REMARK  status: ('A' for Active; 'I' for Inactive)
REMARK    1  A    between atoms: N_1  and  C_2
REMARK    2  A    between atoms: C_2  and  C_3
REMARK    3  A    between atoms: C_3  and  C_4
REMARK    4  A    between atoms: C_4  and  C_5
REMARK    5  A    between atoms: C_5  and  C_6
REMARK    6  A    between atoms: C_6  and  N_7
REMARK    7  A    between atoms: C_6  and  C_28
REMARK    8  A    between atoms: C_8  and  C_10
REMARK    9  A    between atoms: C_15  and  C_17
REMARK   10  A    between atoms: C_17  and  C_18
REMARK   11  A    between atoms: N_30  and  C_31
REMARK   12  A    between atoms: C_31  and  C_32
REMARK                            x       y       z     vdW  Elec       q    Type
REMARK                         _______ _______ _______ _____ _____    ______ ____
ROOT
ATOM      1  N   UNL     1       5.882   5.677  18.231  0.00  0.00    +0.000 N 
ATOM      2  C   UNL     1       4.559   5.364  17.976  0.00  0.00    +0.000 C 
ATOM      3  O   UNL     1       4.001   5.692  16.933  0.00  0.00    +0.000 OA
ATOM      4  H   UNL     1       6.344   5.325  19.064  0.00  0.00    +0.000 HD
ENDROOT
BRANCH   2   5
ATOM      5  C   UNL     1       3.904   4.480  19.053  0.00  0.00    +0.000 C 
ATOM      6  C   UNL     1       3.754   3.080  18.429  0.00  0.00    +0.000 C 
ATOM      7  C   UNL     1       2.786   2.355  19.347  0.00  0.00    +0.000 C 
ATOM      8  C   UNL     1       1.917   3.457  19.929  0.00  0.00    +0.000 C 
ATOM      9  N   UNL     1       2.541   4.719  19.555  0.00  0.00    +0.000 N 
ATOM     10  C   UNL     1       2.047   5.856  20.174  0.00  0.00    +0.000 C 
ATOM     11  O   UNL     1       1.116   5.785  20.981  0.00  0.00    +0.000 OA
BRANCH  10  12
ATOM     12  C   UNL     1       2.610   7.212  19.805  0.00  0.00    +0.000 C 
BRANCH  12  13
ATOM     13  C   UNL     1       1.620   8.306  19.455  0.00  0.00    +0.000 A 
ATOM     14  C   UNL     1       1.390   8.675  18.120  0.00  0.00    +0.000 A 
ATOM     15  C   UNL     1       0.510   9.705  17.806  0.00  0.00    +0.000 A 
ATOM     16  C   UNL     1      -0.157  10.386  18.818  0.00  0.00    +0.000 A 
ATOM     17  C   UNL     1       0.053  10.053  20.165  0.00  0.00    +0.000 A 
ATOM     18  C   UNL     1      -0.606  10.773  21.176  0.00  0.00    +0.000 A 
ATOM     19  C   UNL     1      -0.391  10.484  22.522  0.00  0.00    +0.000 A 
ATOM     20  C   UNL     1       0.476   9.461  22.874  0.00  0.00    +0.000 A 
ATOM     21  C   UNL     1       1.129   8.727  21.879  0.00  0.00    +0.000 A 
ATOM     22  C   UNL     1       0.943   9.005  20.504  0.00  0.00    +0.000 A 
ENDBRANCH  12  13
ENDBRANCH  10  12
ENDBRANCH   2   5
BRANCH   1  23
ATOM     23  C   UNL     1       6.702   6.486  17.330  0.00  0.00    +0.000 C 
BRANCH  23  24
ATOM     24  C   UNL     1       7.261   5.494  16.291  0.00  0.00    +0.000 C 
ATOM     25  O   UNL     1       8.001   4.569  16.616  0.00  0.00    +0.000 OA
ATOM     26  N   UNL     1       6.827   5.694  14.997  0.00  0.00    +0.000 N 
ATOM     27  H   UNL     1       6.399   6.581  14.756  0.00  0.00    +0.000 HD
BRANCH  26  28
ATOM     28  C   UNL     1       7.356   4.891  13.898  0.00  0.00    +0.000 C 
BRANCH  28  29
ATOM     29  C   UNL     1       6.318   3.998  13.217  0.00  0.00    +0.000 C 
ATOM     30  N   UNL     1       5.111   3.873  13.847  0.00  0.00    +0.000 N 
ATOM     31  O   UNL     1       6.538   3.396  12.171  0.00  0.00    +0.000 OA
ATOM     32  H   UNL     1       5.043   4.054  14.837  0.00  0.00    +0.000 HD
ATOM     33  H   UNL     1       4.477   3.188  13.449  0.00  0.00    +0.000 HD
ENDBRANCH  28  29
ENDBRANCH  26  28
ENDBRANCH  23  24
BRANCH  23  34
ATOM     34  C   UNL     1       7.837   7.201  18.085  0.00  0.00    +0.000 C 
BRANCH  34  35
ATOM     35  C   UNL     1       7.756   8.727  17.951  0.00  0.00    +0.000 C 
BRANCH  35  36
ATOM     36  C   UNL     1       9.096   9.418  18.227  0.00  0.00    +0.000 C 
BRANCH  36  37
ATOM     37  C   UNL     1       9.110  10.173  19.562  0.00  0.00    +0.000 C 
BRANCH  37  38
ATOM     38  N   UNL     1       9.316  11.605  19.374  0.00  0.00    +0.000 NA
ATOM     39  H   UNL     1       9.018  11.869  18.435  0.00  0.00    +0.000 HD
ATOM     40  H   UNL     1      10.313  11.815  19.422  0.00  0.00    +0.000 HD
ENDBRANCH  37  38
ENDBRANCH  36  37
ENDBRANCH  35  36
ENDBRANCH  34  35
ENDBRANCH  23  34
ENDBRANCH   1  23
TORSDOF 12
ENDMDL
MODEL 5
REMARK VINA RESULT:      -7.8      1.453      1.484
REMARK  Name = 
REMARK  12 active torsions:
REMARK  status: ('A' for Active; 'I' for Inactive)
REMARK    1  A    between atoms: N_1  and  C_2
REMARK    2  A    between atoms: C_2  and  C_3
REMARK    3  A    between atoms: C_3  and  C_4
REMARK    4  A    between atoms: C_4  and  C_5
REMARK    5  A    between atoms: C_5  and  C_6
REMARK    6  A    between atoms: C_6  and  N_7
REMARK    7  A    between atoms: C_6  and  C_28
REMARK    8  A    between atoms: C_8  and  C_10
REMARK    9  A    between atoms: C_15  and  C_17
REMARK   10  A    between atoms: C_17  and  C_18
REMARK   11  A    between atoms: N_30  and  C_31
REMARK   12  A    between atoms: C_31  and  C_32
REMARK                            x       y       z     vdW  Elec       q    Type
REMARK                         _______ _______ _______ _____ _____    ______ ____
ROOT
ATOM      1  N   UNL     1       5.227   5.219  18.193  0.00  0.00    +0.000 N 
ATOM      2  C   UNL     1       3.973   4.879  17.721  0.00  0.00    +0.000 C 
ATOM      3  O   UNL     1       3.555   5.276  16.637  0.00  0.00    +0.000 OA
ATOM      4  H   UNL     1       5.582   4.811  19.054  0.00  0.00    +0.000 HD
ENDROOT
BRANCH   2   5
ATOM      5  C   UNL     1       3.216   3.877  18.612  0.00  0.00    +0.000 C 
ATOM      6  C   UNL     1       2.707   2.766  17.675  0.00  0.00    +0.000 C 
ATOM      7  C   UNL     1       1.670   2.021  18.497  0.00  0.00    +0.000 C 
ATOM      8  C   UNL     1       1.119   3.066  19.452  0.00  0.00    +0.000 C 
ATOM      9  N   UNL     1       1.984   4.232  19.334  0.00  0.00    +0.000 N 
ATOM     10  C   UNL     1       1.808   5.226  20.285  0.00  0.00    +0.000 C 
ATOM     11  O   UNL     1       0.947   5.118  21.162  0.00  0.00    +0.000 OA
BRANCH  10  12
ATOM     12  C   UNL     1       2.635   6.490  20.204  0.00  0.00    +0.000 C 
BRANCH  12  13
ATOM     13  C   UNL     1       1.982   7.712  19.586  0.00  0.00    +0.000 A 
ATOM     14  C   UNL     1       2.105   7.983  18.214  0.00  0.00    +0.000 A 
ATOM     15  C   UNL     1       1.537   9.124  17.659  0.00  0.00    +0.000 A 
ATOM     16  C   UNL     1       0.836  10.017  18.463  0.00  0.00    +0.000 A 
ATOM     17  C   UNL     1       0.700   9.786  19.839  0.00  0.00    +0.000 A 
ATOM     18  C   UNL     1       0.015  10.715  20.642  0.00  0.00    +0.000 A 
ATOM     19  C   UNL     1      -0.108  10.526  22.016  0.00  0.00    +0.000 A 
ATOM     20  C   UNL     1       0.441   9.397  22.605  0.00  0.00    +0.000 A 
ATOM     21  C   UNL     1       1.114   8.458  21.819  0.00  0.00    +0.000 A 
ATOM     22  C   UNL     1       1.268   8.627  20.422  0.00  0.00    +0.000 A 
ENDBRANCH  12  13
ENDBRANCH  10  12
ENDBRANCH   2   5
BRANCH   1  23
ATOM     23  C   UNL     1       6.126   6.136  17.493  0.00  0.00    +0.000 C 
BRANCH  23  24
ATOM     24  C   UNL     1       5.985   5.782  16.000  0.00  0.00    +0.000 C 
ATOM     25  O   UNL     1       5.514   6.578  15.191  0.00  0.00    +0.000 OA
ATOM     26  N   UNL     1       6.470   4.541  15.643  0.00  0.00    +0.000 N 
ATOM     27  H   UNL     1       6.647   3.857  16.370  0.00  0.00    +0.000 HD
BRANCH  26  28
ATOM     28  C   UNL     1       6.309   4.038  14.282  0.00  0.00    +0.000 C 
BRANCH  28  29
ATOM     29  C   UNL     1       7.287   4.639  13.271  0.00  0.00    +0.000 C 
ATOM     30  N   UNL     1       8.149   5.589  13.744  0.00  0.00    +0.000 N 
ATOM     31  O   UNL     1       7.305   4.318  12.087  0.00  0.00    +0.000 OA
ATOM     32  H   UNL     1       7.917   6.102  14.581  0.00  0.00    +0.000 HD
ATOM     33  H   UNL     1       8.709   6.062  13.042  0.00  0.00    +0.000 HD
ENDBRANCH  28  29
ENDBRANCH  26  28
ENDBRANCH  23  24
BRANCH  23  34
ATOM     34  C   UNL     1       7.581   5.976  17.970  0.00  0.00    +0.000 C 
BRANCH  34  35
ATOM     35  C   UNL     1       8.155   7.279  18.541  0.00  0.00    +0.000 C 
BRANCH  35  36
ATOM     36  C   UNL     1       8.026   8.459  17.570  0.00  0.00    +0.000 C 
BRANCH  36  37
ATOM     37  C   UNL     1       8.334   9.807  18.233  0.00  0.00    +0.000 C 
BRANCH  37  38
ATOM     38  N   UNL     1       9.240   9.661  19.367  0.00  0.00    +0.000 NA
ATOM     39  H   UNL     1      10.178   9.953  19.090  0.00  0.00    +0.000 HD
ATOM     40  H   UNL     1       9.315   8.676  19.619  0.00  0.00    +0.000 HD
ENDBRANCH  37  38
ENDBRANCH  36  37
ENDBRANCH  35  36
ENDBRANCH  34  35
ENDBRANCH  23  34
ENDBRANCH   1  23
TORSDOF 12
ENDMDL
MODEL 6
REMARK VINA RESULT:      -7.7      1.259      2.124
REMARK  Name = 
REMARK  12 active torsions:
REMARK  status: ('A' for Active; 'I' for Inactive)
REMARK    1  A    between atoms: N_1  and  C_2
REMARK    2  A    between atoms: C_2  and  C_3
REMARK    3  A    between atoms: C_3  and  C_4
REMARK    4  A    between atoms: C_4  and  C_5
REMARK    5  A    between atoms: C_5  and  C_6
REMARK    6  A    between atoms: C_6  and  N_7
REMARK    7  A    between atoms: C_6  and  C_28
REMARK    8  A    between atoms: C_8  and  C_10
REMARK    9  A    between atoms: C_15  and  C_17
REMARK   10  A    between atoms: C_17  and  C_18
REMARK   11  A    between atoms: N_30  and  C_31
REMARK   12  A    between atoms: C_31  and  C_32
REMARK                            x       y       z     vdW  Elec       q    Type
REMARK                         _______ _______ _______ _____ _____    ______ ____
ROOT
ATOM      1  N   UNL     1       5.814   5.579  18.320  0.00  0.00    +0.000 N 
ATOM      2  C   UNL     1       4.510   5.240  18.010  0.00  0.00    +0.000 C 
ATOM      3  O   UNL     1       3.981   5.582  16.957  0.00  0.00    +0.000 OA
ATOM      4  H   UNL     1       6.256   5.215  19.160  0.00  0.00    +0.000 HD
ENDROOT
BRANCH   2   5
ATOM      5  C   UNL     1       3.842   4.309  19.038  0.00  0.00    +0.000 C 
ATOM      6  C   UNL     1       3.839   2.903  18.407  0.00  0.00    +0.000 C 
ATOM      7  C   UNL     1       2.859   2.109  19.254  0.00  0.00    +0.000 C 
ATOM      8  C   UNL     1       1.873   3.144  19.767  0.00  0.00    +0.000 C 
ATOM      9  N   UNL     1       2.432   4.449  19.436  0.00  0.00    +0.000 N 
ATOM     10  C   UNL     1       1.814   5.546  20.014  0.00  0.00    +0.000 C 
ATOM     11  O   UNL     1       0.833   5.406  20.750  0.00  0.00    +0.000 OA
BRANCH  10  12
ATOM     12  C   UNL     1       2.305   6.939  19.685  0.00  0.00    +0.000 C 
BRANCH  12  13
ATOM     13  C   UNL     1       1.661   8.097  20.422  0.00  0.00    +0.000 A 
ATOM     14  C   UNL     1       1.784   8.228  21.814  0.00  0.00    +0.000 A 
ATOM     15  C   UNL     1       1.160   9.271  22.491  0.00  0.00    +0.000 A 
ATOM     16  C   UNL     1       0.399  10.201  21.791  0.00  0.00    +0.000 A 
ATOM     17  C   UNL     1       0.244  10.099  20.401  0.00  0.00    +0.000 A 
ATOM     18  C   UNL     1      -0.554  11.030  19.714  0.00  0.00    +0.000 A 
ATOM     19  C   UNL     1      -0.750  10.933  18.338  0.00  0.00    +0.000 A 
ATOM     20  C   UNL     1      -0.140   9.910  17.628  0.00  0.00    +0.000 A 
ATOM     21  C   UNL     1       0.667   8.983  18.296  0.00  0.00    +0.000 A 
ATOM     22  C   UNL     1       0.876   9.046  19.694  0.00  0.00    +0.000 A 
ENDBRANCH  12  13
ENDBRANCH  10  12
ENDBRANCH   2   5
BRANCH   1  23
ATOM     23  C   UNL     1       6.644   6.434  17.472  0.00  0.00    +0.000 C 
BRANCH  23  24
ATOM     24  C   UNL     1       7.238   5.494  16.406  0.00  0.00    +0.000 C 
ATOM     25  O   UNL     1       8.026   4.598  16.703  0.00  0.00    +0.000 OA
ATOM     26  N   UNL     1       6.780   5.700  15.121  0.00  0.00    +0.000 N 
ATOM     27  H   UNL     1       6.306   6.570  14.905  0.00  0.00    +0.000 HD
BRANCH  26  28
ATOM     28  C   UNL     1       7.334   4.948  14.000  0.00  0.00    +0.000 C 
BRANCH  28  29
ATOM     29  C   UNL     1       6.324   4.045  13.288  0.00  0.00    +0.000 C 
ATOM     30  N   UNL     1       5.108   3.892  13.895  0.00  0.00    +0.000 N 
ATOM     31  O   UNL     1       6.573   3.461  12.239  0.00  0.00    +0.000 OA
ATOM     32  H   UNL     1       5.019   4.058  14.886  0.00  0.00    +0.000 HD
ATOM     33  H   UNL     1       4.494   3.201  13.477  0.00  0.00    +0.000 HD
ENDBRANCH  28  29
ENDBRANCH  26  28
ENDBRANCH  23  24
BRANCH  23  34
ATOM     34  C   UNL     1       7.753   7.131  18.282  0.00  0.00    +0.000 C 
BRANCH  34  35
ATOM     35  C   UNL     1       8.112   8.509  17.713  0.00  0.00    +0.000 C 
BRANCH  35  36
ATOM     36  C   UNL     1       8.792   9.417  18.746  0.00  0.00    +0.000 C 
BRANCH  36  37
ATOM     37  C   UNL     1       9.111  10.810  18.190  0.00  0.00    +0.000 C 
BRANCH  37  38
ATOM     38  N   UNL     1      10.408  11.295  18.652  0.00  0.00    +0.000 NA
ATOM     39  H   UNL     1      10.456  12.306  18.521  0.00  0.00    +0.000 HD
ATOM     40  H   UNL     1      11.146  10.900  18.071  0.00  0.00    +0.000 HD
ENDBRANCH  37  38
ENDBRANCH  36  37
ENDBRANCH  35  36
ENDBRANCH  34  35
ENDBRANCH  23  34
ENDBRANCH   1  23
TORSDOF 12
ENDMDL
MODEL 7
REMARK VINA RESULT:      -7.6      1.184      1.389
REMARK  Name = 
REMARK  12 active torsions:
REMARK  status: ('A' for Active; 'I' for Inactive)
REMARK    1  A    between atoms: N_1  and  C_2
REMARK    2  A    between atoms: C_2  and  C_3
REMARK    3  A    between atoms: C_3  and  C_4
REMARK    4  A    between atoms: C_4  and  C_5
REMARK    5  A    between atoms: C_5  and  C_6
REMARK    6  A    between atoms: C_6  and  N_7
REMARK    7  A    between atoms: C_6  and  C_28
REMARK    8  A    between atoms: C_8  and  C_10
REMARK    9  A    between atoms: C_15  and  C_17
REMARK   10  A    between atoms: C_17  and  C_18
REMARK   11  A    between atoms: N_30  and  C_31
REMARK   12  A    between atoms: C_31  and  C_32
REMARK                            x       y       z     vdW  Elec       q    Type
REMARK                         _______ _______ _______ _____ _____    ______ ____
ROOT
ATOM      1  N   UNL     1       4.621   4.706  17.578  0.00  0.00    +0.000 N 
ATOM      2  C   UNL     1       4.837   4.120  18.812  0.00  0.00    +0.000 C 
ATOM      3  O   UNL     1       5.830   4.373  19.488  0.00  0.00    +0.000 OA
ATOM      4  H   UNL     1       3.753   4.545  17.075  0.00  0.00    +0.000 HD
ENDROOT
BRANCH   2   5
ATOM      5  C   UNL     1       3.678   3.232  19.297  0.00  0.00    +0.000 C 
ATOM      6  C   UNL     1       3.582   2.063  18.299  0.00  0.00    +0.000 C 
ATOM      7  C   UNL     1       2.228   1.435  18.577  0.00  0.00    +0.000 C 
ATOM      8  C   UNL     1       1.376   2.581  19.094  0.00  0.00    +0.000 C 
ATOM      9  N   UNL     1       2.282   3.697  19.330  0.00  0.00    +0.000 N 
ATOM     10  C   UNL     1       1.758   4.777  20.024  0.00  0.00    +0.000 C 
ATOM     11  O   UNL     1       0.581   4.781  20.395  0.00  0.00    +0.000 OA
BRANCH  10  12
ATOM     12  C   UNL     1       2.621   5.996  20.269  0.00  0.00    +0.000 C 
BRANCH  12  13
ATOM     13  C   UNL     1       2.236   7.276  19.553  0.00  0.00    +0.000 A 
ATOM     14  C   UNL     1       2.668   7.530  18.241  0.00  0.00    +0.000 A 
ATOM     15  C   UNL     1       2.344   8.722  17.602  0.00  0.00    +0.000 A 
ATOM     16  C   UNL     1       1.587   9.685  18.261  0.00  0.00    +0.000 A 
ATOM     17  C   UNL     1       1.146   9.473  19.575  0.00  0.00    +0.000 A 
ATOM     18  C   UNL     1       0.408  10.469  20.237  0.00  0.00    +0.000 A 
ATOM     19  C   UNL     1      -0.015  10.297  21.553  0.00  0.00    +0.000 A 
ATOM     20  C   UNL     1       0.284   9.120  22.221  0.00  0.00    +0.000 A 
ATOM     21  C   UNL     1       1.006   8.114  21.572  0.00  0.00    +0.000 A 
ATOM     22  C   UNL     1       1.462   8.263  20.241  0.00  0.00    +0.000 A 
ENDBRANCH  12  13
ENDBRANCH  10  12
ENDBRANCH   2   5
BRANCH   1  23
ATOM     23  C   UNL     1       5.581   5.605  16.938  0.00  0.00    +0.000 C 
BRANCH  23  24
ATOM     24  C   UNL     1       6.189   4.791  15.780  0.00  0.00    +0.000 C 
ATOM     25  O   UNL     1       6.363   3.577  15.867  0.00  0.00    +0.000 OA
ATOM     26  N   UNL     1       6.467   5.513  14.638  0.00  0.00    +0.000 N 
ATOM     27  H   UNL     1       6.503   6.525  14.696  0.00  0.00    +0.000 HD
BRANCH  26  28
ATOM     28  C   UNL     1       7.137   4.887  13.502  0.00  0.00    +0.000 C 
BRANCH  28  29
ATOM     29  C   UNL     1       8.182   5.775  12.822  0.00  0.00    +0.000 C 
ATOM     30  N   UNL     1       7.853   6.271  11.591  0.00  0.00    +0.000 N 
ATOM     31  O   UNL     1       9.272   6.027  13.323  0.00  0.00    +0.000 OA
ATOM     32  H   UNL     1       7.155   5.803  11.033  0.00  0.00    +0.000 HD
ATOM     33  H   UNL     1       8.598   6.757  11.102  0.00  0.00    +0.000 HD
ENDBRANCH  28  29
ENDBRANCH  26  28
ENDBRANCH  23  24
BRANCH  23  34
ATOM     34  C   UNL     1       6.668   6.068  17.925  0.00  0.00    +0.000 C 
BRANCH  34  35
ATOM     35  C   UNL     1       7.295   7.407  17.516  0.00  0.00    +0.000 C 
BRANCH  35  36
ATOM     36  C   UNL     1       8.388   7.870  18.487  0.00  0.00    +0.000 C 
BRANCH  36  37
ATOM     37  C   UNL     1       8.636   9.382  18.421  0.00  0.00    +0.000 C 
BRANCH  37  38
ATOM     38  N   UNL     1       7.664  10.056  17.566  0.00  0.00    +0.000 NA
ATOM     39  H   UNL     1       7.660  11.054  17.782  0.00  0.00    +0.000 HD
ATOM     40  H   UNL     1       6.727   9.718  17.783  0.00  0.00    +0.000 HD
ENDBRANCH  37  38
ENDBRANCH  36  37
ENDBRANCH  35  36
ENDBRANCH  34  35
ENDBRANCH  23  34
ENDBRANCH   1  23
TORSDOF 12
ENDMDL
MODEL 8
REMARK VINA RESULT:      -7.6      1.562      4.494
REMARK  Name = 
REMARK  12 active torsions:
REMARK  status: ('A' for Active; 'I' for Inactive)
REMARK    1  A    between atoms: N_1  and  C_2
REMARK    2  A    between atoms: C_2  and  C_3
REMARK    3  A    between atoms: C_3  and  C_4
REMARK    4  A    between atoms: C_4  and  C_5
REMARK    5  A    between atoms: C_5  and  C_6
REMARK    6  A    between atoms: C_6  and  N_7
REMARK    7  A    between atoms: C_6  and  C_28
REMARK    8  A    between atoms: C_8  and  C_10
REMARK    9  A    between atoms: C_15  and  C_17
REMARK   10  A    between atoms: C_17  and  C_18
REMARK   11  A    between atoms: N_30  and  C_31
REMARK   12  A    between atoms: C_31  and  C_32
REMARK                            x       y       z     vdW  Elec       q    Type
REMARK                         _______ _______ _______ _____ _____    ______ ____
ROOT
ATOM      1  N   UNL     1       5.845   4.546  17.442  0.00  0.00    +0.000 N 
ATOM      2  C   UNL     1       5.489   4.369  18.766  0.00  0.00    +0.000 C 
ATOM      3  O   UNL     1       6.143   4.849  19.687  0.00  0.00    +0.000 OA
ATOM      4  H   UNL     1       5.243   4.209  16.696  0.00  0.00    +0.000 HD
ENDROOT
BRANCH   2   5
ATOM      5  C   UNL     1       4.153   3.629  18.964  0.00  0.00    +0.000 C 
ATOM      6  C   UNL     1       4.321   2.252  18.294  0.00  0.00    +0.000 C 
ATOM      7  C   UNL     1       2.906   1.713  18.173  0.00  0.00    +0.000 C 
ATOM      8  C   UNL     1       2.035   2.953  18.058  0.00  0.00    +0.000 C 
ATOM      9  N   UNL     1       2.893   4.091  18.361  0.00  0.00    +0.000 N 
ATOM     10  C   UNL     1       2.256   5.309  18.544  0.00  0.00    +0.000 C 
ATOM     11  O   UNL     1       1.031   5.406  18.432  0.00  0.00    +0.000 OA
BRANCH  10  12
ATOM     12  C   UNL     1       3.080   6.549  18.815  0.00  0.00    +0.000 C 
BRANCH  12  13
ATOM     13  C   UNL     1       2.374   7.888  18.727  0.00  0.00    +0.000 A 
ATOM     14  C   UNL     1       2.537   8.720  17.608  0.00  0.00    +0.000 A 
ATOM     15  C   UNL     1       1.917   9.964  17.549  0.00  0.00    +0.000 A 
ATOM     16  C   UNL     1       1.125  10.401  18.605  0.00  0.00    +0.000 A 
ATOM     17  C   UNL     1       0.947   9.603  19.744  0.00  0.00    +0.000 A 
ATOM     18  C   UNL     1       0.168  10.074  20.816  0.00  0.00    +0.000 A 
ATOM     19  C   UNL     1       0.000   9.314  21.971  0.00  0.00    +0.000 A 
ATOM     20  C   UNL     1       0.598   8.067  22.066  0.00  0.00    +0.000 A 
ATOM     21  C   UNL     1       1.365   7.579  21.003  0.00  0.00    +0.000 A 
ATOM     22  C   UNL     1       1.566   8.331  19.821  0.00  0.00    +0.000 A 
ENDBRANCH  12  13
ENDBRANCH  10  12
ENDBRANCH   2   5
BRANCH   1  23
ATOM     23  C   UNL     1       7.062   5.243  17.026  0.00  0.00    +0.000 C 
BRANCH  23  24
ATOM     24  C   UNL     1       6.709   6.742  17.077  0.00  0.00    +0.000 C 
ATOM     25  O   UNL     1       5.605   7.156  16.728  0.00  0.00    +0.000 OA
ATOM     26  N   UNL     1       7.695   7.560  17.585  0.00  0.00    +0.000 N 
ATOM     27  H   UNL     1       8.641   7.201  17.654  0.00  0.00    +0.000 HD
BRANCH  26  28
ATOM     28  C   UNL     1       7.532   9.010  17.596  0.00  0.00    +0.000 C 
BRANCH  28  29
ATOM     29  C   UNL     1       8.626   9.760  18.360  0.00  0.00    +0.000 C 
ATOM     30  N   UNL     1       8.899  11.033  17.941  0.00  0.00    +0.000 N 
ATOM     31  O   UNL     1       9.255   9.263  19.288  0.00  0.00    +0.000 OA
ATOM     32  H   UNL     1       8.665  11.312  17.000  0.00  0.00    +0.000 HD
ATOM     33  H   UNL     1       9.703  11.474  18.376  0.00  0.00    +0.000 HD
ENDBRANCH  28  29
ENDBRANCH  26  28
ENDBRANCH  23  24
BRANCH  23  34
ATOM     34  C   UNL     1       7.501   4.820  15.612  0.00  0.00    +0.000 C 
BRANCH  34  35
ATOM     35  C   UNL     1       6.352   4.200  14.805  0.00  0.00    +0.000 C 
BRANCH  35  36
ATOM     36  C   UNL     1       6.662   4.112  13.306  0.00  0.00    +0.000 C 
BRANCH  36  37
ATOM     37  C   UNL     1       5.595   3.334  12.527  0.00  0.00    +0.000 C 
BRANCH  37  38
ATOM     38  N   UNL     1       6.155   2.164  11.858  0.00  0.00    +0.000 NA
ATOM     39  H   UNL     1       5.751   2.084  10.924  0.00  0.00    +0.000 HD
ATOM     40  H   UNL     1       5.879   1.320  12.358  0.00  0.00    +0.000 HD
ENDBRANCH  37  38
ENDBRANCH  36  37
ENDBRANCH  35  36
ENDBRANCH  34  35
ENDBRANCH  23  34
ENDBRANCH   1  23
TORSDOF 12
ENDMDL
MODEL 9
REMARK VINA RESULT:      -7.6      5.558     10.021
REMARK  Name = 
REMARK  12 active torsions:
REMARK  status: ('A' for Active; 'I' for Inactive)
REMARK    1  A    between atoms: N_1  and  C_2
REMARK    2  A    between atoms: C_2  and  C_3
REMARK    3  A    between atoms: C_3  and  C_4
REMARK    4  A    between atoms: C_4  and  C_5
REMARK    5  A    between atoms: C_5  and  C_6
REMARK    6  A    between atoms: C_6  and  N_7
REMARK    7  A    between atoms: C_6  and  C_28
REMARK    8  A    between atoms: C_8  and  C_10
REMARK    9  A    between atoms: C_15  and  C_17
REMARK   10  A    between atoms: C_17  and  C_18
REMARK   11  A    between atoms: N_30  and  C_31
REMARK   12  A    between atoms: C_31  and  C_32
REMARK                            x       y       z     vdW  Elec       q    Type
REMARK                         _______ _______ _______ _____ _____    ______ ____
ROOT
ATOM      1  N   UNL     1      -2.097  10.299  18.547  0.00  0.00    +0.000 N 
ATOM      2  C   UNL     1      -0.758  10.152  18.859  0.00  0.00    +0.000 C 
ATOM      3  O   UNL     1       0.132  10.512  18.094  0.00  0.00    +0.000 OA
ATOM      4  H   UNL     1      -2.814  10.069  19.230  0.00  0.00    +0.000 HD
ENDROOT
BRANCH   2   5
ATOM      5  C   UNL     1      -0.499   9.615  20.278  0.00  0.00    +0.000 C 
ATOM      6  C   UNL     1      -0.707  10.805  21.234  0.00  0.00    +0.000 C 
ATOM      7  C   UNL     1      -0.088  10.353  22.545  0.00  0.00    +0.000 C 
ATOM      8  C   UNL     1       1.006   9.382  22.134  0.00  0.00    +0.000 C 
ATOM      9  N   UNL     1       0.819   9.124  20.713  0.00  0.00    +0.000 N 
ATOM     10  C   UNL     1       1.563   8.086  20.174  0.00  0.00    +0.000 C 
ATOM     11  O   UNL     1       2.350   7.441  20.872  0.00  0.00    +0.000 OA
BRANCH  10  12
ATOM     12  C   UNL     1       1.461   7.785  18.694  0.00  0.00    +0.000 C 
BRANCH  12  13
ATOM     13  C   UNL     1       2.592   6.995  18.065  0.00  0.00    +0.000 A 
ATOM     14  C   UNL     1       3.698   7.644  17.493  0.00  0.00    +0.000 A 
ATOM     15  C   UNL     1       4.715   6.917  16.883  0.00  0.00    +0.000 A 
ATOM     16  C   UNL     1       4.646   5.529  16.830  0.00  0.00    +0.000 A 
ATOM     17  C   UNL     1       3.553   4.845  17.381  0.00  0.00    +0.000 A 
ATOM     18  C   UNL     1       3.485   3.444  17.291  0.00  0.00    +0.000 A 
ATOM     19  C   UNL     1       2.395   2.742  17.801  0.00  0.00    +0.000 A 
ATOM     20  C   UNL     1       1.364   3.432  18.421  0.00  0.00    +0.000 A 
ATOM     21  C   UNL     1       1.423   4.825  18.530  0.00  0.00    +0.000 A 
ATOM     22  C   UNL     1       2.509   5.568  18.010  0.00  0.00    +0.000 A 
ENDBRANCH  12  13
ENDBRANCH  10  12
ENDBRANCH   2   5
BRANCH   1  23
ATOM     23  C   UNL     1      -2.569  10.814  17.262  0.00  0.00    +0.000 C 
BRANCH  23  24
ATOM     24  C   UNL     1      -3.840  11.622  17.592  0.00  0.00    +0.000 C 
ATOM     25  O   UNL     1      -4.660  11.915  16.724  0.00  0.00    +0.000 OA
ATOM     26  N   UNL     1      -4.006  11.937  18.924  0.00  0.00    +0.000 N 
ATOM     27  H   UNL     1      -3.211  11.859  19.548  0.00  0.00    +0.000 HD
BRANCH  26  28
ATOM     28  C   UNL     1      -5.112  12.784  19.359  0.00  0.00    +0.000 C 
BRANCH  28  29
ATOM     29  C   UNL     1      -6.434  12.039  19.558  0.00  0.00    +0.000 C 
ATOM     30  N   UNL     1      -7.574  12.724  19.239  0.00  0.00    +0.000 N 
ATOM     31  O   UNL     1      -6.498  10.896  19.997  0.00  0.00    +0.000 OA
ATOM     32  H   UNL     1      -7.565  13.732  19.227  0.00  0.00    +0.000 HD
ATOM     33  H   UNL     1      -8.444  12.264  19.486  0.00  0.00    +0.000 HD
ENDBRANCH  28  29
ENDBRANCH  26  28
ENDBRANCH  23  24
BRANCH  23  34
ATOM     34  C   UNL     1      -2.873   9.675  16.272  0.00  0.00    +0.000 C 
BRANCH  34  35
ATOM     35  C   UNL     1      -2.642  10.093  14.814  0.00  0.00    +0.000 C 
BRANCH  35  36
ATOM     36  C   UNL     1      -3.926  10.051  13.976  0.00  0.00    +0.000 C 
BRANCH  36  37
ATOM     37  C   UNL     1      -3.664   9.684  12.511  0.00  0.00    +0.000 C 
BRANCH  37  38
ATOM     38  N   UNL     1      -2.240   9.527  12.235  0.00  0.00    +0.000 NA
ATOM     39  H   UNL     1      -1.784  10.438  12.285  0.00  0.00    +0.000 HD
ATOM     40  H   UNL     1      -2.112   9.200  11.278  0.00  0.00    +0.000 HD
ENDBRANCH  37  38
ENDBRANCH  36  37
ENDBRANCH  35  36
ENDBRANCH  34  35
ENDBRANCH  23  34
ENDBRANCH   1  23
TORSDOF 12
ENDMDL
