MODEL 1
REMARK VINA RESULT:      -8.7      0.000      0.000
REMARK  Name = 
REMARK  9 active torsions:
REMARK  status: ('A' for Active; 'I' for Inactive)
REMARK    1  A    between atoms: C_1  and  C_2
REMARK    2  A    between atoms: C_4  and  S_5
REMARK    3  A    between atoms: S_5  and  C_6
REMARK    4  A    between atoms: C_6  and  C_7
REMARK    5  A    between atoms: N_23  and  C_24
REMARK    6  A    between atoms: C_24  and  C_25
REMARK    7  A    between atoms: C_25  and  C_26
REMARK    8  A    between atoms: C_25  and  C_27
REMARK    9  A    between atoms: C_28  and  C_29
REMARK                            x       y       z     vdW  Elec       q    Type
REMARK                         _______ _______ _______ _____ _____    ______ ____
ROOT
ATOM      1  C   UNL     1       2.287   7.260  19.085  0.00  0.00    +0.000 C 
ATOM      2  O   UNL     1       1.845   7.524  20.211  0.00  0.00    +0.000 OA
ATOM      3  N   UNL     1       2.772   5.970  18.727  0.00  0.00    +0.000 N 
ATOM      4  C   UNL     1       3.756   5.753  17.692  0.00  0.00    +0.000 A 
ATOM      5  C   UNL     1       4.759   6.713  17.466  0.00  0.00    +0.000 A 
ATOM      6  C   UNL     1       5.793   6.482  16.553  0.00  0.00    +0.000 A 
ATOM      7  C   UNL     1       5.864   5.279  15.862  0.00  0.00    +0.000 A 
ATOM      8  C   UNL     1       4.890   4.308  16.074  0.00  0.00    +0.000 A 
ATOM      9  C   UNL     1       3.848   4.539  16.983  0.00  0.00    +0.000 A 
ATOM     10  S   UNL     1       2.661   3.242  17.223  0.00  0.00    +0.000 S 
ATOM     11  C   UNL     1       2.430   3.491  18.969  0.00  0.00    +0.000 A 
ATOM     12  C   UNL     1       2.166   2.354  19.749  0.00  0.00    +0.000 A 
ATOM     13  C   UNL     1       1.981   2.464  21.121  0.00  0.00    +0.000 A 
ATOM     14  C   UNL     1       2.058   3.718  21.711  0.00  0.00    +0.000 A 
ATOM     15  C   UNL     1       2.307   4.860  20.933  0.00  0.00    +0.000 A 
ATOM     16  C   UNL     1       2.495   4.786  19.541  0.00  0.00    +0.000 A 
ENDROOT
BRANCH   1  17
ATOM     17  C   UNL     1       2.101   8.315  17.947  0.00  0.00    +0.000 C 
BRANCH  17  18
ATOM     18  S   UNL     1       1.789   9.988  18.657  0.00  0.00    +0.000 S 
BRANCH  18  22
ATOM     19  C   UNL     1      -3.049   9.862  16.750  0.00  0.00    +0.000 C 
ATOM     20  C   UNL     1      -1.909  10.250  17.614  0.00  0.00    +0.000 A 
ATOM     21  N   UNL     1      -0.636   9.751  17.437  0.00  0.00    +0.000 NA
ATOM     22  C   UNL     1       0.084  10.267  18.407  0.00  0.00    +0.000 A 
ATOM     23  N   UNL     1      -0.679  11.089  19.224  0.00  0.00    +0.000 N 
ATOM     24  C   UNL     1      -1.957  11.120  18.687  0.00  0.00    +0.000 A 
ATOM     25  C   UNL     1      -3.132  11.893  19.175  0.00  0.00    +0.000 C 
BRANCH  23  26
ATOM     26  C   UNL     1      -0.292  11.668  20.505  0.00  0.00    +0.000 C 
BRANCH  26  27
ATOM     27  C   UNL     1      -0.803  10.932  21.760  0.00  0.00    +0.000 C 
ATOM     28  C   UNL     1       0.197   9.912  22.306  0.00  0.00    +0.000 C 
ATOM     29  C   UNL     1      -1.122  11.954  22.860  0.00  0.00    +0.000 C 
ENDBRANCH  26  27
ENDBRANCH  23  26
ENDBRANCH  18  22
ENDBRANCH  17  18
ENDBRANCH   1  17
TORSDOF 5
ENDMDL
MODEL 2
REMARK VINA RESULT:      -8.7      1.540      2.339
REMARK  Name = 
REMARK  9 active torsions:
REMARK  status: ('A' for Active; 'I' for Inactive)
REMARK    1  A    between atoms: C_1  and  C_2
REMARK    2  A    between atoms: C_4  and  S_5
REMARK    3  A    between atoms: S_5  and  C_6
REMARK    4  A    between atoms: C_6  and  C_7
REMARK    5  A    between atoms: N_23  and  C_24
REMARK    6  A    between atoms: C_24  and  C_25
REMARK    7  A    between atoms: C_25  and  C_26
REMARK    8  A    between atoms: C_25  and  C_27
REMARK    9  A    between atoms: C_28  and  C_29
REMARK                            x       y       z     vdW  Elec       q    Type
REMARK                         _______ _______ _______ _____ _____    ______ ____
ROOT
ATOM      1  C   UNL     1       2.608   7.247  19.054  0.00  0.00    +0.000 C 
ATOM      2  O   UNL     1       2.143   7.534  20.165  0.00  0.00    +0.000 OA
ATOM      3  N   UNL     1       2.994   5.925  18.695  0.00  0.00    +0.000 N 
ATOM      4  C   UNL     1       3.999   5.636  17.698  0.00  0.00    +0.000 A 
ATOM      5  C   UNL     1       5.090   6.507  17.531  0.00  0.00    +0.000 A 
ATOM      6  C   UNL     1       6.139   6.198  16.658  0.00  0.00    +0.000 A 
ATOM      7  C   UNL     1       6.135   5.003  15.950  0.00  0.00    +0.000 A 
ATOM      8  C   UNL     1       5.072   4.118  16.105  0.00  0.00    +0.000 A 
ATOM      9  C   UNL     1       4.015   4.428  16.973  0.00  0.00    +0.000 A 
ATOM     10  S   UNL     1       2.711   3.237  17.142  0.00  0.00    +0.000 S 
ATOM     11  C   UNL     1       2.428   3.482  18.881  0.00  0.00    +0.000 A 
ATOM     12  C   UNL     1       2.033   2.363  19.629  0.00  0.00    +0.000 A 
ATOM     13  C   UNL     1       1.799   2.470  20.994  0.00  0.00    +0.000 A 
ATOM     14  C   UNL     1       1.959   3.704  21.608  0.00  0.00    +0.000 A 
ATOM     15  C   UNL     1       2.339   4.831  20.860  0.00  0.00    +0.000 A 
ATOM     16  C   UNL     1       2.581   4.759  19.476  0.00  0.00    +0.000 A 
ENDROOT
BRANCH   1  17
ATOM     17  C   UNL     1       2.564   8.329  17.927  0.00  0.00    +0.000 C 
BRANCH  17  18
ATOM     18  S   UNL     1       0.962   9.242  17.966  0.00  0.00    +0.000 S 
BRANCH  18  22
ATOM     19  C   UNL     1       3.091  13.935  18.675  0.00  0.00    +0.000 C 
ATOM     20  C   UNL     1       2.253  12.740  18.931  0.00  0.00    +0.000 A 
ATOM     21  N   UNL     1       2.255  11.637  18.104  0.00  0.00    +0.000 NA
ATOM     22  C   UNL     1       1.361  10.815  18.607  0.00  0.00    +0.000 A 
ATOM     23  N   UNL     1       0.765  11.348  19.741  0.00  0.00    +0.000 N 
ATOM     24  C   UNL     1       1.372  12.571  19.983  0.00  0.00    +0.000 A 
ATOM     25  C   UNL     1       1.112  13.511  21.107  0.00  0.00    +0.000 C 
BRANCH  23  26
ATOM     26  C   UNL     1      -0.401  10.835  20.450  0.00  0.00    +0.000 C 
BRANCH  26  27
ATOM     27  C   UNL     1      -0.126  10.185  21.821  0.00  0.00    +0.000 C 
ATOM     28  C   UNL     1      -0.894  10.850  22.965  0.00  0.00    +0.000 C 
ATOM     29  C   UNL     1      -0.500   8.697  21.769  0.00  0.00    +0.000 C 
ENDBRANCH  26  27
ENDBRANCH  23  26
ENDBRANCH  18  22
ENDBRANCH  17  18
ENDBRANCH   1  17
TORSDOF 5
ENDMDL
MODEL 3
REMARK VINA RESULT:      -8.4      1.119      2.662
REMARK  Name = 
REMARK  9 active torsions:
REMARK  status: ('A' for Active; 'I' for Inactive)
REMARK    1  A    between atoms: C_1  and  C_2
REMARK    2  A    between atoms: C_4  and  S_5
REMARK    3  A    between atoms: S_5  and  C_6
REMARK    4  A    between atoms: C_6  and  C_7
REMARK    5  A    between atoms: N_23  and  C_24
REMARK    6  A    between atoms: C_24  and  C_25
REMARK    7  A    between atoms: C_25  and  C_26
REMARK    8  A    between atoms: C_25  and  C_27
REMARK    9  A    between atoms: C_28  and  C_29
REMARK                            x       y       z     vdW  Elec       q    Type
REMARK                         _______ _______ _______ _____ _____    ______ ____
ROOT
ATOM      1  C   UNL     1       2.530   7.317  19.094  0.00  0.00    +0.000 C 
ATOM      2  O   UNL     1       2.040   7.581  20.200  0.00  0.00    +0.000 OA
ATOM      3  N   UNL     1       2.932   6.004  18.720  0.00  0.00    +0.000 N 
ATOM      4  C   UNL     1       3.959   5.739  17.739  0.00  0.00    +0.000 A 
ATOM      5  C   UNL     1       5.049   6.619  17.610  0.00  0.00    +0.000 A 
ATOM      6  C   UNL     1       6.117   6.332  16.755  0.00  0.00    +0.000 A 
ATOM      7  C   UNL     1       6.135   5.150  16.025  0.00  0.00    +0.000 A 
ATOM      8  C   UNL     1       5.075   4.256  16.142  0.00  0.00    +0.000 A 
ATOM      9  C   UNL     1       3.999   4.544  16.993  0.00  0.00    +0.000 A 
ATOM     10  S   UNL     1       2.699   3.342  17.113  0.00  0.00    +0.000 S 
ATOM     11  C   UNL     1       2.378   3.555  18.850  0.00  0.00    +0.000 A 
ATOM     12  C   UNL     1       1.974   2.419  19.570  0.00  0.00    +0.000 A 
ATOM     13  C   UNL     1       1.711   2.500  20.931  0.00  0.00    +0.000 A 
ATOM     14  C   UNL     1       1.851   3.725  21.570  0.00  0.00    +0.000 A 
ATOM     15  C   UNL     1       2.239   4.867  20.851  0.00  0.00    +0.000 A 
ATOM     16  C   UNL     1       2.510   4.821  19.471  0.00  0.00    +0.000 A 
ENDROOT
BRANCH   1  17
ATOM     17  C   UNL     1       2.503   8.419  17.985  0.00  0.00    +0.000 C 
BRANCH  17  18
ATOM     18  S   UNL     1       0.766   8.834  17.526  0.00  0.00    +0.000 S 
BRANCH  18  22
ATOM     19  C   UNL     1       1.012  12.927  20.728  0.00  0.00    +0.000 C 
ATOM     20  C   UNL     1       0.424  11.842  19.907  0.00  0.00    +0.000 A 
ATOM     21  N   UNL     1       1.192  10.936  19.207  0.00  0.00    +0.000 NA
ATOM     22  C   UNL     1       0.339  10.173  18.561  0.00  0.00    +0.000 A 
ATOM     23  N   UNL     1      -0.972  10.554  18.810  0.00  0.00    +0.000 N 
ATOM     24  C   UNL     1      -0.925  11.601  19.718  0.00  0.00    +0.000 A 
ATOM     25  C   UNL     1      -2.070  12.329  20.330  0.00  0.00    +0.000 C 
BRANCH  23  26
ATOM     26  C   UNL     1      -2.172  10.089  18.126  0.00  0.00    +0.000 C 
BRANCH  26  27
ATOM     27  C   UNL     1      -2.626  10.929  16.915  0.00  0.00    +0.000 C 
ATOM     28  C   UNL     1      -2.685  10.123  15.615  0.00  0.00    +0.000 C 
ATOM     29  C   UNL     1      -4.013  11.524  17.193  0.00  0.00    +0.000 C 
ENDBRANCH  26  27
ENDBRANCH  23  26
ENDBRANCH  18  22
ENDBRANCH  17  18
ENDBRANCH   1  17
TORSDOF 5
ENDMDL
MODEL 4
REMARK VINA RESULT:      -8.3      0.985      1.476
REMARK  Name = 
REMARK  9 active torsions:
REMARK  status: ('A' for Active; 'I' for Inactive)
REMARK    1  A    between atoms: C_1  and  C_2
REMARK    2  A    between atoms: C_4  and  S_5
REMARK    3  A    between atoms: S_5  and  C_6
REMARK    4  A    between atoms: C_6  and  C_7
REMARK    5  A    between atoms: N_23  and  C_24
REMARK    6  A    between atoms: C_24  and  C_25
REMARK    7  A    between atoms: C_25  and  C_26
REMARK    8  A    between atoms: C_25  and  C_27
REMARK    9  A    between atoms: C_28  and  C_29
REMARK                            x       y       z     vdW  Elec       q    Type
REMARK                         _______ _______ _______ _____ _____    ______ ____
ROOT
ATOM      1  C   UNL     1       2.330   7.294  18.917  0.00  0.00    +0.000 C 
ATOM      2  O   UNL     1       1.869   7.605  20.023  0.00  0.00    +0.000 OA
ATOM      3  N   UNL     1       2.821   5.991  18.623  0.00  0.00    +0.000 N 
ATOM      4  C   UNL     1       3.823   5.730  17.616  0.00  0.00    +0.000 A 
ATOM      5  C   UNL     1       4.830   6.679  17.367  0.00  0.00    +0.000 A 
ATOM      6  C   UNL     1       5.880   6.409  16.484  0.00  0.00    +0.000 A 
ATOM      7  C   UNL     1       5.963   5.178  15.845  0.00  0.00    +0.000 A 
ATOM      8  C   UNL     1       4.985   4.217  16.081  0.00  0.00    +0.000 A 
ATOM      9  C   UNL     1       3.927   4.486  16.961  0.00  0.00    +0.000 A 
ATOM     10  S   UNL     1       2.735   3.200  17.235  0.00  0.00    +0.000 S 
ATOM     11  C   UNL     1       2.474   3.524  18.965  0.00  0.00    +0.000 A 
ATOM     12  C   UNL     1       2.196   2.421  19.787  0.00  0.00    +0.000 A 
ATOM     13  C   UNL     1       1.986   2.589  21.150  0.00  0.00    +0.000 A 
ATOM     14  C   UNL     1       2.053   3.867  21.688  0.00  0.00    +0.000 A 
ATOM     15  C   UNL     1       2.316   4.976  20.866  0.00  0.00    +0.000 A 
ATOM     16  C   UNL     1       2.529   4.842  19.482  0.00  0.00    +0.000 A 
ENDROOT
BRANCH   1  17
ATOM     17  C   UNL     1       2.165   8.299  17.731  0.00  0.00    +0.000 C 
BRANCH  17  18
ATOM     18  S   UNL     1       2.020  10.027  18.360  0.00  0.00    +0.000 S 
BRANCH  18  22
ATOM     19  C   UNL     1      -3.111   9.803  17.534  0.00  0.00    +0.000 C 
ATOM     20  C   UNL     1      -1.812  10.276  18.068  0.00  0.00    +0.000 A 
ATOM     21  N   UNL     1      -0.609   9.701  17.720  0.00  0.00    +0.000 NA
ATOM     22  C   UNL     1       0.303  10.335  18.422  0.00  0.00    +0.000 A 
ATOM     23  N   UNL     1      -0.266  11.309  19.230  0.00  0.00    +0.000 N 
ATOM     24  C   UNL     1      -1.628  11.309  18.969  0.00  0.00    +0.000 A 
ATOM     25  C   UNL     1      -2.667  12.200  19.552  0.00  0.00    +0.000 C 
BRANCH  23  26
ATOM     26  C   UNL     1       0.385  12.070  20.290  0.00  0.00    +0.000 C 
BRANCH  26  27
ATOM     27  C   UNL     1       1.079  13.376  19.855  0.00  0.00    +0.000 C 
ATOM     28  C   UNL     1       0.234  14.623  20.125  0.00  0.00    +0.000 C 
ATOM     29  C   UNL     1       2.419  13.516  20.591  0.00  0.00    +0.000 C 
ENDBRANCH  26  27
ENDBRANCH  23  26
ENDBRANCH  18  22
ENDBRANCH  17  18
ENDBRANCH   1  17
TORSDOF 5
ENDMDL
MODEL 5
REMARK VINA RESULT:      -8.3      1.409      2.539
REMARK  Name = 
REMARK  9 active torsions:
REMARK  status: ('A' for Active; 'I' for Inactive)
REMARK    1  A    between atoms: C_1  and  C_2
REMARK    2  A    between atoms: C_4  and  S_5
REMARK    3  A    between atoms: S_5  and  C_6
REMARK    4  A    between atoms: C_6  and  C_7
REMARK    5  A    between atoms: N_23  and  C_24
REMARK    6  A    between atoms: C_24  and  C_25
REMARK    7  A    between atoms: C_25  and  C_26
REMARK    8  A    between atoms: C_25  and  C_27
REMARK    9  A    between atoms: C_28  and  C_29
REMARK                            x       y       z     vdW  Elec       q    Type
REMARK                         _______ _______ _______ _____ _____    ______ ____
ROOT
ATOM      1  C   UNL     1       2.680   7.161  19.108  0.00  0.00    +0.000 C 
ATOM      2  O   UNL     1       2.215   7.458  20.216  0.00  0.00    +0.000 OA
ATOM      3  N   UNL     1       3.033   5.829  18.749  0.00  0.00    +0.000 N 
ATOM      4  C   UNL     1       4.037   5.515  17.759  0.00  0.00    +0.000 A 
ATOM      5  C   UNL     1       5.152   6.357  17.599  0.00  0.00    +0.000 A 
ATOM      6  C   UNL     1       6.197   6.022  16.733  0.00  0.00    +0.000 A 
ATOM      7  C   UNL     1       6.167   4.828  16.023  0.00  0.00    +0.000 A 
ATOM      8  C   UNL     1       5.080   3.972  16.170  0.00  0.00    +0.000 A 
ATOM      9  C   UNL     1       4.026   4.308  17.032  0.00  0.00    +0.000 A 
ATOM     10  S   UNL     1       2.690   3.152  17.191  0.00  0.00    +0.000 S 
ATOM     11  C   UNL     1       2.402   3.402  18.928  0.00  0.00    +0.000 A 
ATOM     12  C   UNL     1       1.972   2.293  19.673  0.00  0.00    +0.000 A 
ATOM     13  C   UNL     1       1.732   2.404  21.036  0.00  0.00    +0.000 A 
ATOM     14  C   UNL     1       1.921   3.633  21.653  0.00  0.00    +0.000 A 
ATOM     15  C   UNL     1       2.336   4.751  20.909  0.00  0.00    +0.000 A 
ATOM     16  C   UNL     1       2.584   4.674  19.526  0.00  0.00    +0.000 A 
ENDROOT
BRANCH   1  17
ATOM     17  C   UNL     1       2.672   8.245  17.982  0.00  0.00    +0.000 C 
BRANCH  17  18
ATOM     18  S   UNL     1       1.012   9.039  17.857  0.00  0.00    +0.000 S 
BRANCH  18  22
ATOM     19  C   UNL     1       3.047  13.775  18.554  0.00  0.00    +0.000 C 
ATOM     20  C   UNL     1       2.109  12.635  18.689  0.00  0.00    +0.000 A 
ATOM     21  N   UNL     1       2.317  11.421  18.070  0.00  0.00    +0.000 NA
ATOM     22  C   UNL     1       1.267  10.689  18.366  0.00  0.00    +0.000 A 
ATOM     23  N   UNL     1       0.368  11.387  19.159  0.00  0.00    +0.000 N 
ATOM     24  C   UNL     1       0.930  12.630  19.411  0.00  0.00    +0.000 A 
ATOM     25  C   UNL     1       0.374  13.728  20.247  0.00  0.00    +0.000 C 
BRANCH  23  26
ATOM     26  C   UNL     1      -0.989  10.991  19.516  0.00  0.00    +0.000 C 
BRANCH  26  27
ATOM     27  C   UNL     1      -2.086  11.343  18.492  0.00  0.00    +0.000 C 
ATOM     28  C   UNL     1      -2.635  10.118  17.757  0.00  0.00    +0.000 C 
ATOM     29  C   UNL     1      -3.245  12.055  19.203  0.00  0.00    +0.000 C 
ENDBRANCH  26  27
ENDBRANCH  23  26
ENDBRANCH  18  22
ENDBRANCH  17  18
ENDBRANCH   1  17
TORSDOF 5
ENDMDL
MODEL 6
REMARK VINA RESULT:      -7.7      1.871      4.403
REMARK  Name = 
REMARK  9 active torsions:
REMARK  status: ('A' for Active; 'I' for Inactive)
REMARK    1  A    between atoms: C_1  and  C_2
REMARK    2  A    between atoms: C_4  and  S_5
REMARK    3  A    between atoms: S_5  and  C_6
REMARK    4  A    between atoms: C_6  and  C_7
REMARK    5  A    between atoms: N_23  and  C_24
REMARK    6  A    between atoms: C_24  and  C_25
REMARK    7  A    between atoms: C_25  and  C_26
REMARK    8  A    between atoms: C_25  and  C_27
REMARK    9  A    between atoms: C_28  and  C_29
REMARK                            x       y       z     vdW  Elec       q    Type
REMARK                         _______ _______ _______ _____ _____    ______ ____
ROOT
ATOM      1  C   UNL     1       2.992   7.298  17.797  0.00  0.00    +0.000 C 
ATOM      2  O   UNL     1       3.172   7.993  16.788  0.00  0.00    +0.000 OA
ATOM      3  N   UNL     1       3.639   6.047  18.000  0.00  0.00    +0.000 N 
ATOM      4  C   UNL     1       3.086   4.993  18.819  0.00  0.00    +0.000 A 
ATOM      5  C   UNL     1       1.692   4.820  18.893  0.00  0.00    +0.000 A 
ATOM      6  C   UNL     1       1.130   3.741  19.582  0.00  0.00    +0.000 A 
ATOM      7  C   UNL     1       1.944   2.796  20.194  0.00  0.00    +0.000 A 
ATOM      8  C   UNL     1       3.327   2.937  20.127  0.00  0.00    +0.000 A 
ATOM      9  C   UNL     1       3.895   4.022  19.443  0.00  0.00    +0.000 A 
ATOM     10  S   UNL     1       5.665   4.118  19.376  0.00  0.00    +0.000 S 
ATOM     11  C   UNL     1       5.776   4.753  17.717  0.00  0.00    +0.000 A 
ATOM     12  C   UNL     1       6.884   4.355  16.953  0.00  0.00    +0.000 A 
ATOM     13  C   UNL     1       7.040   4.802  15.647  0.00  0.00    +0.000 A 
ATOM     14  C   UNL     1       6.083   5.651  15.108  0.00  0.00    +0.000 A 
ATOM     15  C   UNL     1       4.981   6.064  15.875  0.00  0.00    +0.000 A 
ATOM     16  C   UNL     1       4.794   5.634  17.202  0.00  0.00    +0.000 A 
ENDROOT
BRANCH   1  17
ATOM     17  C   UNL     1       2.202   7.917  18.996  0.00  0.00    +0.000 C 
BRANCH  17  18
ATOM     18  S   UNL     1       1.380   9.488  18.490  0.00  0.00    +0.000 S 
BRANCH  18  22
ATOM     19  C   UNL     1      -0.679   9.954  23.244  0.00  0.00    +0.000 C 
ATOM     20  C   UNL     1      -0.160  10.349  21.913  0.00  0.00    +0.000 A 
ATOM     21  N   UNL     1       0.287   9.432  20.985  0.00  0.00    +0.000 NA
ATOM     22  C   UNL     1       0.719  10.142  19.967  0.00  0.00    +0.000 A 
ATOM     23  N   UNL     1       0.575  11.502  20.199  0.00  0.00    +0.000 N 
ATOM     24  C   UNL     1      -0.038  11.640  21.435  0.00  0.00    +0.000 A 
ATOM     25  C   UNL     1      -0.445  12.900  22.114  0.00  0.00    +0.000 C 
BRANCH  23  26
ATOM     26  C   UNL     1       1.119  12.597  19.405  0.00  0.00    +0.000 C 
BRANCH  26  27
ATOM     27  C   UNL     1       0.143  13.263  18.414  0.00  0.00    +0.000 C 
ATOM     28  C   UNL     1      -1.154  12.473  18.228  0.00  0.00    +0.000 C 
ATOM     29  C   UNL     1      -0.203  14.676  18.905  0.00  0.00    +0.000 C 
ENDBRANCH  26  27
ENDBRANCH  23  26
ENDBRANCH  18  22
ENDBRANCH  17  18
ENDBRANCH   1  17
TORSDOF 5
ENDMDL
MODEL 7
REMARK VINA RESULT:      -7.7      2.297      8.677
REMARK  Name = 
REMARK  9 active torsions:
REMARK  status: ('A' for Active; 'I' for Inactive)
REMARK    1  A    between atoms: C_1  and  C_2
REMARK    2  A    between atoms: C_4  and  S_5
REMARK    3  A    between atoms: S_5  and  C_6
REMARK    4  A    between atoms: C_6  and  C_7
REMARK    5  A    between atoms: N_23  and  C_24
REMARK    6  A    between atoms: C_24  and  C_25
REMARK    7  A    between atoms: C_25  and  C_26
REMARK    8  A    between atoms: C_25  and  C_27
REMARK    9  A    between atoms: C_28  and  C_29
REMARK                            x       y       z     vdW  Elec       q    Type
REMARK                         _______ _______ _______ _____ _____    ______ ____
ROOT
ATOM      1  C   UNL     1       1.753  10.467  18.574  0.00  0.00    +0.000 C 
ATOM      2  O   UNL     1       2.528  11.022  17.784  0.00  0.00    +0.000 OA
ATOM      3  N   UNL     1       0.949  11.186  19.503  0.00  0.00    +0.000 N 
ATOM      4  C   UNL     1       0.484  10.625  20.750  0.00  0.00    +0.000 A 
ATOM      5  C   UNL     1       1.282   9.694  21.440  0.00  0.00    +0.000 A 
ATOM      6  C   UNL     1       0.916   9.219  22.703  0.00  0.00    +0.000 A 
ATOM      7  C   UNL     1      -0.241   9.679  23.319  0.00  0.00    +0.000 A 
ATOM      8  C   UNL     1      -1.044  10.608  22.663  0.00  0.00    +0.000 A 
ATOM      9  C   UNL     1      -0.684  11.081  21.392  0.00  0.00    +0.000 A 
ATOM     10  S   UNL     1      -1.740  12.287  20.632  0.00  0.00    +0.000 S 
ATOM     11  C   UNL     1      -0.448  13.244  19.870  0.00  0.00    +0.000 A 
ATOM     12  C   UNL     1      -0.658  14.627  19.757  0.00  0.00    +0.000 A 
ATOM     13  C   UNL     1       0.305  15.444  19.180  0.00  0.00    +0.000 A 
ATOM     14  C   UNL     1       1.480  14.872  18.713  0.00  0.00    +0.000 A 
ATOM     15  C   UNL     1       1.687  13.486  18.809  0.00  0.00    +0.000 A 
ATOM     16  C   UNL     1       0.731  12.628  19.384  0.00  0.00    +0.000 A 
ENDROOT
BRANCH   1  17
ATOM     17  C   UNL     1       1.479   8.938  18.398  0.00  0.00    +0.000 C 
BRANCH  17  18
ATOM     18  S   UNL     1       2.992   8.073  17.794  0.00  0.00    +0.000 S 
BRANCH  18  22
ATOM     19  C   UNL     1       1.736   4.100  20.908  0.00  0.00    +0.000 C 
ATOM     20  C   UNL     1       2.516   4.915  19.946  0.00  0.00    +0.000 A 
ATOM     21  N   UNL     1       2.105   6.161  19.521  0.00  0.00    +0.000 NA
ATOM     22  C   UNL     1       3.003   6.548  18.643  0.00  0.00    +0.000 A 
ATOM     23  N   UNL     1       3.992   5.590  18.472  0.00  0.00    +0.000 N 
ATOM     24  C   UNL     1       3.709   4.554  19.348  0.00  0.00    +0.000 A 
ATOM     25  C   UNL     1       4.495   3.310  19.573  0.00  0.00    +0.000 C 
BRANCH  23  26
ATOM     26  C   UNL     1       5.031   5.565  17.450  0.00  0.00    +0.000 C 
BRANCH  26  27
ATOM     27  C   UNL     1       6.471   5.808  17.944  0.00  0.00    +0.000 C 
ATOM     28  C   UNL     1       7.431   4.676  17.574  0.00  0.00    +0.000 C 
ATOM     29  C   UNL     1       7.002   7.122  17.354  0.00  0.00    +0.000 C 
ENDBRANCH  26  27
ENDBRANCH  23  26
ENDBRANCH  18  22
ENDBRANCH  17  18
ENDBRANCH   1  17
TORSDOF 5
ENDMDL
MODEL 8
REMARK VINA RESULT:      -7.6      2.096      4.301
REMARK  Name = 
REMARK  9 active torsions:
REMARK  status: ('A' for Active; 'I' for Inactive)
REMARK    1  A    between atoms: C_1  and  C_2
REMARK    2  A    between atoms: C_4  and  S_5
REMARK    3  A    between atoms: S_5  and  C_6
REMARK    4  A    between atoms: C_6  and  C_7
REMARK    5  A    between atoms: N_23  and  C_24
REMARK    6  A    between atoms: C_24  and  C_25
REMARK    7  A    between atoms: C_25  and  C_26
REMARK    8  A    between atoms: C_25  and  C_27
REMARK    9  A    between atoms: C_28  and  C_29
REMARK                            x       y       z     vdW  Elec       q    Type
REMARK                         _______ _______ _______ _____ _____    ______ ____
ROOT
ATOM      1  C   UNL     1       3.079   7.433  17.659  0.00  0.00    +0.000 C 
ATOM      2  O   UNL     1       3.270   8.074  16.618  0.00  0.00    +0.000 OA
ATOM      3  N   UNL     1       3.707   6.183  17.925  0.00  0.00    +0.000 N 
ATOM      4  C   UNL     1       3.138   5.180  18.794  0.00  0.00    +0.000 A 
ATOM      5  C   UNL     1       1.741   5.031  18.873  0.00  0.00    +0.000 A 
ATOM      6  C   UNL     1       1.162   3.996  19.613  0.00  0.00    +0.000 A 
ATOM      7  C   UNL     1       1.961   3.071  20.273  0.00  0.00    +0.000 A 
ATOM      8  C   UNL     1       3.346   3.188  20.203  0.00  0.00    +0.000 A 
ATOM      9  C   UNL     1       3.931   4.229  19.467  0.00  0.00    +0.000 A 
ATOM     10  S   UNL     1       5.702   4.295  19.398  0.00  0.00    +0.000 S 
ATOM     11  C   UNL     1       5.825   4.846  17.711  0.00  0.00    +0.000 A 
ATOM     12  C   UNL     1       6.928   4.395  16.970  0.00  0.00    +0.000 A 
ATOM     13  C   UNL     1       7.092   4.773  15.644  0.00  0.00    +0.000 A 
ATOM     14  C   UNL     1       6.149   5.609  15.062  0.00  0.00    +0.000 A 
ATOM     15  C   UNL     1       5.052   6.076  15.805  0.00  0.00    +0.000 A 
ATOM     16  C   UNL     1       4.857   5.715  17.151  0.00  0.00    +0.000 A 
ENDROOT
BRANCH   1  17
ATOM     17  C   UNL     1       2.296   8.122  18.824  0.00  0.00    +0.000 C 
BRANCH  17  18
ATOM     18  S   UNL     1       0.961   9.205  18.158  0.00  0.00    +0.000 S 
BRANCH  18  22
ATOM     19  C   UNL     1       3.065  13.937  18.652  0.00  0.00    +0.000 C 
ATOM     20  C   UNL     1       2.239  12.746  18.967  0.00  0.00    +0.000 A 
ATOM     21  N   UNL     1       2.238  11.612  18.183  0.00  0.00    +0.000 NA
ATOM     22  C   UNL     1       1.358  10.805  18.731  0.00  0.00    +0.000 A 
ATOM     23  N   UNL     1       0.773  11.377  19.852  0.00  0.00    +0.000 N 
ATOM     24  C   UNL     1       1.375  12.613  20.037  0.00  0.00    +0.000 A 
ATOM     25  C   UNL     1       1.123  13.594  21.127  0.00  0.00    +0.000 C 
BRANCH  23  26
ATOM     26  C   UNL     1      -0.379  10.885  20.597  0.00  0.00    +0.000 C 
BRANCH  26  27
ATOM     27  C   UNL     1      -0.064  10.101  21.887  0.00  0.00    +0.000 C 
ATOM     28  C   UNL     1      -0.897  10.559  23.086  0.00  0.00    +0.000 C 
ATOM     29  C   UNL     1      -0.311   8.604  21.652  0.00  0.00    +0.000 C 
ENDBRANCH  26  27
ENDBRANCH  23  26
ENDBRANCH  18  22
ENDBRANCH  17  18
ENDBRANCH   1  17
TORSDOF 5
ENDMDL
MODEL 9
REMARK VINA RESULT:      -7.6      1.352      3.579
REMARK  Name = 
REMARK  9 active torsions:
REMARK  status: ('A' for Active; 'I' for Inactive)
REMARK    1  A    between atoms: C_1  and  C_2
REMARK    2  A    between atoms: C_4  and  S_5
REMARK    3  A    between atoms: S_5  and  C_6
REMARK    4  A    between atoms: C_6  and  C_7
REMARK    5  A    between atoms: N_23  and  C_24
REMARK    6  A    between atoms: C_24  and  C_25
REMARK    7  A    between atoms: C_25  and  C_26
REMARK    8  A    between atoms: C_25  and  C_27
REMARK    9  A    between atoms: C_28  and  C_29
REMARK                            x       y       z     vdW  Elec       q    Type
REMARK                         _______ _______ _______ _____ _____    ______ ____
ROOT
ATOM      1  C   UNL     1       2.794   7.247  17.967  0.00  0.00    +0.000 C 
ATOM      2  O   UNL     1       2.967   7.996  16.996  0.00  0.00    +0.000 OA
ATOM      3  N   UNL     1       3.472   6.004  18.115  0.00  0.00    +0.000 N 
ATOM      4  C   UNL     1       2.939   4.896  18.873  0.00  0.00    +0.000 A 
ATOM      5  C   UNL     1       1.550   4.683  18.920  0.00  0.00    +0.000 A 
ATOM      6  C   UNL     1       1.009   3.556  19.546  0.00  0.00    +0.000 A 
ATOM      7  C   UNL     1       1.841   2.603  20.121  0.00  0.00    +0.000 A 
ATOM      8  C   UNL     1       3.220   2.785  20.081  0.00  0.00    +0.000 A 
ATOM      9  C   UNL     1       3.767   3.917  19.459  0.00  0.00    +0.000 A 
ATOM     10  S   UNL     1       5.534   4.064  19.420  0.00  0.00    +0.000 S 
ATOM     11  C   UNL     1       5.647   4.784  17.797  0.00  0.00    +0.000 A 
ATOM     12  C   UNL     1       6.775   4.456  17.029  0.00  0.00    +0.000 A 
ATOM     13  C   UNL     1       6.935   4.971  15.749  0.00  0.00    +0.000 A 
ATOM     14  C   UNL     1       5.961   5.820  15.241  0.00  0.00    +0.000 A 
ATOM     15  C   UNL     1       4.839   6.164  16.013  0.00  0.00    +0.000 A 
ATOM     16  C   UNL     1       4.648   5.664  17.313  0.00  0.00    +0.000 A 
ENDROOT
BRANCH   1  17
ATOM     17  C   UNL     1       1.973   7.783  19.184  0.00  0.00    +0.000 C 
BRANCH  17  18
ATOM     18  S   UNL     1       1.951   9.627  19.191  0.00  0.00    +0.000 S 
BRANCH  18  22
ATOM     19  C   UNL     1      -2.626   9.964  16.741  0.00  0.00    +0.000 C 
ATOM     20  C   UNL     1      -1.567  10.229  17.744  0.00  0.00    +0.000 A 
ATOM     21  N   UNL     1      -0.326   9.631  17.693  0.00  0.00    +0.000 NA
ATOM     22  C   UNL     1       0.315  10.055  18.760  0.00  0.00    +0.000 A 
ATOM     23  N   UNL     1      -0.472  10.911  19.517  0.00  0.00    +0.000 N 
ATOM     24  C   UNL     1      -1.672  11.066  18.839  0.00  0.00    +0.000 A 
ATOM     25  C   UNL     1      -2.831  11.918  19.221  0.00  0.00    +0.000 C 
BRANCH  23  26
ATOM     26  C   UNL     1      -0.193  11.416  20.856  0.00  0.00    +0.000 C 
BRANCH  26  27
ATOM     27  C   UNL     1      -0.797  10.606  22.021  0.00  0.00    +0.000 C 
ATOM     28  C   UNL     1       0.234   9.740  22.747  0.00  0.00    +0.000 C 
ATOM     29  C   UNL     1      -1.441  11.564  23.033  0.00  0.00    +0.000 C 
ENDBRANCH  26  27
ENDBRANCH  23  26
ENDBRANCH  18  22
ENDBRANCH  17  18
ENDBRANCH   1  17
TORSDOF 5
ENDMDL
