MODEL 1
REMARK VINA RESULT:      -8.7      0.000      0.000
REMARK  Name = 
REMARK  10 active torsions:
REMARK  status: ('A' for Active; 'I' for Inactive)
REMARK    1  A    between atoms: C_1  and  C_2
REMARK    2  A    between atoms: C_2  and  N_3
REMARK    3  A    between atoms: C_5  and  C_6
REMARK    4  A    between atoms: C_7  and  N_8
REMARK    5  A    between atoms: C_7  and  C_18
REMARK    6  A    between atoms: C_9  and  C_11
REMARK    7  A    between atoms: N_20  and  C_21
REMARK    8  A    between atoms: C_21  and  C_22
REMARK    9  A    between atoms: C_22  and  C_23
REMARK   10  A    between atoms: C_23  and  N_24
REMARK                            x       y       z     vdW  Elec       q    Type
REMARK                         _______ _______ _______ _____ _____    ______ ____
ROOT
ATOM      1  C   UNL     1       5.817   6.000  18.638  0.00  0.00    +0.000 C 
ATOM      2  C   UNL     1       6.550   6.506  17.626  0.00  0.00    +0.000 C 
ENDROOT
BRANCH   1   5
ATOM      3  N   UNL     1       3.439   3.312  18.128  0.00  0.00    +0.000 N 
ATOM      4  C   UNL     1       4.623   3.939  17.834  0.00  0.00    +0.000 A 
ATOM      5  C   UNL     1       4.711   5.082  18.599  0.00  0.00    +0.000 A 
ATOM      6  C   UNL     1       3.456   5.228  19.275  0.00  0.00    +0.000 A 
ATOM      7  C   UNL     1       2.902   6.204  20.134  0.00  0.00    +0.000 A 
ATOM      8  C   UNL     1       1.605   6.040  20.637  0.00  0.00    +0.000 A 
ATOM      9  C   UNL     1       0.854   4.918  20.301  0.00  0.00    +0.000 A 
ATOM     10  C   UNL     1       1.375   3.933  19.458  0.00  0.00    +0.000 A 
ATOM     11  C   UNL     1       2.675   4.108  18.956  0.00  0.00    +0.000 A 
BRANCH   3  13
ATOM     12  C   UNL     1       3.867   0.884  18.477  0.00  0.00    +0.000 C 
ATOM     13  C   UNL     1       3.119   1.959  17.709  0.00  0.00    +0.000 C 
ENDBRANCH   3  13
ENDBRANCH   1   5
BRANCH   2  14
ATOM     14  N   UNL     1       6.426   6.082  16.304  0.00  0.00    +0.000 N 
ATOM     15  C   UNL     1       7.170   5.011  15.839  0.00  0.00    +0.000 C 
ATOM     16  O   UNL     1       7.934   4.366  16.552  0.00  0.00    +0.000 OA
ATOM     17  H   UNL     1       6.305   6.830  15.625  0.00  0.00    +0.000 HD
BRANCH  15  18
ATOM     18  C   UNL     1       6.978   4.591  14.427  0.00  0.00    +0.000 A 
ATOM     19  C   UNL     1       5.890   3.745  14.158  0.00  0.00    +0.000 A 
ATOM     20  C   UNL     1       5.542   3.426  12.846  0.00  0.00    +0.000 A 
ATOM     21  C   UNL     1       6.288   3.936  11.786  0.00  0.00    +0.000 A 
ATOM     22  C   UNL     1       7.404   4.735  12.042  0.00  0.00    +0.000 A 
ATOM     23  C   UNL     1       7.746   5.055  13.359  0.00  0.00    +0.000 A 
ATOM     24  F   UNL     1       8.830   5.818  13.569  0.00  0.00    +0.000 F 
ENDBRANCH  15  18
ENDBRANCH   2  14
BRANCH   2  25
ATOM     25  C   UNL     1       7.629   7.526  17.994  0.00  0.00    +0.000 C 
ATOM     26  O   UNL     1       8.582   7.221  18.704  0.00  0.00    +0.000 OA
ATOM     27  N   UNL     1       7.499   8.779  17.436  0.00  0.00    +0.000 N 
ATOM     28  H   UNL     1       6.672   8.970  16.889  0.00  0.00    +0.000 HD
BRANCH  27  29
ATOM     29  C   UNL     1       8.495   9.832  17.600  0.00  0.00    +0.000 C 
BRANCH  29  30
ATOM     30  C   UNL     1       8.972   9.914  19.052  0.00  0.00    +0.000 C 
BRANCH  30  31
ATOM     31  C   UNL     1       9.691  11.232  19.405  0.00  0.00    +0.000 C 
BRANCH  31  32
ATOM     32  N   UNL     1      10.135  11.945  18.192  0.00  0.00    +0.000 NA
ATOM     33  C   UNL     1      11.604  11.980  18.012  0.00  0.00    +0.000 C 
ATOM     34  C   UNL     1      12.330  13.019  18.881  0.00  0.00    +0.000 C 
ATOM     35  O   UNL     1      11.807  14.332  18.657  0.00  0.00    +0.000 OA
ATOM     36  C   UNL     1      10.406  14.364  18.949  0.00  0.00    +0.000 C 
ATOM     37  C   UNL     1       9.627  13.334  18.110  0.00  0.00    +0.000 C 
ENDBRANCH  31  32
ENDBRANCH  30  31
ENDBRANCH  29  30
ENDBRANCH  27  29
ENDBRANCH   2  25
TORSDOF 9
ENDMDL
MODEL 2
REMARK VINA RESULT:      -8.7      4.680      7.319
REMARK  Name = 
REMARK  10 active torsions:
REMARK  status: ('A' for Active; 'I' for Inactive)
REMARK    1  A    between atoms: C_1  and  C_2
REMARK    2  A    between atoms: C_2  and  N_3
REMARK    3  A    between atoms: C_5  and  C_6
REMARK    4  A    between atoms: C_7  and  N_8
REMARK    5  A    between atoms: C_7  and  C_18
REMARK    6  A    between atoms: C_9  and  C_11
REMARK    7  A    between atoms: N_20  and  C_21
REMARK    8  A    between atoms: C_21  and  C_22
REMARK    9  A    between atoms: C_22  and  C_23
REMARK   10  A    between atoms: C_23  and  N_24
REMARK                            x       y       z     vdW  Elec       q    Type
REMARK                         _______ _______ _______ _____ _____    ______ ____
ROOT
ATOM      1  C   UNL     1       3.849   7.589  17.001  0.00  0.00    +0.000 C 
ATOM      2  C   UNL     1       3.081   7.595  18.110  0.00  0.00    +0.000 C 
ENDROOT
BRANCH   1   5
ATOM      3  N   UNL     1       6.163   5.323  15.375  0.00  0.00    +0.000 N 
ATOM      4  C   UNL     1       5.026   6.090  15.363  0.00  0.00    +0.000 A 
ATOM      5  C   UNL     1       4.879   6.669  16.605  0.00  0.00    +0.000 A 
ATOM      6  C   UNL     1       5.892   6.106  17.448  0.00  0.00    +0.000 A 
ATOM      7  C   UNL     1       6.225   6.233  18.816  0.00  0.00    +0.000 A 
ATOM      8  C   UNL     1       7.310   5.521  19.343  0.00  0.00    +0.000 A 
ATOM      9  C   UNL     1       8.070   4.689  18.529  0.00  0.00    +0.000 A 
ATOM     10  C   UNL     1       7.770   4.545  17.171  0.00  0.00    +0.000 A 
ATOM     11  C   UNL     1       6.678   5.260  16.653  0.00  0.00    +0.000 A 
BRANCH   3  13
ATOM     12  C   UNL     1       5.910   3.747  13.465  0.00  0.00    +0.000 C 
ATOM     13  C   UNL     1       6.773   4.770  14.179  0.00  0.00    +0.000 C 
ENDBRANCH   3  13
ENDBRANCH   1   5
BRANCH   2  14
ATOM     14  N   UNL     1       3.076   6.560  19.043  0.00  0.00    +0.000 N 
ATOM     15  C   UNL     1       2.408   5.378  18.773  0.00  0.00    +0.000 C 
ATOM     16  O   UNL     1       1.828   5.162  17.712  0.00  0.00    +0.000 OA
ATOM     17  H   UNL     1       3.016   6.859  20.013  0.00  0.00    +0.000 HD
BRANCH  15  18
ATOM     18  C   UNL     1       2.457   4.302  19.796  0.00  0.00    +0.000 A 
ATOM     19  C   UNL     1       1.331   4.159  20.623  0.00  0.00    +0.000 A 
ATOM     20  C   UNL     1       1.225   3.083  21.504  0.00  0.00    +0.000 A 
ATOM     21  C   UNL     1       2.252   2.146  21.583  0.00  0.00    +0.000 A 
ATOM     22  C   UNL     1       3.401   2.306  20.805  0.00  0.00    +0.000 A 
ATOM     23  C   UNL     1       3.500   3.384  19.920  0.00  0.00    +0.000 A 
ATOM     24  F   UNL     1       4.622   3.511  19.194  0.00  0.00    +0.000 F 
ENDBRANCH  15  18
ENDBRANCH   2  14
BRANCH   2  25
ATOM     25  C   UNL     1       2.109   8.765  18.274  0.00  0.00    +0.000 C 
ATOM     26  O   UNL     1       1.954   9.597  17.386  0.00  0.00    +0.000 OA
ATOM     27  N   UNL     1       1.381   8.793  19.443  0.00  0.00    +0.000 N 
ATOM     28  H   UNL     1       1.584   8.095  20.144  0.00  0.00    +0.000 HD
BRANCH  27  29
ATOM     29  C   UNL     1       0.337   9.777  19.710  0.00  0.00    +0.000 C 
BRANCH  29  30
ATOM     30  C   UNL     1       0.783  10.768  20.788  0.00  0.00    +0.000 C 
BRANCH  30  31
ATOM     31  C   UNL     1       0.454  12.240  20.465  0.00  0.00    +0.000 C 
BRANCH  31  32
ATOM     32  N   UNL     1       0.718  12.552  19.048  0.00  0.00    +0.000 NA
ATOM     33  C   UNL     1       2.128  12.901  18.757  0.00  0.00    +0.000 C 
ATOM     34  C   UNL     1       2.526  14.334  19.141  0.00  0.00    +0.000 C 
ATOM     35  O   UNL     1       1.673  15.292  18.504  0.00  0.00    +0.000 OA
ATOM     36  C   UNL     1       0.308  15.063  18.871  0.00  0.00    +0.000 C 
ATOM     37  C   UNL     1      -0.143  13.634  18.515  0.00  0.00    +0.000 C 
ENDBRANCH  31  32
ENDBRANCH  30  31
ENDBRANCH  29  30
ENDBRANCH  27  29
ENDBRANCH   2  25
TORSDOF 9
ENDMDL
MODEL 3
REMARK VINA RESULT:      -8.5      4.785      7.491
REMARK  Name = 
REMARK  10 active torsions:
REMARK  status: ('A' for Active; 'I' for Inactive)
REMARK    1  A    between atoms: C_1  and  C_2
REMARK    2  A    between atoms: C_2  and  N_3
REMARK    3  A    between atoms: C_5  and  C_6
REMARK    4  A    between atoms: C_7  and  N_8
REMARK    5  A    between atoms: C_7  and  C_18
REMARK    6  A    between atoms: C_9  and  C_11
REMARK    7  A    between atoms: N_20  and  C_21
REMARK    8  A    between atoms: C_21  and  C_22
REMARK    9  A    between atoms: C_22  and  C_23
REMARK   10  A    between atoms: C_23  and  N_24
REMARK                            x       y       z     vdW  Elec       q    Type
REMARK                         _______ _______ _______ _____ _____    ______ ____
ROOT
ATOM      1  C   UNL     1       3.863   7.521  16.963  0.00  0.00    +0.000 C 
ATOM      2  C   UNL     1       3.092   7.558  18.069  0.00  0.00    +0.000 C 
ENDROOT
BRANCH   1   5
ATOM      3  N   UNL     1       6.104   5.146  15.390  0.00  0.00    +0.000 N 
ATOM      4  C   UNL     1       4.966   5.911  15.378  0.00  0.00    +0.000 A 
ATOM      5  C   UNL     1       4.876   6.574  16.582  0.00  0.00    +0.000 A 
ATOM      6  C   UNL     1       5.929   6.070  17.414  0.00  0.00    +0.000 A 
ATOM      7  C   UNL     1       6.325   6.291  18.753  0.00  0.00    +0.000 A 
ATOM      8  C   UNL     1       7.436   5.617  19.276  0.00  0.00    +0.000 A 
ATOM      9  C   UNL     1       8.159   4.729  18.486  0.00  0.00    +0.000 A 
ATOM     10  C   UNL     1       7.796   4.493  17.157  0.00  0.00    +0.000 A 
ATOM     11  C   UNL     1       6.679   5.171  16.643  0.00  0.00    +0.000 A 
BRANCH   3  13
ATOM     12  C   UNL     1       5.626   3.814  13.341  0.00  0.00    +0.000 C 
ATOM     13  C   UNL     1       6.659   4.511  14.207  0.00  0.00    +0.000 C 
ENDBRANCH   3  13
ENDBRANCH   1   5
BRANCH   2  14
ATOM     14  N   UNL     1       3.064   6.536  19.016  0.00  0.00    +0.000 N 
ATOM     15  C   UNL     1       2.379   5.361  18.758  0.00  0.00    +0.000 C 
ATOM     16  O   UNL     1       1.803   5.139  17.696  0.00  0.00    +0.000 OA
ATOM     17  H   UNL     1       3.002   6.849  19.982  0.00  0.00    +0.000 HD
BRANCH  15  18
ATOM     18  C   UNL     1       2.403   4.299  19.797  0.00  0.00    +0.000 A 
ATOM     19  C   UNL     1       1.225   4.105  20.534  0.00  0.00    +0.000 A 
ATOM     20  C   UNL     1       1.105   3.033  21.419  0.00  0.00    +0.000 A 
ATOM     21  C   UNL     1       2.170   2.152  21.591  0.00  0.00    +0.000 A 
ATOM     22  C   UNL     1       3.367   2.365  20.903  0.00  0.00    +0.000 A 
ATOM     23  C   UNL     1       3.479   3.439  20.014  0.00  0.00    +0.000 A 
ATOM     24  F   UNL     1       4.647   3.618  19.377  0.00  0.00    +0.000 F 
ENDBRANCH  15  18
ENDBRANCH   2  14
BRANCH   2  25
ATOM     25  C   UNL     1       2.143   8.749  18.213  0.00  0.00    +0.000 C 
ATOM     26  O   UNL     1       1.969   9.543  17.294  0.00  0.00    +0.000 OA
ATOM     27  N   UNL     1       1.457   8.840  19.403  0.00  0.00    +0.000 N 
ATOM     28  H   UNL     1       1.675   8.171  20.128  0.00  0.00    +0.000 HD
BRANCH  27  29
ATOM     29  C   UNL     1       0.438   9.852  19.662  0.00  0.00    +0.000 C 
BRANCH  29  30
ATOM     30  C   UNL     1       0.729  10.602  20.964  0.00  0.00    +0.000 C 
BRANCH  30  31
ATOM     31  C   UNL     1      -0.058  11.919  21.120  0.00  0.00    +0.000 C 
BRANCH  31  32
ATOM     32  N   UNL     1       0.840  13.051  21.421  0.00  0.00    +0.000 NA
ATOM     33  C   UNL     1       0.179  14.375  21.385  0.00  0.00    +0.000 C 
ATOM     34  C   UNL     1      -0.049  14.939  19.974  0.00  0.00    +0.000 C 
ATOM     35  O   UNL     1       1.181  15.018  19.248  0.00  0.00    +0.000 OA
ATOM     36  C   UNL     1       1.785  13.723  19.150  0.00  0.00    +0.000 C 
ATOM     37  C   UNL     1       2.029  13.105  20.539  0.00  0.00    +0.000 C 
ENDBRANCH  31  32
ENDBRANCH  30  31
ENDBRANCH  29  30
ENDBRANCH  27  29
ENDBRANCH   2  25
TORSDOF 9
ENDMDL
MODEL 4
REMARK VINA RESULT:      -8.4      3.687      5.985
REMARK  Name = 
REMARK  10 active torsions:
REMARK  status: ('A' for Active; 'I' for Inactive)
REMARK    1  A    between atoms: C_1  and  C_2
REMARK    2  A    between atoms: C_2  and  N_3
REMARK    3  A    between atoms: C_5  and  C_6
REMARK    4  A    between atoms: C_7  and  N_8
REMARK    5  A    between atoms: C_7  and  C_18
REMARK    6  A    between atoms: C_9  and  C_11
REMARK    7  A    between atoms: N_20  and  C_21
REMARK    8  A    between atoms: C_21  and  C_22
REMARK    9  A    between atoms: C_22  and  C_23
REMARK   10  A    between atoms: C_23  and  N_24
REMARK                            x       y       z     vdW  Elec       q    Type
REMARK                         _______ _______ _______ _____ _____    ______ ____
ROOT
ATOM      1  C   UNL     1       3.115   8.658  17.796  0.00  0.00    +0.000 C 
ATOM      2  C   UNL     1       3.504   7.389  17.561  0.00  0.00    +0.000 C 
ENDROOT
BRANCH   1   5
ATOM      3  N   UNL     1      -0.112  10.171  18.456  0.00  0.00    +0.000 N 
ATOM      4  C   UNL     1       0.980   9.977  17.649  0.00  0.00    +0.000 A 
ATOM      5  C   UNL     1       1.867   9.154  18.309  0.00  0.00    +0.000 A 
ATOM      6  C   UNL     1       1.352   8.965  19.633  0.00  0.00    +0.000 A 
ATOM      7  C   UNL     1       1.816   8.297  20.789  0.00  0.00    +0.000 A 
ATOM      8  C   UNL     1       1.046   8.305  21.960  0.00  0.00    +0.000 A 
ATOM      9  C   UNL     1      -0.178   8.964  21.995  0.00  0.00    +0.000 A 
ATOM     10  C   UNL     1      -0.667   9.629  20.867  0.00  0.00    +0.000 A 
ATOM     11  C   UNL     1       0.114   9.619  19.699  0.00  0.00    +0.000 A 
BRANCH   3  13
ATOM     12  C   UNL     1      -1.364  12.285  18.055  0.00  0.00    +0.000 C 
ATOM     13  C   UNL     1      -1.354  10.768  17.999  0.00  0.00    +0.000 C 
ENDBRANCH   3  13
ENDBRANCH   1   5
BRANCH   2  14
ATOM     14  N   UNL     1       2.750   6.277  17.931  0.00  0.00    +0.000 N 
ATOM     15  C   UNL     1       3.158   5.473  18.983  0.00  0.00    +0.000 C 
ATOM     16  O   UNL     1       4.159   5.706  19.656  0.00  0.00    +0.000 OA
ATOM     17  H   UNL     1       2.332   5.767  17.157  0.00  0.00    +0.000 HD
BRANCH  15  18
ATOM     18  C   UNL     1       2.302   4.314  19.345  0.00  0.00    +0.000 A 
ATOM     19  C   UNL     1       1.861   3.497  18.292  0.00  0.00    +0.000 A 
ATOM     20  C   UNL     1       1.185   2.304  18.550  0.00  0.00    +0.000 A 
ATOM     21  C   UNL     1       0.926   1.923  19.865  0.00  0.00    +0.000 A 
ATOM     22  C   UNL     1       1.312   2.754  20.918  0.00  0.00    +0.000 A 
ATOM     23  C   UNL     1       1.993   3.946  20.654  0.00  0.00    +0.000 A 
ATOM     24  F   UNL     1       2.342   4.724  21.691  0.00  0.00    +0.000 F 
ENDBRANCH  15  18
ENDBRANCH   2  14
BRANCH   2  25
ATOM     25  C   UNL     1       4.889   7.192  16.941  0.00  0.00    +0.000 C 
ATOM     26  O   UNL     1       5.023   6.842  15.773  0.00  0.00    +0.000 OA
ATOM     27  N   UNL     1       5.965   7.487  17.749  0.00  0.00    +0.000 N 
ATOM     28  H   UNL     1       5.781   7.737  18.710  0.00  0.00    +0.000 HD
BRANCH  27  29
ATOM     29  C   UNL     1       7.346   7.455  17.281  0.00  0.00    +0.000 C 
BRANCH  29  30
ATOM     30  C   UNL     1       8.282   8.125  18.290  0.00  0.00    +0.000 C 
BRANCH  30  31
ATOM     31  C   UNL     1       8.360   9.659  18.155  0.00  0.00    +0.000 C 
BRANCH  31  32
ATOM     32  N   UNL     1       9.616  10.187  18.719  0.00  0.00    +0.000 NA
ATOM     33  C   UNL     1       9.475  10.766  20.075  0.00  0.00    +0.000 C 
ATOM     34  C   UNL     1       8.873  12.179  20.108  0.00  0.00    +0.000 C 
ATOM     35  O   UNL     1       9.635  13.081  19.299  0.00  0.00    +0.000 OA
ATOM     36  C   UNL     1       9.681  12.616  17.946  0.00  0.00    +0.000 C 
ATOM     37  C   UNL     1      10.269  11.196  17.853  0.00  0.00    +0.000 C 
ENDBRANCH  31  32
ENDBRANCH  30  31
ENDBRANCH  29  30
ENDBRANCH  27  29
ENDBRANCH   2  25
TORSDOF 9
ENDMDL
MODEL 5
REMARK VINA RESULT:      -8.4      5.020      8.306
REMARK  Name = 
REMARK  10 active torsions:
REMARK  status: ('A' for Active; 'I' for Inactive)
REMARK    1  A    between atoms: C_1  and  C_2
REMARK    2  A    between atoms: C_2  and  N_3
REMARK    3  A    between atoms: C_5  and  C_6
REMARK    4  A    between atoms: C_7  and  N_8
REMARK    5  A    between atoms: C_7  and  C_18
REMARK    6  A    between atoms: C_9  and  C_11
REMARK    7  A    between atoms: N_20  and  C_21
REMARK    8  A    between atoms: C_21  and  C_22
REMARK    9  A    between atoms: C_22  and  C_23
REMARK   10  A    between atoms: C_23  and  N_24
REMARK                            x       y       z     vdW  Elec       q    Type
REMARK                         _______ _______ _______ _____ _____    ______ ____
ROOT
ATOM      1  C   UNL     1       3.845   7.577  16.967  0.00  0.00    +0.000 C 
ATOM      2  C   UNL     1       3.071   7.593  18.072  0.00  0.00    +0.000 C 
ENDROOT
BRANCH   1   5
ATOM      3  N   UNL     1       6.165   5.296  15.372  0.00  0.00    +0.000 N 
ATOM      4  C   UNL     1       5.028   6.062  15.348  0.00  0.00    +0.000 A 
ATOM      5  C   UNL     1       4.877   6.654  16.583  0.00  0.00    +0.000 A 
ATOM      6  C   UNL     1       5.888   6.101  17.436  0.00  0.00    +0.000 A 
ATOM      7  C   UNL     1       6.217   6.244  18.803  0.00  0.00    +0.000 A 
ATOM      8  C   UNL     1       7.301   5.538  19.340  0.00  0.00    +0.000 A 
ATOM      9  C   UNL     1       8.064   4.698  18.537  0.00  0.00    +0.000 A 
ATOM     10  C   UNL     1       7.769   4.540  17.180  0.00  0.00    +0.000 A 
ATOM     11  C   UNL     1       6.677   5.248  16.651  0.00  0.00    +0.000 A 
BRANCH   3  13
ATOM     12  C   UNL     1       5.903   3.728  13.455  0.00  0.00    +0.000 C 
ATOM     13  C   UNL     1       6.780   4.731  14.184  0.00  0.00    +0.000 C 
ENDBRANCH   3  13
ENDBRANCH   1   5
BRANCH   2  14
ATOM     14  N   UNL     1       3.063   6.565  19.014  0.00  0.00    +0.000 N 
ATOM     15  C   UNL     1       2.387   5.385  18.755  0.00  0.00    +0.000 C 
ATOM     16  O   UNL     1       1.804   5.163  17.698  0.00  0.00    +0.000 OA
ATOM     17  H   UNL     1       3.006   6.873  19.982  0.00  0.00    +0.000 HD
BRANCH  15  18
ATOM     18  C   UNL     1       2.432   4.318  19.788  0.00  0.00    +0.000 A 
ATOM     19  C   UNL     1       1.297   4.172  20.601  0.00  0.00    +0.000 A 
ATOM     20  C   UNL     1       1.188   3.102  21.490  0.00  0.00    +0.000 A 
ATOM     21  C   UNL     1       2.222   2.174  21.589  0.00  0.00    +0.000 A 
ATOM     22  C   UNL     1       3.379   2.338  20.824  0.00  0.00    +0.000 A 
ATOM     23  C   UNL     1       3.481   3.409  19.933  0.00  0.00    +0.000 A 
ATOM     24  F   UNL     1       4.611   3.540  19.220  0.00  0.00    +0.000 F 
ENDBRANCH  15  18
ENDBRANCH   2  14
BRANCH   2  25
ATOM     25  C   UNL     1       2.098   8.763  18.221  0.00  0.00    +0.000 C 
ATOM     26  O   UNL     1       1.821   9.490  17.272  0.00  0.00    +0.000 OA
ATOM     27  N   UNL     1       1.511   8.914  19.458  0.00  0.00    +0.000 N 
ATOM     28  H   UNL     1       1.811   8.301  20.202  0.00  0.00    +0.000 HD
BRANCH  27  29
ATOM     29  C   UNL     1       0.484   9.911  19.738  0.00  0.00    +0.000 C 
BRANCH  29  30
ATOM     30  C   UNL     1       1.113  11.265  20.075  0.00  0.00    +0.000 C 
BRANCH  30  31
ATOM     31  C   UNL     1       0.121  12.292  20.658  0.00  0.00    +0.000 C 
BRANCH  31  32
ATOM     32  N   UNL     1      -1.154  11.655  21.037  0.00  0.00    +0.000 NA
ATOM     33  C   UNL     1      -2.350  12.288  20.436  0.00  0.00    +0.000 C 
ATOM     34  C   UNL     1      -2.802  13.586  21.124  0.00  0.00    +0.000 C 
ATOM     35  O   UNL     1      -3.045  13.370  22.518  0.00  0.00    +0.000 OA
ATOM     36  C   UNL     1      -1.863  12.879  23.159  0.00  0.00    +0.000 C 
ATOM     37  C   UNL     1      -1.360  11.580  22.502  0.00  0.00    +0.000 C 
ENDBRANCH  31  32
ENDBRANCH  30  31
ENDBRANCH  29  30
ENDBRANCH  27  29
ENDBRANCH   2  25
TORSDOF 9
ENDMDL
MODEL 6
REMARK VINA RESULT:      -8.4      7.930     11.102
REMARK  Name = 
REMARK  10 active torsions:
REMARK  status: ('A' for Active; 'I' for Inactive)
REMARK    1  A    between atoms: C_1  and  C_2
REMARK    2  A    between atoms: C_2  and  N_3
REMARK    3  A    between atoms: C_5  and  C_6
REMARK    4  A    between atoms: C_7  and  N_8
REMARK    5  A    between atoms: C_7  and  C_18
REMARK    6  A    between atoms: C_9  and  C_11
REMARK    7  A    between atoms: N_20  and  C_21
REMARK    8  A    between atoms: C_21  and  C_22
REMARK    9  A    between atoms: C_22  and  C_23
REMARK   10  A    between atoms: C_23  and  N_24
REMARK                            x       y       z     vdW  Elec       q    Type
REMARK                         _______ _______ _______ _____ _____    ______ ____
ROOT
ATOM      1  C   UNL     1       1.192   8.841  21.077  0.00  0.00    +0.000 C 
ATOM      2  C   UNL     1       0.011   9.492  21.115  0.00  0.00    +0.000 C 
ENDROOT
BRANCH   1   5
ATOM      3  N   UNL     1       2.743   7.325  18.174  0.00  0.00    +0.000 N 
ATOM      4  C   UNL     1       2.267   8.422  18.844  0.00  0.00    +0.000 A 
ATOM      5  C   UNL     1       1.744   8.003  20.048  0.00  0.00    +0.000 A 
ATOM      6  C   UNL     1       1.770   6.570  20.036  0.00  0.00    +0.000 A 
ATOM      7  C   UNL     1       1.326   5.564  20.925  0.00  0.00    +0.000 A 
ATOM      8  C   UNL     1       1.510   4.214  20.603  0.00  0.00    +0.000 A 
ATOM      9  C   UNL     1       2.132   3.850  19.413  0.00  0.00    +0.000 A 
ATOM     10  C   UNL     1       2.588   4.820  18.517  0.00  0.00    +0.000 A 
ATOM     11  C   UNL     1       2.395   6.172  18.846  0.00  0.00    +0.000 A 
BRANCH   3  13
ATOM     12  C   UNL     1       5.022   6.977  17.234  0.00  0.00    +0.000 C 
ATOM     13  C   UNL     1       3.586   7.405  16.994  0.00  0.00    +0.000 C 
ENDBRANCH   3  13
ENDBRANCH   1   5
BRANCH   2  14
ATOM     14  N   UNL     1      -0.857   9.565  20.028  0.00  0.00    +0.000 N 
ATOM     15  C   UNL     1      -0.896  10.701  19.238  0.00  0.00    +0.000 C 
ATOM     16  O   UNL     1      -0.162  11.669  19.419  0.00  0.00    +0.000 OA
ATOM     17  H   UNL     1      -1.766   9.131  20.176  0.00  0.00    +0.000 HD
BRANCH  15  18
ATOM     18  C   UNL     1      -1.826  10.712  18.079  0.00  0.00    +0.000 A 
ATOM     19  C   UNL     1      -1.522   9.851  17.013  0.00  0.00    +0.000 A 
ATOM     20  C   UNL     1      -2.417   9.680  15.957  0.00  0.00    +0.000 A 
ATOM     21  C   UNL     1      -3.620  10.382  15.945  0.00  0.00    +0.000 A 
ATOM     22  C   UNL     1      -3.910  11.281  16.973  0.00  0.00    +0.000 A 
ATOM     23  C   UNL     1      -3.011  11.445  18.031  0.00  0.00    +0.000 A 
ATOM     24  F   UNL     1      -3.318  12.324  18.998  0.00  0.00    +0.000 F 
ENDBRANCH  15  18
ENDBRANCH   2  14
BRANCH   2  25
ATOM     25  C   UNL     1      -0.318  10.257  22.399  0.00  0.00    +0.000 C 
ATOM     26  O   UNL     1       0.169   9.935  23.478  0.00  0.00    +0.000 OA
ATOM     27  N   UNL     1      -1.138  11.355  22.260  0.00  0.00    +0.000 N 
ATOM     28  H   UNL     1      -1.529  11.541  21.348  0.00  0.00    +0.000 HD
BRANCH  27  29
ATOM     29  C   UNL     1      -1.463  12.253  23.363  0.00  0.00    +0.000 C 
BRANCH  29  30
ATOM     30  C   UNL     1      -2.977  12.355  23.557  0.00  0.00    +0.000 C 
BRANCH  30  31
ATOM     31  C   UNL     1      -3.759  12.651  22.261  0.00  0.00    +0.000 C 
BRANCH  31  32
ATOM     32  N   UNL     1      -5.198  12.369  22.424  0.00  0.00    +0.000 NA
ATOM     33  C   UNL     1      -6.022  12.724  21.245  0.00  0.00    +0.000 C 
ATOM     34  C   UNL     1      -6.337  14.222  21.112  0.00  0.00    +0.000 C 
ATOM     35  O   UNL     1      -6.980  14.718  22.290  0.00  0.00    +0.000 OA
ATOM     36  C   UNL     1      -6.147  14.508  23.436  0.00  0.00    +0.000 C 
ATOM     37  C   UNL     1      -5.792  13.020  23.614  0.00  0.00    +0.000 C 
ENDBRANCH  31  32
ENDBRANCH  30  31
ENDBRANCH  29  30
ENDBRANCH  27  29
ENDBRANCH   2  25
TORSDOF 9
ENDMDL
MODEL 7
REMARK VINA RESULT:      -8.3      3.622      5.800
REMARK  Name = 
REMARK  10 active torsions:
REMARK  status: ('A' for Active; 'I' for Inactive)
REMARK    1  A    between atoms: C_1  and  C_2
REMARK    2  A    between atoms: C_2  and  N_3
REMARK    3  A    between atoms: C_5  and  C_6
REMARK    4  A    between atoms: C_7  and  N_8
REMARK    5  A    between atoms: C_7  and  C_18
REMARK    6  A    between atoms: C_9  and  C_11
REMARK    7  A    between atoms: N_20  and  C_21
REMARK    8  A    between atoms: C_21  and  C_22
REMARK    9  A    between atoms: C_22  and  C_23
REMARK   10  A    between atoms: C_23  and  N_24
REMARK                            x       y       z     vdW  Elec       q    Type
REMARK                         _______ _______ _______ _____ _____    ______ ____
ROOT
ATOM      1  C   UNL     1       3.242   8.687  17.842  0.00  0.00    +0.000 C 
ATOM      2  C   UNL     1       3.633   7.429  17.553  0.00  0.00    +0.000 C 
ENDROOT
BRANCH   1   5
ATOM      3  N   UNL     1      -0.032  10.158  18.345  0.00  0.00    +0.000 N 
ATOM      4  C   UNL     1       1.098   9.975  17.590  0.00  0.00    +0.000 A 
ATOM      5  C   UNL     1       1.965   9.169  18.294  0.00  0.00    +0.000 A 
ATOM      6  C   UNL     1       1.393   8.980  19.596  0.00  0.00    +0.000 A 
ATOM      7  C   UNL     1       1.813   8.325  20.776  0.00  0.00    +0.000 A 
ATOM      8  C   UNL     1       0.991   8.329  21.910  0.00  0.00    +0.000 A 
ATOM      9  C   UNL     1      -0.242   8.972  21.885  0.00  0.00    +0.000 A 
ATOM     10  C   UNL     1      -0.688   9.624  20.732  0.00  0.00    +0.000 A 
ATOM     11  C   UNL     1       0.145   9.617  19.601  0.00  0.00    +0.000 A 
BRANCH   3  13
ATOM     12  C   UNL     1      -2.182   9.730  17.165  0.00  0.00    +0.000 C 
ATOM     13  C   UNL     1      -1.260  10.737  17.829  0.00  0.00    +0.000 C 
ENDBRANCH   3  13
ENDBRANCH   1   5
BRANCH   2  14
ATOM     14  N   UNL     1       2.842   6.307  17.794  0.00  0.00    +0.000 N 
ATOM     15  C   UNL     1       3.177   5.418  18.801  0.00  0.00    +0.000 C 
ATOM     16  O   UNL     1       4.141   5.578  19.544  0.00  0.00    +0.000 OA
ATOM     17  H   UNL     1       2.459   5.867  16.961  0.00  0.00    +0.000 HD
BRANCH  15  18
ATOM     18  C   UNL     1       2.283   4.253  19.025  0.00  0.00    +0.000 A 
ATOM     19  C   UNL     1       2.489   3.128  18.210  0.00  0.00    +0.000 A 
ATOM     20  C   UNL     1       1.803   1.937  18.451  0.00  0.00    +0.000 A 
ATOM     21  C   UNL     1       0.890   1.862  19.499  0.00  0.00    +0.000 A 
ATOM     22  C   UNL     1       0.637   2.989  20.284  0.00  0.00    +0.000 A 
ATOM     23  C   UNL     1       1.330   4.179  20.040  0.00  0.00    +0.000 A 
ATOM     24  F   UNL     1       1.055   5.244  20.808  0.00  0.00    +0.000 F 
ENDBRANCH  15  18
ENDBRANCH   2  14
BRANCH   2  25
ATOM     25  C   UNL     1       5.057   7.250  17.023  0.00  0.00    +0.000 C 
ATOM     26  O   UNL     1       5.272   6.944  15.855  0.00  0.00    +0.000 OA
ATOM     27  N   UNL     1       6.075   7.511  17.914  0.00  0.00    +0.000 N 
ATOM     28  H   UNL     1       5.825   7.726  18.869  0.00  0.00    +0.000 HD
BRANCH  27  29
ATOM     29  C   UNL     1       7.486   7.492  17.542  0.00  0.00    +0.000 C 
BRANCH  29  30
ATOM     30  C   UNL     1       8.064   8.908  17.517  0.00  0.00    +0.000 C 
BRANCH  30  31
ATOM     31  C   UNL     1       8.889   9.272  18.769  0.00  0.00    +0.000 C 
BRANCH  31  32
ATOM     32  N   UNL     1       8.741  10.698  19.116  0.00  0.00    +0.000 NA
ATOM     33  C   UNL     1       9.000  11.626  17.992  0.00  0.00    +0.000 C 
ATOM     34  C   UNL     1      10.487  11.861  17.685  0.00  0.00    +0.000 C 
ATOM     35  O   UNL     1      11.181  12.336  18.844  0.00  0.00    +0.000 OA
ATOM     36  C   UNL     1      11.060  11.395  19.916  0.00  0.00    +0.000 C 
ATOM     37  C   UNL     1       9.585  11.114  20.260  0.00  0.00    +0.000 C 
ENDBRANCH  31  32
ENDBRANCH  30  31
ENDBRANCH  29  30
ENDBRANCH  27  29
ENDBRANCH   2  25
TORSDOF 9
ENDMDL
MODEL 8
REMARK VINA RESULT:      -8.3      4.804      7.353
REMARK  Name = 
REMARK  10 active torsions:
REMARK  status: ('A' for Active; 'I' for Inactive)
REMARK    1  A    between atoms: C_1  and  C_2
REMARK    2  A    between atoms: C_2  and  N_3
REMARK    3  A    between atoms: C_5  and  C_6
REMARK    4  A    between atoms: C_7  and  N_8
REMARK    5  A    between atoms: C_7  and  C_18
REMARK    6  A    between atoms: C_9  and  C_11
REMARK    7  A    between atoms: N_20  and  C_21
REMARK    8  A    between atoms: C_21  and  C_22
REMARK    9  A    between atoms: C_22  and  C_23
REMARK   10  A    between atoms: C_23  and  N_24
REMARK                            x       y       z     vdW  Elec       q    Type
REMARK                         _______ _______ _______ _____ _____    ______ ____
ROOT
ATOM      1  C   UNL     1       4.009   7.743  16.925  0.00  0.00    +0.000 C 
ATOM      2  C   UNL     1       2.858   7.597  17.613  0.00  0.00    +0.000 C 
ENDROOT
BRANCH   1   5
ATOM      3  N   UNL     1       6.136   5.306  15.290  0.00  0.00    +0.000 N 
ATOM      4  C   UNL     1       5.051   6.144  15.288  0.00  0.00    +0.000 A 
ATOM      5  C   UNL     1       4.969   6.751  16.523  0.00  0.00    +0.000 A 
ATOM      6  C   UNL     1       5.962   6.138  17.354  0.00  0.00    +0.000 A 
ATOM      7  C   UNL     1       6.332   6.266  18.713  0.00  0.00    +0.000 A 
ATOM      8  C   UNL     1       7.380   5.494  19.229  0.00  0.00    +0.000 A 
ATOM      9  C   UNL     1       8.067   4.601  18.413  0.00  0.00    +0.000 A 
ATOM     10  C   UNL     1       7.730   4.455  17.065  0.00  0.00    +0.000 A 
ATOM     11  C   UNL     1       6.674   5.231  16.557  0.00  0.00    +0.000 A 
BRANCH   3  13
ATOM     12  C   UNL     1       5.744   3.714  13.417  0.00  0.00    +0.000 C 
ATOM     13  C   UNL     1       6.684   4.696  14.091  0.00  0.00    +0.000 C 
ENDBRANCH   3  13
ENDBRANCH   1   5
BRANCH   2  14
ATOM     14  N   UNL     1       2.319   6.356  17.948  0.00  0.00    +0.000 N 
ATOM     15  C   UNL     1       2.606   5.775  19.172  0.00  0.00    +0.000 C 
ATOM     16  O   UNL     1       3.300   6.320  20.026  0.00  0.00    +0.000 OA
ATOM     17  H   UNL     1       2.261   5.694  17.177  0.00  0.00    +0.000 HD
BRANCH  15  18
ATOM     18  C   UNL     1       1.985   4.461  19.480  0.00  0.00    +0.000 A 
ATOM     19  C   UNL     1       1.485   3.724  18.394  0.00  0.00    +0.000 A 
ATOM     20  C   UNL     1       1.027   2.419  18.569  0.00  0.00    +0.000 A 
ATOM     21  C   UNL     1       1.046   1.839  19.835  0.00  0.00    +0.000 A 
ATOM     22  C   UNL     1       1.491   2.580  20.932  0.00  0.00    +0.000 A 
ATOM     23  C   UNL     1       1.953   3.887  20.751  0.00  0.00    +0.000 A 
ATOM     24  F   UNL     1       2.365   4.572  21.828  0.00  0.00    +0.000 F 
ENDBRANCH  15  18
ENDBRANCH   2  14
BRANCH   2  25
ATOM     25  C   UNL     1       2.083   8.873  17.946  0.00  0.00    +0.000 C 
ATOM     26  O   UNL     1       2.226   9.898  17.289  0.00  0.00    +0.000 OA
ATOM     27  N   UNL     1       1.178   8.783  18.980  0.00  0.00    +0.000 N 
ATOM     28  H   UNL     1       1.136   7.917  19.499  0.00  0.00    +0.000 HD
BRANCH  27  29
ATOM     29  C   UNL     1       0.284   9.873  19.355  0.00  0.00    +0.000 C 
BRANCH  29  30
ATOM     30  C   UNL     1       0.834  10.642  20.559  0.00  0.00    +0.000 C 
BRANCH  30  31
ATOM     31  C   UNL     1       0.795  12.175  20.398  0.00  0.00    +0.000 C 
BRANCH  31  32
ATOM     32  N   UNL     1       0.874  12.570  18.979  0.00  0.00    +0.000 NA
ATOM     33  C   UNL     1       2.207  13.057  18.558  0.00  0.00    +0.000 C 
ATOM     34  C   UNL     1       2.521  14.503  18.972  0.00  0.00    +0.000 C 
ATOM     35  O   UNL     1       1.525  15.405  18.480  0.00  0.00    +0.000 OA
ATOM     36  C   UNL     1       0.233  15.038  18.977  0.00  0.00    +0.000 C 
ATOM     37  C   UNL     1      -0.130  13.590  18.598  0.00  0.00    +0.000 C 
ENDBRANCH  31  32
ENDBRANCH  30  31
ENDBRANCH  29  30
ENDBRANCH  27  29
ENDBRANCH   2  25
TORSDOF 9
ENDMDL
MODEL 9
REMARK VINA RESULT:      -8.3      7.094     11.058
REMARK  Name = 
REMARK  10 active torsions:
REMARK  status: ('A' for Active; 'I' for Inactive)
REMARK    1  A    between atoms: C_1  and  C_2
REMARK    2  A    between atoms: C_2  and  N_3
REMARK    3  A    between atoms: C_5  and  C_6
REMARK    4  A    between atoms: C_7  and  N_8
REMARK    5  A    between atoms: C_7  and  C_18
REMARK    6  A    between atoms: C_9  and  C_11
REMARK    7  A    between atoms: N_20  and  C_21
REMARK    8  A    between atoms: C_21  and  C_22
REMARK    9  A    between atoms: C_22  and  C_23
REMARK   10  A    between atoms: C_23  and  N_24
REMARK                            x       y       z     vdW  Elec       q    Type
REMARK                         _______ _______ _______ _____ _____    ______ ____
ROOT
ATOM      1  C   UNL     1      -0.591  10.335  18.898  0.00  0.00    +0.000 C 
ATOM      2  C   UNL     1       0.634  10.687  18.458  0.00  0.00    +0.000 C 
ENDROOT
BRANCH   1   5
ATOM      3  N   UNL     1      -2.988  12.580  20.432  0.00  0.00    +0.000 N 
ATOM      4  C   UNL     1      -1.816  11.869  20.469  0.00  0.00    +0.000 A 
ATOM      5  C   UNL     1      -1.698  11.164  19.290  0.00  0.00    +0.000 A 
ATOM      6  C   UNL     1      -2.927  11.343  18.575  0.00  0.00    +0.000 A 
ATOM      7  C   UNL     1      -3.448  10.839  17.361  0.00  0.00    +0.000 A 
ATOM      8  C   UNL     1      -4.725  11.223  16.934  0.00  0.00    +0.000 A 
ATOM      9  C   UNL     1      -5.489  12.103  17.693  0.00  0.00    +0.000 A 
ATOM     10  C   UNL     1      -5.000  12.623  18.895  0.00  0.00    +0.000 A 
ATOM     11  C   UNL     1      -3.720  12.229  19.318  0.00  0.00    +0.000 A 
BRANCH   3  13
ATOM     12  C   UNL     1      -4.149  13.145  22.561  0.00  0.00    +0.000 C 
ATOM     13  C   UNL     1      -3.324  13.626  21.381  0.00  0.00    +0.000 C 
ENDBRANCH   3  13
ENDBRANCH   1   5
BRANCH   2  14
ATOM     14  N   UNL     1       0.994  12.002  18.169  0.00  0.00    +0.000 N 
ATOM     15  C   UNL     1       1.566  12.802  19.144  0.00  0.00    +0.000 C 
ATOM     16  O   UNL     1       1.819  12.401  20.277  0.00  0.00    +0.000 OA
ATOM     17  H   UNL     1       0.353  12.495  17.552  0.00  0.00    +0.000 HD
BRANCH  15  18
ATOM     18  C   UNL     1       1.949  14.188  18.771  0.00  0.00    +0.000 A 
ATOM     19  C   UNL     1       3.163  14.349  18.085  0.00  0.00    +0.000 A 
ATOM     20  C   UNL     1       3.527  15.589  17.560  0.00  0.00    +0.000 A 
ATOM     21  C   UNL     1       2.688  16.688  17.730  0.00  0.00    +0.000 A 
ATOM     22  C   UNL     1       1.503  16.553  18.456  0.00  0.00    +0.000 A 
ATOM     23  C   UNL     1       1.142  15.307  18.976  0.00  0.00    +0.000 A 
ATOM     24  F   UNL     1       0.000  15.216  19.676  0.00  0.00    +0.000 F 
ENDBRANCH  15  18
ENDBRANCH   2  14
BRANCH   2  25
ATOM     25  C   UNL     1       1.624   9.554  18.183  0.00  0.00    +0.000 C 
ATOM     26  O   UNL     1       2.450   9.631  17.279  0.00  0.00    +0.000 OA
ATOM     27  N   UNL     1       1.572   8.479  19.042  0.00  0.00    +0.000 N 
ATOM     28  H   UNL     1       0.845   8.467  19.742  0.00  0.00    +0.000 HD
BRANCH  27  29
ATOM     29  C   UNL     1       2.514   7.365  18.984  0.00  0.00    +0.000 C 
BRANCH  29  30
ATOM     30  C   UNL     1       2.209   6.334  20.073  0.00  0.00    +0.000 C 
BRANCH  30  31
ATOM     31  C   UNL     1       2.041   4.894  19.547  0.00  0.00    +0.000 C 
BRANCH  31  32
ATOM     32  N   UNL     1       3.141   4.520  18.638  0.00  0.00    +0.000 NA
ATOM     33  C   UNL     1       2.718   3.701  17.479  0.00  0.00    +0.000 C 
ATOM     34  C   UNL     1       2.483   2.216  17.797  0.00  0.00    +0.000 C 
ATOM     35  O   UNL     1       3.650   1.625  18.378  0.00  0.00    +0.000 OA
ATOM     36  C   UNL     1       4.011   2.316  19.579  0.00  0.00    +0.000 C 
ATOM     37  C   UNL     1       4.251   3.815  19.321  0.00  0.00    +0.000 C 
ENDBRANCH  31  32
ENDBRANCH  30  31
ENDBRANCH  29  30
ENDBRANCH  27  29
ENDBRANCH   2  25
TORSDOF 9
ENDMDL
