MODEL 1
REMARK VINA RESULT:      -8.7      0.000      0.000
REMARK  Name = 
REMARK  4 active torsions:
REMARK  status: ('A' for Active; 'I' for Inactive)
REMARK    1  A    between atoms: C_2  and  C_14
REMARK    2  A    between atoms: C_6  and  C_7
REMARK    3  A    between atoms: C_18  and  S_19
REMARK    4  A    between atoms: S_19  and  N_22
REMARK                            x       y       z     vdW  Elec       q    Type
REMARK                         _______ _______ _______ _____ _____    ______ ____
ROOT
ATOM      1  C   UNL     1       0.522   9.412  21.036  0.00  0.00    +0.000 A 
ATOM      2  C   UNL     1       0.366   9.201  22.414  0.00  0.00    +0.000 A 
ATOM      3  C   UNL     1      -0.490  10.026  23.148  0.00  0.00    +0.000 A 
ATOM      4  C   UNL     1      -1.185  11.060  22.513  0.00  0.00    +0.000 A 
ATOM      5  C   UNL     1      -1.002  11.289  21.142  0.00  0.00    +0.000 A 
ATOM      6  C   UNL     1      -0.161  10.461  20.399  0.00  0.00    +0.000 A 
ENDROOT
BRANCH   1   8
ATOM      7  O   UNL     1       1.787   8.994  19.137  0.00  0.00    +0.000 OA
ATOM      8  C   UNL     1       1.414   8.549  20.216  0.00  0.00    +0.000 C 
ATOM      9  N   UNL     1       1.662   7.303  20.745  0.00  0.00    +0.000 N 
ATOM     10  C   UNL     1       2.362   6.357  20.045  0.00  0.00    +0.000 A 
ATOM     11  N   UNL     1       3.081   6.493  18.963  0.00  0.00    +0.000 NA
ATOM     12  C   UNL     1       3.526   5.252  18.537  0.00  0.00    +0.000 A 
ATOM     13  C   UNL     1       3.138   4.192  19.335  0.00  0.00    +0.000 A 
ATOM     14  S   UNL     1       2.242   4.778  20.681  0.00  0.00    +0.000 S 
ATOM     15  H   UNL     1       1.181   6.980  21.572  0.00  0.00    +0.000 HD
BRANCH  12  16
ATOM     16  C   UNL     1       4.354   5.124  17.295  0.00  0.00    +0.000 A 
ATOM     17  C   UNL     1       4.642   3.908  16.707  0.00  0.00    +0.000 A 
ATOM     18  C   UNL     1       5.441   4.048  15.535  0.00  0.00    +0.000 A 
ATOM     19  C   UNL     1       5.749   5.365  15.278  0.00  0.00    +0.000 A 
ATOM     20  S   UNL     1       5.052   6.422  16.432  0.00  0.00    +0.000 S 
ENDBRANCH  12  16
ENDBRANCH   1   8
BRANCH   5  21
ATOM     21  S   UNL     1      -1.979  12.540  20.318  0.00  0.00    +0.000 S 
ATOM     22  O   UNL     1      -3.025  12.941  21.238  0.00  0.00    +0.000 OA
ATOM     23  O   UNL     1      -1.047  13.511  19.786  0.00  0.00    +0.000 OA
BRANCH  21  24
ATOM     24  N   UNL     1      -2.704  11.718  18.998  0.00  0.00    +0.000 NA
ATOM     25  C   UNL     1      -4.175  11.890  18.883  0.00  0.00    +0.000 C 
ATOM     26  C   UNL     1      -4.767  11.004  17.792  0.00  0.00    +0.000 C 
ATOM     27  C   UNL     1      -4.050  11.219  16.468  0.00  0.00    +0.000 C 
ATOM     28  C   UNL     1      -2.573  10.902  16.645  0.00  0.00    +0.000 C 
ATOM     29  C   UNL     1      -1.946  11.783  17.721  0.00  0.00    +0.000 C 
ENDBRANCH  21  24
ENDBRANCH   5  21
TORSDOF 4
ENDMDL
MODEL 2
REMARK VINA RESULT:      -8.7      3.291      9.719
REMARK  Name = 
REMARK  4 active torsions:
REMARK  status: ('A' for Active; 'I' for Inactive)
REMARK    1  A    between atoms: C_2  and  C_14
REMARK    2  A    between atoms: C_6  and  C_7
REMARK    3  A    between atoms: C_18  and  S_19
REMARK    4  A    between atoms: S_19  and  N_22
REMARK                            x       y       z     vdW  Elec       q    Type
REMARK                         _______ _______ _______ _____ _____    ______ ____
ROOT
ATOM      1  C   UNL     1       3.294   6.423  17.855  0.00  0.00    +0.000 A 
ATOM      2  C   UNL     1       2.715   5.171  18.112  0.00  0.00    +0.000 A 
ATOM      3  C   UNL     1       3.410   4.006  17.780  0.00  0.00    +0.000 A 
ATOM      4  C   UNL     1       4.676   4.086  17.190  0.00  0.00    +0.000 A 
ATOM      5  C   UNL     1       5.237   5.338  16.905  0.00  0.00    +0.000 A 
ATOM      6  C   UNL     1       4.557   6.507  17.247  0.00  0.00    +0.000 A 
ENDROOT
BRANCH   1   8
ATOM      7  O   UNL     1       2.664   8.608  17.399  0.00  0.00    +0.000 OA
ATOM      8  C   UNL     1       2.594   7.687  18.205  0.00  0.00    +0.000 C 
ATOM      9  N   UNL     1       1.997   7.697  19.445  0.00  0.00    +0.000 N 
ATOM     10  C   UNL     1       1.423   8.831  19.952  0.00  0.00    +0.000 A 
ATOM     11  N   UNL     1       1.123   9.949  19.346  0.00  0.00    +0.000 NA
ATOM     12  C   UNL     1       0.654  10.871  20.267  0.00  0.00    +0.000 A 
ATOM     13  C   UNL     1       0.592  10.409  21.569  0.00  0.00    +0.000 A 
ATOM     14  S   UNL     1       1.083   8.762  21.623  0.00  0.00    +0.000 S 
ATOM     15  H   UNL     1       2.127   6.935  20.094  0.00  0.00    +0.000 HD
BRANCH  12  16
ATOM     16  C   UNL     1       0.263  12.251  19.833  0.00  0.00    +0.000 A 
ATOM     17  C   UNL     1      -0.751  12.968  20.437  0.00  0.00    +0.000 A 
ATOM     18  C   UNL     1      -0.929  14.255  19.850  0.00  0.00    +0.000 A 
ATOM     19  C   UNL     1      -0.055  14.468  18.808  0.00  0.00    +0.000 A 
ATOM     20  S   UNL     1       0.988  13.132  18.563  0.00  0.00    +0.000 S 
ENDBRANCH  12  16
ENDBRANCH   1   8
BRANCH   5  21
ATOM     21  S   UNL     1       6.901   5.431  16.256  0.00  0.00    +0.000 S 
ATOM     22  O   UNL     1       7.340   6.806  16.400  0.00  0.00    +0.000 OA
ATOM     23  O   UNL     1       7.646   4.348  16.861  0.00  0.00    +0.000 OA
BRANCH  21  24
ATOM     24  N   UNL     1       6.729   5.090  14.583  0.00  0.00    +0.000 NA
ATOM     25  C   UNL     1       7.911   5.429  13.748  0.00  0.00    +0.000 C 
ATOM     26  C   UNL     1       7.625   5.253  12.261  0.00  0.00    +0.000 C 
ATOM     27  C   UNL     1       7.088   3.860  11.971  0.00  0.00    +0.000 C 
ATOM     28  C   UNL     1       5.812   3.644  12.771  0.00  0.00    +0.000 C 
ATOM     29  C   UNL     1       6.066   3.799  14.267  0.00  0.00    +0.000 C 
ENDBRANCH  21  24
ENDBRANCH   5  21
TORSDOF 4
ENDMDL
MODEL 3
REMARK VINA RESULT:      -8.4      1.147      1.306
REMARK  Name = 
REMARK  4 active torsions:
REMARK  status: ('A' for Active; 'I' for Inactive)
REMARK    1  A    between atoms: C_2  and  C_14
REMARK    2  A    between atoms: C_6  and  C_7
REMARK    3  A    between atoms: C_18  and  S_19
REMARK    4  A    between atoms: S_19  and  N_22
REMARK                            x       y       z     vdW  Elec       q    Type
REMARK                         _______ _______ _______ _____ _____    ______ ____
ROOT
ATOM      1  C   UNL     1       1.190   8.749  20.206  0.00  0.00    +0.000 A 
ATOM      2  C   UNL     1       0.808   8.399  21.510  0.00  0.00    +0.000 A 
ATOM      3  C   UNL     1      -0.107   9.198  22.200  0.00  0.00    +0.000 A 
ATOM      4  C   UNL     1      -0.637  10.343  21.596  0.00  0.00    +0.000 A 
ATOM      5  C   UNL     1      -0.229  10.707  20.307  0.00  0.00    +0.000 A 
ATOM      6  C   UNL     1       0.673   9.907  19.604  0.00  0.00    +0.000 A 
ENDROOT
BRANCH   1   8
ATOM      7  O   UNL     1       2.543   8.369  18.361  0.00  0.00    +0.000 OA
ATOM      8  C   UNL     1       2.152   7.920  19.432  0.00  0.00    +0.000 C 
ATOM      9  N   UNL     1       2.440   6.694  19.988  0.00  0.00    +0.000 N 
ATOM     10  C   UNL     1       3.210   5.775  19.328  0.00  0.00    +0.000 A 
ATOM     11  N   UNL     1       3.961   5.931  18.270  0.00  0.00    +0.000 NA
ATOM     12  C   UNL     1       4.480   4.708  17.879  0.00  0.00    +0.000 A 
ATOM     13  C   UNL     1       4.115   3.641  18.678  0.00  0.00    +0.000 A 
ATOM     14  S   UNL     1       3.143   4.200  19.982  0.00  0.00    +0.000 S 
ATOM     15  H   UNL     1       1.945   6.359  20.801  0.00  0.00    +0.000 HD
BRANCH  12  16
ATOM     16  C   UNL     1       5.360   4.604  16.670  0.00  0.00    +0.000 A 
ATOM     17  C   UNL     1       4.876   4.287  15.417  0.00  0.00    +0.000 A 
ATOM     18  C   UNL     1       5.905   4.255  14.431  0.00  0.00    +0.000 A 
ATOM     19  C   UNL     1       7.141   4.534  14.970  0.00  0.00    +0.000 A 
ATOM     20  S   UNL     1       7.048   4.858  16.649  0.00  0.00    +0.000 S 
ENDBRANCH  12  16
ENDBRANCH   1   8
BRANCH   5  21
ATOM     21  S   UNL     1      -0.995  12.108  19.501  0.00  0.00    +0.000 S 
ATOM     22  O   UNL     1      -1.501  12.978  20.545  0.00  0.00    +0.000 OA
ATOM     23  O   UNL     1      -0.046  12.596  18.524  0.00  0.00    +0.000 OA
BRANCH  21  24
ATOM     24  N   UNL     1      -2.332  11.440  18.658  0.00  0.00    +0.000 NA
ATOM     25  C   UNL     1      -3.650  12.037  18.996  0.00  0.00    +0.000 C 
ATOM     26  C   UNL     1      -4.801  11.286  18.335  0.00  0.00    +0.000 C 
ATOM     27  C   UNL     1      -4.583  11.169  16.834  0.00  0.00    +0.000 C 
ATOM     28  C   UNL     1      -3.274  10.437  16.578  0.00  0.00    +0.000 C 
ATOM     29  C   UNL     1      -2.098  11.171  17.215  0.00  0.00    +0.000 C 
ENDBRANCH  21  24
ENDBRANCH   5  21
TORSDOF 4
ENDMDL
MODEL 4
REMARK VINA RESULT:      -8.3      3.488      9.848
REMARK  Name = 
REMARK  4 active torsions:
REMARK  status: ('A' for Active; 'I' for Inactive)
REMARK    1  A    between atoms: C_2  and  C_14
REMARK    2  A    between atoms: C_6  and  C_7
REMARK    3  A    between atoms: C_18  and  S_19
REMARK    4  A    between atoms: S_19  and  N_22
REMARK                            x       y       z     vdW  Elec       q    Type
REMARK                         _______ _______ _______ _____ _____    ______ ____
ROOT
ATOM      1  C   UNL     1       3.399   5.592  18.286  0.00  0.00    +0.000 A 
ATOM      2  C   UNL     1       2.934   4.269  18.250  0.00  0.00    +0.000 A 
ATOM      3  C   UNL     1       3.675   3.293  17.578  0.00  0.00    +0.000 A 
ATOM      4  C   UNL     1       4.873   3.634  16.943  0.00  0.00    +0.000 A 
ATOM      5  C   UNL     1       5.318   4.963  16.953  0.00  0.00    +0.000 A 
ATOM      6  C   UNL     1       4.592   5.941  17.633  0.00  0.00    +0.000 A 
ENDROOT
BRANCH   1   8
ATOM      7  O   UNL     1       2.027   6.330  20.004  0.00  0.00    +0.000 OA
ATOM      8  C   UNL     1       2.647   6.658  19.000  0.00  0.00    +0.000 C 
ATOM      9  N   UNL     1       2.681   7.895  18.397  0.00  0.00    +0.000 N 
ATOM     10  C   UNL     1       1.935   8.941  18.871  0.00  0.00    +0.000 A 
ATOM     11  N   UNL     1       1.302   9.057  20.008  0.00  0.00    +0.000 NA
ATOM     12  C   UNL     1       0.587  10.244  20.027  0.00  0.00    +0.000 A 
ATOM     13  C   UNL     1       0.716  11.016  18.888  0.00  0.00    +0.000 A 
ATOM     14  S   UNL     1       1.806  10.259  17.795  0.00  0.00    +0.000 S 
ATOM     15  H   UNL     1       3.099   8.023  17.488  0.00  0.00    +0.000 HD
BRANCH  12  16
ATOM     16  C   UNL     1      -0.252  10.609  21.214  0.00  0.00    +0.000 A 
ATOM     17  C   UNL     1      -1.075  11.717  21.238  0.00  0.00    +0.000 A 
ATOM     18  C   UNL     1      -1.773  11.848  22.473  0.00  0.00    +0.000 A 
ATOM     19  C   UNL     1      -1.446  10.843  23.356  0.00  0.00    +0.000 A 
ATOM     20  S   UNL     1      -0.325   9.738  22.681  0.00  0.00    +0.000 S 
ENDBRANCH  12  16
ENDBRANCH   1   8
BRANCH   5  21
ATOM     21  S   UNL     1       6.905   5.368  16.234  0.00  0.00    +0.000 S 
ATOM     22  O   UNL     1       7.109   6.791  16.422  0.00  0.00    +0.000 OA
ATOM     23  O   UNL     1       7.854   4.409  16.756  0.00  0.00    +0.000 OA
BRANCH  21  24
ATOM     24  N   UNL     1       6.707   5.065  14.557  0.00  0.00    +0.000 NA
ATOM     25  C   UNL     1       7.930   5.261  13.735  0.00  0.00    +0.000 C 
ATOM     26  C   UNL     1       7.638   5.134  12.244  0.00  0.00    +0.000 C 
ATOM     27  C   UNL     1       6.933   3.822  11.937  0.00  0.00    +0.000 C 
ATOM     28  C   UNL     1       5.633   3.760  12.724  0.00  0.00    +0.000 C 
ATOM     29  C   UNL     1       5.891   3.869  14.224  0.00  0.00    +0.000 C 
ENDBRANCH  21  24
ENDBRANCH   5  21
TORSDOF 4
ENDMDL
MODEL 5
REMARK VINA RESULT:      -8.1      0.843      1.130
REMARK  Name = 
REMARK  4 active torsions:
REMARK  status: ('A' for Active; 'I' for Inactive)
REMARK    1  A    between atoms: C_2  and  C_14
REMARK    2  A    between atoms: C_6  and  C_7
REMARK    3  A    between atoms: C_18  and  S_19
REMARK    4  A    between atoms: S_19  and  N_22
REMARK                            x       y       z     vdW  Elec       q    Type
REMARK                         _______ _______ _______ _____ _____    ______ ____
ROOT
ATOM      1  C   UNL     1       0.753   9.341  20.542  0.00  0.00    +0.000 A 
ATOM      2  C   UNL     1       0.464   9.075  21.889  0.00  0.00    +0.000 A 
ATOM      3  C   UNL     1      -0.406   9.915  22.589  0.00  0.00    +0.000 A 
ATOM      4  C   UNL     1      -0.983  11.018  21.952  0.00  0.00    +0.000 A 
ATOM      5  C   UNL     1      -0.667  11.299  20.616  0.00  0.00    +0.000 A 
ATOM      6  C   UNL     1       0.189  10.458  19.905  0.00  0.00    +0.000 A 
ENDROOT
BRANCH   1   8
ATOM      7  O   UNL     1       2.027   8.875  18.661  0.00  0.00    +0.000 OA
ATOM      8  C   UNL     1       1.663   8.465  19.757  0.00  0.00    +0.000 C 
ATOM      9  N   UNL     1       1.938   7.247  20.335  0.00  0.00    +0.000 N 
ATOM     10  C   UNL     1       2.659   6.289  19.674  0.00  0.00    +0.000 A 
ATOM     11  N   UNL     1       3.375   6.396  18.587  0.00  0.00    +0.000 NA
ATOM     12  C   UNL     1       3.847   5.149  18.211  0.00  0.00    +0.000 A 
ATOM     13  C   UNL     1       3.481   4.114  19.051  0.00  0.00    +0.000 A 
ATOM     14  S   UNL     1       2.573   4.735  20.373  0.00  0.00    +0.000 S 
ATOM     15  H   UNL     1       1.464   6.947  21.174  0.00  0.00    +0.000 HD
BRANCH  12  16
ATOM     16  C   UNL     1       4.678   4.990  16.975  0.00  0.00    +0.000 A 
ATOM     17  C   UNL     1       5.098   3.761  16.507  0.00  0.00    +0.000 A 
ATOM     18  C   UNL     1       5.870   3.869  15.313  0.00  0.00    +0.000 A 
ATOM     19  C   UNL     1       6.027   5.180  14.922  0.00  0.00    +0.000 A 
ATOM     20  S   UNL     1       5.222   6.263  15.976  0.00  0.00    +0.000 S 
ENDBRANCH  12  16
ENDBRANCH   1   8
BRANCH   5  21
ATOM     21  S   UNL     1      -1.495  12.645  19.778  0.00  0.00    +0.000 S 
ATOM     22  O   UNL     1      -1.585  13.745  20.719  0.00  0.00    +0.000 OA
ATOM     23  O   UNL     1      -0.830  12.813  18.504  0.00  0.00    +0.000 OA
BRANCH  21  24
ATOM     24  N   UNL     1      -3.078  12.056  19.480  0.00  0.00    +0.000 NA
ATOM     25  C   UNL     1      -4.174  12.885  20.045  0.00  0.00    +0.000 C 
ATOM     26  C   UNL     1      -5.534  12.217  19.883  0.00  0.00    +0.000 C 
ATOM     27  C   UNL     1      -5.783  11.834  18.432  0.00  0.00    +0.000 C 
ATOM     28  C   UNL     1      -4.685  10.887  17.973  0.00  0.00    +0.000 C 
ATOM     29  C   UNL     1      -3.309  11.532  18.108  0.00  0.00    +0.000 C 
ENDBRANCH  21  24
ENDBRANCH   5  21
TORSDOF 4
ENDMDL
MODEL 6
REMARK VINA RESULT:      -8.1      2.256      3.316
REMARK  Name = 
REMARK  4 active torsions:
REMARK  status: ('A' for Active; 'I' for Inactive)
REMARK    1  A    between atoms: C_2  and  C_14
REMARK    2  A    between atoms: C_6  and  C_7
REMARK    3  A    between atoms: C_18  and  S_19
REMARK    4  A    between atoms: S_19  and  N_22
REMARK                            x       y       z     vdW  Elec       q    Type
REMARK                         _______ _______ _______ _____ _____    ______ ____
ROOT
ATOM      1  C   UNL     1       0.493   9.729  18.770  0.00  0.00    +0.000 A 
ATOM      2  C   UNL     1      -0.518  10.069  17.860  0.00  0.00    +0.000 A 
ATOM      3  C   UNL     1      -1.527  10.956  18.246  0.00  0.00    +0.000 A 
ATOM      4  C   UNL     1      -1.530  11.499  19.534  0.00  0.00    +0.000 A 
ATOM      5  C   UNL     1      -0.536  11.132  20.451  0.00  0.00    +0.000 A 
ATOM      6  C   UNL     1       0.483  10.259  20.070  0.00  0.00    +0.000 A 
ENDROOT
BRANCH   1   8
ATOM      7  O   UNL     1       2.127   8.973  17.308  0.00  0.00    +0.000 OA
ATOM      8  C   UNL     1       1.592   8.798  18.396  0.00  0.00    +0.000 C 
ATOM      9  N   UNL     1       1.833   7.792  19.303  0.00  0.00    +0.000 N 
ATOM     10  C   UNL     1       2.728   6.791  19.036  0.00  0.00    +0.000 A 
ATOM     11  N   UNL     1       3.627   6.714  18.091  0.00  0.00    +0.000 NA
ATOM     12  C   UNL     1       4.243   5.474  18.129  0.00  0.00    +0.000 A 
ATOM     13  C   UNL     1       3.797   4.636  19.133  0.00  0.00    +0.000 A 
ATOM     14  S   UNL     1       2.616   5.448  20.084  0.00  0.00    +0.000 S 
ATOM     15  H   UNL     1       1.232   7.650  20.101  0.00  0.00    +0.000 HD
BRANCH  12  16
ATOM     16  C   UNL     1       5.301   5.118  17.129  0.00  0.00    +0.000 A 
ATOM     17  C   UNL     1       5.026   4.453  15.951  0.00  0.00    +0.000 A 
ATOM     18  C   UNL     1       6.196   4.234  15.166  0.00  0.00    +0.000 A 
ATOM     19  C   UNL     1       7.325   4.725  15.781  0.00  0.00    +0.000 A 
ATOM     20  S   UNL     1       6.965   5.469  17.281  0.00  0.00    +0.000 S 
ENDBRANCH  12  16
ENDBRANCH   1   8
BRANCH   5  21
ATOM     21  S   UNL     1      -0.484  11.918  22.058  0.00  0.00    +0.000 S 
ATOM     22  O   UNL     1      -0.351  10.864  23.045  0.00  0.00    +0.000 OA
ATOM     23  O   UNL     1       0.496  12.979  21.970  0.00  0.00    +0.000 OA
BRANCH  21  24
ATOM     24  N   UNL     1      -2.032  12.635  22.236  0.00  0.00    +0.000 NA
ATOM     25  C   UNL     1      -2.789  12.205  23.441  0.00  0.00    +0.000 C 
ATOM     26  C   UNL     1      -4.211  12.754  23.444  0.00  0.00    +0.000 C 
ATOM     27  C   UNL     1      -4.212  14.264  23.264  0.00  0.00    +0.000 C 
ATOM     28  C   UNL     1      -3.529  14.609  21.949  0.00  0.00    +0.000 C 
ATOM     29  C   UNL     1      -2.096  14.085  21.919  0.00  0.00    +0.000 C 
ENDBRANCH  21  24
ENDBRANCH   5  21
TORSDOF 4
ENDMDL
MODEL 7
REMARK VINA RESULT:      -8.1      1.092      1.478
REMARK  Name = 
REMARK  4 active torsions:
REMARK  status: ('A' for Active; 'I' for Inactive)
REMARK    1  A    between atoms: C_2  and  C_14
REMARK    2  A    between atoms: C_6  and  C_7
REMARK    3  A    between atoms: C_18  and  S_19
REMARK    4  A    between atoms: S_19  and  N_22
REMARK                            x       y       z     vdW  Elec       q    Type
REMARK                         _______ _______ _______ _____ _____    ______ ____
ROOT
ATOM      1  C   UNL     1       1.066   8.876  20.457  0.00  0.00    +0.000 A 
ATOM      2  C   UNL     1       0.515   8.512  21.694  0.00  0.00    +0.000 A 
ATOM      3  C   UNL     1      -0.393   9.366  22.326  0.00  0.00    +0.000 A 
ATOM      4  C   UNL     1      -0.747  10.581  21.730  0.00  0.00    +0.000 A 
ATOM      5  C   UNL     1      -0.169  10.956  20.510  0.00  0.00    +0.000 A 
ATOM      6  C   UNL     1       0.727  10.103  19.865  0.00  0.00    +0.000 A 
ENDROOT
BRANCH   1   8
ATOM      7  O   UNL     1       2.526   8.421  18.713  0.00  0.00    +0.000 OA
ATOM      8  C   UNL     1       2.026   7.991  19.745  0.00  0.00    +0.000 C 
ATOM      9  N   UNL     1       2.189   6.744  20.305  0.00  0.00    +0.000 N 
ATOM     10  C   UNL     1       2.944   5.780  19.692  0.00  0.00    +0.000 A 
ATOM     11  N   UNL     1       3.781   5.894  18.695  0.00  0.00    +0.000 NA
ATOM     12  C   UNL     1       4.246   4.642  18.328  0.00  0.00    +0.000 A 
ATOM     13  C   UNL     1       3.751   3.595  19.083  0.00  0.00    +0.000 A 
ATOM     14  S   UNL     1       2.723   4.208  20.319  0.00  0.00    +0.000 S 
ATOM     15  H   UNL     1       1.614   6.436  21.075  0.00  0.00    +0.000 HD
BRANCH  12  16
ATOM     16  C   UNL     1       5.204   4.489  17.186  0.00  0.00    +0.000 A 
ATOM     17  C   UNL     1       4.816   4.056  15.934  0.00  0.00    +0.000 A 
ATOM     18  C   UNL     1       5.907   3.999  15.018  0.00  0.00    +0.000 A 
ATOM     19  C   UNL     1       7.093   4.375  15.608  0.00  0.00    +0.000 A 
ATOM     20  S   UNL     1       6.879   4.819  17.248  0.00  0.00    +0.000 S 
ENDBRANCH  12  16
ENDBRANCH   1   8
BRANCH   5  21
ATOM     21  S   UNL     1      -0.711  12.457  19.702  0.00  0.00    +0.000 S 
ATOM     22  O   UNL     1      -1.314  13.297  20.719  0.00  0.00    +0.000 OA
ATOM     23  O   UNL     1       0.406  12.932  18.914  0.00  0.00    +0.000 OA
BRANCH  21  24
ATOM     24  N   UNL     1      -1.943  11.943  18.624  0.00  0.00    +0.000 NA
ATOM     25  C   UNL     1      -1.570  10.810  17.737  0.00  0.00    +0.000 C 
ATOM     26  C   UNL     1      -2.650  10.520  16.701  0.00  0.00    +0.000 C 
ATOM     27  C   UNL     1      -4.002  10.317  17.367  0.00  0.00    +0.000 C 
ATOM     28  C   UNL     1      -4.363  11.569  18.151  0.00  0.00    +0.000 C 
ATOM     29  C   UNL     1      -3.308  11.881  19.208  0.00  0.00    +0.000 C 
ENDBRANCH  21  24
ENDBRANCH   5  21
TORSDOF 4
ENDMDL
MODEL 8
REMARK VINA RESULT:      -8.1      1.857      2.716
REMARK  Name = 
REMARK  4 active torsions:
REMARK  status: ('A' for Active; 'I' for Inactive)
REMARK    1  A    between atoms: C_2  and  C_14
REMARK    2  A    between atoms: C_6  and  C_7
REMARK    3  A    between atoms: C_18  and  S_19
REMARK    4  A    between atoms: S_19  and  N_22
REMARK                            x       y       z     vdW  Elec       q    Type
REMARK                         _______ _______ _______ _____ _____    ______ ____
ROOT
ATOM      1  C   UNL     1       0.483   9.439  21.154  0.00  0.00    +0.000 A 
ATOM      2  C   UNL     1       0.311   9.184  22.523  0.00  0.00    +0.000 A 
ATOM      3  C   UNL     1      -0.534  10.002  23.278  0.00  0.00    +0.000 A 
ATOM      4  C   UNL     1      -1.202  11.072  22.673  0.00  0.00    +0.000 A 
ATOM      5  C   UNL     1      -1.002  11.343  21.313  0.00  0.00    +0.000 A 
ATOM      6  C   UNL     1      -0.172  10.523  20.549  0.00  0.00    +0.000 A 
ENDROOT
BRANCH   1   8
ATOM      7  O   UNL     1       1.723   9.044  19.235  0.00  0.00    +0.000 OA
ATOM      8  C   UNL     1       1.363   8.585  20.312  0.00  0.00    +0.000 C 
ATOM      9  N   UNL     1       1.617   7.332  20.822  0.00  0.00    +0.000 N 
ATOM     10  C   UNL     1       2.307   6.395  20.102  0.00  0.00    +0.000 A 
ATOM     11  N   UNL     1       3.013   6.544  19.012  0.00  0.00    +0.000 NA
ATOM     12  C   UNL     1       3.450   5.308  18.565  0.00  0.00    +0.000 A 
ATOM     13  C   UNL     1       3.072   4.239  19.355  0.00  0.00    +0.000 A 
ATOM     14  S   UNL     1       2.194   4.808  20.720  0.00  0.00    +0.000 S 
ATOM     15  H   UNL     1       1.147   7.000  21.651  0.00  0.00    +0.000 HD
BRANCH  12  16
ATOM     16  C   UNL     1       4.263   5.195  17.311  0.00  0.00    +0.000 A 
ATOM     17  C   UNL     1       4.500   3.992  16.677  0.00  0.00    +0.000 A 
ATOM     18  C   UNL     1       5.293   4.145  15.502  0.00  0.00    +0.000 A 
ATOM     19  C   UNL     1       5.648   5.459  15.290  0.00  0.00    +0.000 A 
ATOM     20  S   UNL     1       5.001   6.497  16.489  0.00  0.00    +0.000 S 
ENDBRANCH  12  16
ENDBRANCH   1   8
BRANCH   5  21
ATOM     21  S   UNL     1      -1.946  12.642  20.525  0.00  0.00    +0.000 S 
ATOM     22  O   UNL     1      -1.054  13.772  20.349  0.00  0.00    +0.000 OA
ATOM     23  O   UNL     1      -2.613  12.040  19.390  0.00  0.00    +0.000 OA
BRANCH  21  24
ATOM     24  N   UNL     1      -3.140  13.068  21.680  0.00  0.00    +0.000 NA
ATOM     25  C   UNL     1      -2.937  14.386  22.337  0.00  0.00    +0.000 C 
ATOM     26  C   UNL     1      -3.939  14.620  23.461  0.00  0.00    +0.000 C 
ATOM     27  C   UNL     1      -5.365  14.428  22.969  0.00  0.00    +0.000 C 
ATOM     28  C   UNL     1      -5.518  13.015  22.428  0.00  0.00    +0.000 C 
ATOM     29  C   UNL     1      -4.538  12.751  21.289  0.00  0.00    +0.000 C 
ENDBRANCH  21  24
ENDBRANCH   5  21
TORSDOF 4
ENDMDL
MODEL 9
REMARK VINA RESULT:      -7.9      1.969      2.695
REMARK  Name = 
REMARK  4 active torsions:
REMARK  status: ('A' for Active; 'I' for Inactive)
REMARK    1  A    between atoms: C_2  and  C_14
REMARK    2  A    between atoms: C_6  and  C_7
REMARK    3  A    between atoms: C_18  and  S_19
REMARK    4  A    between atoms: S_19  and  N_22
REMARK                            x       y       z     vdW  Elec       q    Type
REMARK                         _______ _______ _______ _____ _____    ______ ____
ROOT
ATOM      1  C   UNL     1       0.558   9.388  21.051  0.00  0.00    +0.000 A 
ATOM      2  C   UNL     1       0.464   9.204  22.439  0.00  0.00    +0.000 A 
ATOM      3  C   UNL     1      -0.386  10.021  23.189  0.00  0.00    +0.000 A 
ATOM      4  C   UNL     1      -1.137  11.019  22.560  0.00  0.00    +0.000 A 
ATOM      5  C   UNL     1      -1.016  11.221  21.179  0.00  0.00    +0.000 A 
ATOM      6  C   UNL     1      -0.181  10.401  20.420  0.00  0.00    +0.000 A 
ENDROOT
BRANCH   1   8
ATOM      7  O   UNL     1       1.797   8.984  19.132  0.00  0.00    +0.000 OA
ATOM      8  C   UNL     1       1.442   8.532  20.215  0.00  0.00    +0.000 C 
ATOM      9  N   UNL     1       1.704   7.285  20.735  0.00  0.00    +0.000 N 
ATOM     10  C   UNL     1       2.398   6.346  20.021  0.00  0.00    +0.000 A 
ATOM     11  N   UNL     1       3.100   6.489  18.928  0.00  0.00    +0.000 NA
ATOM     12  C   UNL     1       3.544   5.252  18.491  0.00  0.00    +0.000 A 
ATOM     13  C   UNL     1       3.174   4.187  19.290  0.00  0.00    +0.000 A 
ATOM     14  S   UNL     1       2.296   4.764  20.652  0.00  0.00    +0.000 S 
ATOM     15  H   UNL     1       1.238   6.957  21.567  0.00  0.00    +0.000 HD
BRANCH  12  16
ATOM     16  C   UNL     1       4.355   5.133  17.236  0.00  0.00    +0.000 A 
ATOM     17  C   UNL     1       4.636   3.922  16.637  0.00  0.00    +0.000 A 
ATOM     18  C   UNL     1       5.417   4.070  15.454  0.00  0.00    +0.000 A 
ATOM     19  C   UNL     1       5.718   5.389  15.200  0.00  0.00    +0.000 A 
ATOM     20  S   UNL     1       5.037   6.438  16.370  0.00  0.00    +0.000 S 
ENDBRANCH  12  16
ENDBRANCH   1   8
BRANCH   5  21
ATOM     21  S   UNL     1      -2.062  12.424  20.368  0.00  0.00    +0.000 S 
ATOM     22  O   UNL     1      -2.390  11.893  19.059  0.00  0.00    +0.000 OA
ATOM     23  O   UNL     1      -3.105  12.770  21.310  0.00  0.00    +0.000 OA
BRANCH  21  24
ATOM     24  N   UNL     1      -1.055  13.798  20.159  0.00  0.00    +0.000 NA
ATOM     25  C   UNL     1      -0.302  13.836  18.878  0.00  0.00    +0.000 C 
ATOM     26  C   UNL     1       0.688  14.993  18.836  0.00  0.00    +0.000 C 
ATOM     27  C   UNL     1      -0.003  16.313  19.145  0.00  0.00    +0.000 C 
ATOM     28  C   UNL     1      -0.640  16.229  20.523  0.00  0.00    +0.000 C 
ATOM     29  C   UNL     1      -1.650  15.088  20.595  0.00  0.00    +0.000 C 
ENDBRANCH  21  24
ENDBRANCH   5  21
TORSDOF 4
ENDMDL
