MODEL 1
REMARK VINA RESULT:      -7.5      0.000      0.000
REMARK  Name = 
REMARK  10 active torsions:
REMARK  status: ('A' for Active; 'I' for Inactive)
REMARK    1  A    between atoms: C_1  and  C_2
REMARK    2  A    between atoms: C_2  and  O_3
REMARK    3  A    between atoms: O_3  and  C_4
REMARK    4  A    between atoms: C_4  and  C_6
REMARK    5  A    between atoms: C_7  and  C_8
REMARK    6  A    between atoms: C_10  and  N_11
REMARK    7  A    between atoms: N_14  and  C_15
REMARK    8  A    between atoms: C_18  and  N_19
REMARK    9  A    between atoms: C_20  and  C_21
REMARK   10  A    between atoms: C_25  and  C_26
REMARK                            x       y       z     vdW  Elec       q    Type
REMARK                         _______ _______ _______ _____ _____    ______ ____
ROOT
ATOM      1  N   UNL     1       7.839   6.624  18.487  0.00  0.00    +0.000 N 
ATOM      2  C   UNL     1       7.967   7.982  18.225  0.00  0.00    +0.000 C 
ATOM      3  O   UNL     1       7.278   8.561  17.387  0.00  0.00    +0.000 OA
ATOM      4  N   UNL     1       8.953   8.588  18.987  0.00  0.00    +0.000 N 
ATOM      5  H   UNL     1       8.385   6.191  19.216  0.00  0.00    +0.000 HD
ATOM      6  H   UNL     1       9.647   7.987  19.404  0.00  0.00    +0.000 HD
ENDROOT
BRANCH   1  11
ATOM      7  C   UNL     1       5.268   4.493  17.033  0.00  0.00    +0.000 A 
ATOM      8  C   UNL     1       6.229   4.580  16.033  0.00  0.00    +0.000 A 
ATOM      9  C   UNL     1       6.340   3.995  14.671  0.00  0.00    +0.000 C 
ATOM     10  N   UNL     1       7.226   5.389  16.506  0.00  0.00    +0.000 N 
ATOM     11  C   UNL     1       6.946   5.837  17.775  0.00  0.00    +0.000 A 
ATOM     12  C   UNL     1       5.703   5.346  18.118  0.00  0.00    +0.000 A 
ATOM     13  C   UNL     1       4.952   5.560  19.386  0.00  0.00    +0.000 C 
ATOM     14  H   UNL     1       8.086   5.626  16.020  0.00  0.00    +0.000 HD
BRANCH   7  15
ATOM     15  C   UNL     1       4.070   3.655  17.046  0.00  0.00    +0.000 C 
ATOM     16  O   UNL     1       2.952   4.085  16.786  0.00  0.00    +0.000 OA
BRANCH  15  17
ATOM     17  O   UNL     1       4.313   2.409  17.546  0.00  0.00    +0.000 OA
BRANCH  17  19
ATOM     18  C   UNL     1       4.342   2.118  19.924  0.00  0.00    +0.000 C 
ATOM     19  C   UNL     1       3.496   2.041  18.663  0.00  0.00    +0.000 C 
ENDBRANCH  17  19
ENDBRANCH  15  17
ENDBRANCH   7  15
ENDBRANCH   1  11
BRANCH   4  20
ATOM     20  C   UNL     1       9.203   9.983  19.008  0.00  0.00    +0.000 A 
ATOM     21  C   UNL     1       9.314  10.735  17.841  0.00  0.00    +0.000 A 
ATOM     22  C   UNL     1       9.548  12.110  17.884  0.00  0.00    +0.000 A 
ATOM     23  C   UNL     1       9.657  12.781  19.096  0.00  0.00    +0.000 A 
ATOM     24  C   UNL     1       9.559  12.032  20.277  0.00  0.00    +0.000 A 
ATOM     25  C   UNL     1       9.321  10.644  20.235  0.00  0.00    +0.000 A 
BRANCH  23  26
ATOM     26  N   UNL     1       9.828  14.182  19.183  0.00  0.00    +0.000 N 
ATOM     27  C   UNL     1      11.038  14.860  19.238  0.00  0.00    +0.000 C 
ATOM     28  C   UNL     1      10.887  16.360  19.233  0.00  0.00    +0.000 C 
ATOM     29  O   UNL     1      12.163  14.370  19.291  0.00  0.00    +0.000 OA
ATOM     30  H   UNL     1       8.985  14.739  19.158  0.00  0.00    +0.000 HD
ENDBRANCH  23  26
ENDBRANCH   4  20
TORSDOF 6
ENDMDL
MODEL 2
REMARK VINA RESULT:      -7.5      7.030      8.117
REMARK  Name = 
REMARK  10 active torsions:
REMARK  status: ('A' for Active; 'I' for Inactive)
REMARK    1  A    between atoms: C_1  and  C_2
REMARK    2  A    between atoms: C_2  and  O_3
REMARK    3  A    between atoms: O_3  and  C_4
REMARK    4  A    between atoms: C_4  and  C_6
REMARK    5  A    between atoms: C_7  and  C_8
REMARK    6  A    between atoms: C_10  and  N_11
REMARK    7  A    between atoms: N_14  and  C_15
REMARK    8  A    between atoms: C_18  and  N_19
REMARK    9  A    between atoms: C_20  and  C_21
REMARK   10  A    between atoms: C_25  and  C_26
REMARK                            x       y       z     vdW  Elec       q    Type
REMARK                         _______ _______ _______ _____ _____    ______ ____
ROOT
ATOM      1  N   UNL     1       1.844   7.131  20.918  0.00  0.00    +0.000 N 
ATOM      2  C   UNL     1       1.262   8.382  20.764  0.00  0.00    +0.000 C 
ATOM      3  O   UNL     1       1.079   8.894  19.661  0.00  0.00    +0.000 OA
ATOM      4  N   UNL     1       0.938   8.979  21.972  0.00  0.00    +0.000 N 
ATOM      5  H   UNL     1       1.934   6.718  21.834  0.00  0.00    +0.000 HD
ATOM      6  H   UNL     1       1.397   8.625  22.797  0.00  0.00    +0.000 HD
ENDROOT
BRANCH   1  11
ATOM      7  C   UNL     1       2.840   4.850  18.259  0.00  0.00    +0.000 A 
ATOM      8  C   UNL     1       3.530   6.020  17.966  0.00  0.00    +0.000 A 
ATOM      9  C   UNL     1       4.487   6.398  16.893  0.00  0.00    +0.000 C 
ATOM     10  N   UNL     1       3.187   6.937  18.922  0.00  0.00    +0.000 N 
ATOM     11  C   UNL     1       2.293   6.407  19.822  0.00  0.00    +0.000 A 
ATOM     12  C   UNL     1       2.005   5.124  19.408  0.00  0.00    +0.000 A 
ATOM     13  C   UNL     1       1.082   4.142  20.043  0.00  0.00    +0.000 C 
ATOM     14  H   UNL     1       3.548   7.883  19.000  0.00  0.00    +0.000 HD
BRANCH   7  15
ATOM     15  C   UNL     1       2.963   3.554  17.593  0.00  0.00    +0.000 C 
ATOM     16  O   UNL     1       2.093   3.094  16.861  0.00  0.00    +0.000 OA
BRANCH  15  17
ATOM     17  O   UNL     1       4.053   2.853  18.018  0.00  0.00    +0.000 OA
BRANCH  17  19
ATOM     18  C   UNL     1       4.440   2.127  20.268  0.00  0.00    +0.000 C 
ATOM     19  C   UNL     1       3.766   1.799  18.946  0.00  0.00    +0.000 C 
ENDBRANCH  17  19
ENDBRANCH  15  17
ENDBRANCH   7  15
ENDBRANCH   1  11
BRANCH   4  20
ATOM     20  C   UNL     1       0.223  10.195  22.096  0.00  0.00    +0.000 A 
ATOM     21  C   UNL     1      -0.828  10.351  22.995  0.00  0.00    +0.000 A 
ATOM     22  C   UNL     1      -1.511  11.562  23.111  0.00  0.00    +0.000 A 
ATOM     23  C   UNL     1      -1.151  12.665  22.345  0.00  0.00    +0.000 A 
ATOM     24  C   UNL     1      -0.101  12.516  21.426  0.00  0.00    +0.000 A 
ATOM     25  C   UNL     1       0.590  11.294  21.311  0.00  0.00    +0.000 A 
BRANCH  23  26
ATOM     26  N   UNL     1      -1.774  13.927  22.477  0.00  0.00    +0.000 N 
ATOM     27  C   UNL     1      -1.564  14.845  23.497  0.00  0.00    +0.000 C 
ATOM     28  C   UNL     1      -2.312  16.139  23.305  0.00  0.00    +0.000 C 
ATOM     29  O   UNL     1      -0.862  14.699  24.494  0.00  0.00    +0.000 OA
ATOM     30  H   UNL     1      -2.398  14.199  21.730  0.00  0.00    +0.000 HD
ENDBRANCH  23  26
ENDBRANCH   4  20
TORSDOF 6
ENDMDL
MODEL 3
REMARK VINA RESULT:      -7.4      7.764      9.575
REMARK  Name = 
REMARK  10 active torsions:
REMARK  status: ('A' for Active; 'I' for Inactive)
REMARK    1  A    between atoms: C_1  and  C_2
REMARK    2  A    between atoms: C_2  and  O_3
REMARK    3  A    between atoms: O_3  and  C_4
REMARK    4  A    between atoms: C_4  and  C_6
REMARK    5  A    between atoms: C_7  and  C_8
REMARK    6  A    between atoms: C_10  and  N_11
REMARK    7  A    between atoms: N_14  and  C_15
REMARK    8  A    between atoms: C_18  and  N_19
REMARK    9  A    between atoms: C_20  and  C_21
REMARK   10  A    between atoms: C_25  and  C_26
REMARK                            x       y       z     vdW  Elec       q    Type
REMARK                         _______ _______ _______ _____ _____    ______ ____
ROOT
ATOM      1  N   UNL     1       1.910   8.219  20.866  0.00  0.00    +0.000 N 
ATOM      2  C   UNL     1       0.675   8.832  21.035  0.00  0.00    +0.000 C 
ATOM      3  O   UNL     1      -0.386   8.247  20.831  0.00  0.00    +0.000 OA
ATOM      4  N   UNL     1       0.781  10.156  21.433  0.00  0.00    +0.000 N 
ATOM      5  H   UNL     1       2.761   8.712  21.090  0.00  0.00    +0.000 HD
ATOM      6  H   UNL     1       1.665  10.614  21.276  0.00  0.00    +0.000 HD
ENDROOT
BRANCH   1  11
ATOM      7  C   UNL     1       2.168   4.975  19.230  0.00  0.00    +0.000 A 
ATOM      8  C   UNL     1       1.842   4.658  20.543  0.00  0.00    +0.000 A 
ATOM      9  C   UNL     1       1.602   3.374  21.252  0.00  0.00    +0.000 C 
ATOM     10  N   UNL     1       1.747   5.838  21.228  0.00  0.00    +0.000 N 
ATOM     11  C   UNL     1       2.006   6.912  20.409  0.00  0.00    +0.000 A 
ATOM     12  C   UNL     1       2.332   6.411  19.166  0.00  0.00    +0.000 A 
ATOM     13  C   UNL     1       2.703   7.173  17.941  0.00  0.00    +0.000 C 
ATOM     14  H   UNL     1       1.493   5.943  22.206  0.00  0.00    +0.000 HD
BRANCH   7  15
ATOM     15  C   UNL     1       2.268   4.062  18.092  0.00  0.00    +0.000 C 
ATOM     16  O   UNL     1       1.371   3.920  17.268  0.00  0.00    +0.000 OA
BRANCH  15  17
ATOM     17  O   UNL     1       3.378   3.271  18.157  0.00  0.00    +0.000 OA
BRANCH  17  19
ATOM     18  C   UNL     1       4.815   4.214  16.489  0.00  0.00    +0.000 C 
ATOM     19  C   UNL     1       4.620   3.961  17.976  0.00  0.00    +0.000 C 
ENDBRANCH  17  19
ENDBRANCH  15  17
ENDBRANCH   7  15
ENDBRANCH   1  11
BRANCH   4  20
ATOM     20  C   UNL     1      -0.320  10.971  21.796  0.00  0.00    +0.000 A 
ATOM     21  C   UNL     1      -0.837  11.943  20.945  0.00  0.00    +0.000 A 
ATOM     22  C   UNL     1      -1.930  12.727  21.317  0.00  0.00    +0.000 A 
ATOM     23  C   UNL     1      -2.555  12.548  22.545  0.00  0.00    +0.000 A 
ATOM     24  C   UNL     1      -2.035  11.579  23.416  0.00  0.00    +0.000 A 
ATOM     25  C   UNL     1      -0.933  10.787  23.040  0.00  0.00    +0.000 A 
BRANCH  23  26
ATOM     26  N   UNL     1      -3.704  13.275  22.934  0.00  0.00    +0.000 N 
ATOM     27  C   UNL     1      -5.011  13.016  22.546  0.00  0.00    +0.000 C 
ATOM     28  C   UNL     1      -6.023  13.917  23.205  0.00  0.00    +0.000 C 
ATOM     29  O   UNL     1      -5.395  12.163  21.750  0.00  0.00    +0.000 OA
ATOM     30  H   UNL     1      -3.556  14.028  23.592  0.00  0.00    +0.000 HD
ENDBRANCH  23  26
ENDBRANCH   4  20
TORSDOF 6
ENDMDL
MODEL 4
REMARK VINA RESULT:      -7.4      0.982      1.355
REMARK  Name = 
REMARK  10 active torsions:
REMARK  status: ('A' for Active; 'I' for Inactive)
REMARK    1  A    between atoms: C_1  and  C_2
REMARK    2  A    between atoms: C_2  and  O_3
REMARK    3  A    between atoms: O_3  and  C_4
REMARK    4  A    between atoms: C_4  and  C_6
REMARK    5  A    between atoms: C_7  and  C_8
REMARK    6  A    between atoms: C_10  and  N_11
REMARK    7  A    between atoms: N_14  and  C_15
REMARK    8  A    between atoms: C_18  and  N_19
REMARK    9  A    between atoms: C_20  and  C_21
REMARK   10  A    between atoms: C_25  and  C_26
REMARK                            x       y       z     vdW  Elec       q    Type
REMARK                         _______ _______ _______ _____ _____    ______ ____
ROOT
ATOM      1  N   UNL     1       7.901   6.728  18.562  0.00  0.00    +0.000 N 
ATOM      2  C   UNL     1       8.061   8.076  18.271  0.00  0.00    +0.000 C 
ATOM      3  O   UNL     1       7.431   8.639  17.378  0.00  0.00    +0.000 OA
ATOM      4  N   UNL     1       9.008   8.692  19.075  0.00  0.00    +0.000 N 
ATOM      5  H   UNL     1       8.397   6.308  19.334  0.00  0.00    +0.000 HD
ATOM      6  H   UNL     1       9.668   8.095  19.549  0.00  0.00    +0.000 HD
ENDROOT
BRANCH   1  11
ATOM      7  C   UNL     1       5.422   4.547  17.023  0.00  0.00    +0.000 A 
ATOM      8  C   UNL     1       6.380   4.711  16.030  0.00  0.00    +0.000 A 
ATOM      9  C   UNL     1       6.517   4.182  14.648  0.00  0.00    +0.000 C 
ATOM     10  N   UNL     1       7.342   5.542  16.535  0.00  0.00    +0.000 N 
ATOM     11  C   UNL     1       7.042   5.931  17.819  0.00  0.00    +0.000 A 
ATOM     12  C   UNL     1       5.820   5.377  18.140  0.00  0.00    +0.000 A 
ATOM     13  C   UNL     1       5.059   5.513  19.413  0.00  0.00    +0.000 C 
ATOM     14  H   UNL     1       8.192   5.832  16.060  0.00  0.00    +0.000 HD
BRANCH   7  15
ATOM     15  C   UNL     1       4.260   3.660  17.001  0.00  0.00    +0.000 C 
ATOM     16  O   UNL     1       3.188   3.977  16.499  0.00  0.00    +0.000 OA
BRANCH  15  17
ATOM     17  O   UNL     1       4.451   2.536  17.750  0.00  0.00    +0.000 OA
BRANCH  17  19
ATOM     18  C   UNL     1       2.997   2.409  19.649  0.00  0.00    +0.000 C 
ATOM     19  C   UNL     1       3.249   1.923  18.231  0.00  0.00    +0.000 C 
ENDBRANCH  17  19
ENDBRANCH  15  17
ENDBRANCH   7  15
ENDBRANCH   1  11
BRANCH   4  20
ATOM     20  C   UNL     1       9.274  10.084  19.073  0.00  0.00    +0.000 A 
ATOM     21  C   UNL     1       9.254  10.846  20.238  0.00  0.00    +0.000 A 
ATOM     22  C   UNL     1       9.533  12.213  20.216  0.00  0.00    +0.000 A 
ATOM     23  C   UNL     1       9.860  12.859  19.029  0.00  0.00    +0.000 A 
ATOM     24  C   UNL     1       9.871  12.104  17.847  0.00  0.00    +0.000 A 
ATOM     25  C   UNL     1       9.592  10.723  17.870  0.00  0.00    +0.000 A 
BRANCH  23  26
ATOM     26  N   UNL     1      10.212  14.228  18.974  0.00  0.00    +0.000 N 
ATOM     27  C   UNL     1       9.394  15.270  18.559  0.00  0.00    +0.000 C 
ATOM     28  C   UNL     1      10.032  16.627  18.703  0.00  0.00    +0.000 C 
ATOM     29  O   UNL     1       8.257  15.186  18.104  0.00  0.00    +0.000 OA
ATOM     30  H   UNL     1      11.134  14.467  19.312  0.00  0.00    +0.000 HD
ENDBRANCH  23  26
ENDBRANCH   4  20
TORSDOF 6
ENDMDL
MODEL 5
REMARK VINA RESULT:      -7.4      7.058      8.499
REMARK  Name = 
REMARK  10 active torsions:
REMARK  status: ('A' for Active; 'I' for Inactive)
REMARK    1  A    between atoms: C_1  and  C_2
REMARK    2  A    between atoms: C_2  and  O_3
REMARK    3  A    between atoms: O_3  and  C_4
REMARK    4  A    between atoms: C_4  and  C_6
REMARK    5  A    between atoms: C_7  and  C_8
REMARK    6  A    between atoms: C_10  and  N_11
REMARK    7  A    between atoms: N_14  and  C_15
REMARK    8  A    between atoms: C_18  and  N_19
REMARK    9  A    between atoms: C_20  and  C_21
REMARK   10  A    between atoms: C_25  and  C_26
REMARK                            x       y       z     vdW  Elec       q    Type
REMARK                         _______ _______ _______ _____ _____    ______ ____
ROOT
ATOM      1  N   UNL     1       2.004   7.145  20.901  0.00  0.00    +0.000 N 
ATOM      2  C   UNL     1       1.327   8.349  20.766  0.00  0.00    +0.000 C 
ATOM      3  O   UNL     1       1.013   8.813  19.671  0.00  0.00    +0.000 OA
ATOM      4  N   UNL     1       1.070   8.962  21.983  0.00  0.00    +0.000 N 
ATOM      5  H   UNL     1       2.202   6.768  21.815  0.00  0.00    +0.000 HD
ATOM      6  H   UNL     1       1.622   8.666  22.773  0.00  0.00    +0.000 HD
ENDROOT
BRANCH   1  11
ATOM      7  C   UNL     1       2.869   4.856  18.202  0.00  0.00    +0.000 A 
ATOM      8  C   UNL     1       3.573   6.013  17.892  0.00  0.00    +0.000 A 
ATOM      9  C   UNL     1       4.503   6.378  16.791  0.00  0.00    +0.000 C 
ATOM     10  N   UNL     1       3.279   6.933  18.862  0.00  0.00    +0.000 N 
ATOM     11  C   UNL     1       2.403   6.418  19.788  0.00  0.00    +0.000 A 
ATOM     12  C   UNL     1       2.077   5.142  19.379  0.00  0.00    +0.000 A 
ATOM     13  C   UNL     1       1.155   4.176  20.039  0.00  0.00    +0.000 C 
ATOM     14  H   UNL     1       3.661   7.871  18.932  0.00  0.00    +0.000 HD
BRANCH   7  15
ATOM     15  C   UNL     1       2.945   3.561  17.528  0.00  0.00    +0.000 C 
ATOM     16  O   UNL     1       2.043   3.122  16.822  0.00  0.00    +0.000 OA
BRANCH  15  17
ATOM     17  O   UNL     1       4.034   2.837  17.915  0.00  0.00    +0.000 OA
BRANCH  17  19
ATOM     18  C   UNL     1       4.422   2.129  20.170  0.00  0.00    +0.000 C 
ATOM     19  C   UNL     1       3.756   1.786  18.848  0.00  0.00    +0.000 C 
ENDBRANCH  17  19
ENDBRANCH  15  17
ENDBRANCH   7  15
ENDBRANCH   1  11
BRANCH   4  20
ATOM     20  C   UNL     1       0.287  10.133  22.138  0.00  0.00    +0.000 A 
ATOM     21  C   UNL     1       0.521  11.287  21.396  0.00  0.00    +0.000 A 
ATOM     22  C   UNL     1      -0.270  12.425  21.555  0.00  0.00    +0.000 A 
ATOM     23  C   UNL     1      -1.336  12.438  22.447  0.00  0.00    +0.000 A 
ATOM     24  C   UNL     1      -1.574  11.285  23.210  0.00  0.00    +0.000 A 
ATOM     25  C   UNL     1      -0.776  10.135  23.047  0.00  0.00    +0.000 A 
BRANCH  23  26
ATOM     26  N   UNL     1      -2.201  13.548  22.591  0.00  0.00    +0.000 N 
ATOM     27  C   UNL     1      -3.499  13.647  22.108  0.00  0.00    +0.000 C 
ATOM     28  C   UNL     1      -4.192  14.924  22.507  0.00  0.00    +0.000 C 
ATOM     29  O   UNL     1      -4.098  12.828  21.416  0.00  0.00    +0.000 OA
ATOM     30  H   UNL     1      -1.849  14.322  23.138  0.00  0.00    +0.000 HD
ENDBRANCH  23  26
ENDBRANCH   4  20
TORSDOF 6
ENDMDL
MODEL 6
REMARK VINA RESULT:      -7.4      1.076      1.076
REMARK  Name = 
REMARK  10 active torsions:
REMARK  status: ('A' for Active; 'I' for Inactive)
REMARK    1  A    between atoms: C_1  and  C_2
REMARK    2  A    between atoms: C_2  and  O_3
REMARK    3  A    between atoms: O_3  and  C_4
REMARK    4  A    between atoms: C_4  and  C_6
REMARK    5  A    between atoms: C_7  and  C_8
REMARK    6  A    between atoms: C_10  and  N_11
REMARK    7  A    between atoms: N_14  and  C_15
REMARK    8  A    between atoms: C_18  and  N_19
REMARK    9  A    between atoms: C_20  and  C_21
REMARK   10  A    between atoms: C_25  and  C_26
REMARK                            x       y       z     vdW  Elec       q    Type
REMARK                         _______ _______ _______ _____ _____    ______ ____
ROOT
ATOM      1  N   UNL     1       7.841   6.628  18.474  0.00  0.00    +0.000 N 
ATOM      2  C   UNL     1       7.971   7.983  18.201  0.00  0.00    +0.000 C 
ATOM      3  O   UNL     1       7.285   8.557  17.358  0.00  0.00    +0.000 OA
ATOM      4  N   UNL     1       8.958   8.593  18.960  0.00  0.00    +0.000 N 
ATOM      5  H   UNL     1       8.385   6.199  19.207  0.00  0.00    +0.000 HD
ATOM      6  H   UNL     1       9.651   7.994  19.382  0.00  0.00    +0.000 HD
ENDROOT
BRANCH   1  11
ATOM      7  C   UNL     1       5.274   4.480  17.037  0.00  0.00    +0.000 A 
ATOM      8  C   UNL     1       6.219   4.589  16.024  0.00  0.00    +0.000 A 
ATOM      9  C   UNL     1       6.316   4.019  14.654  0.00  0.00    +0.000 C 
ATOM     10  N   UNL     1       7.213   5.406  16.490  0.00  0.00    +0.000 N 
ATOM     11  C   UNL     1       6.946   5.837  17.768  0.00  0.00    +0.000 A 
ATOM     12  C   UNL     1       5.715   5.328  18.124  0.00  0.00    +0.000 A 
ATOM     13  C   UNL     1       4.981   5.520  19.406  0.00  0.00    +0.000 C 
ATOM     14  H   UNL     1       8.062   5.657  15.993  0.00  0.00    +0.000 HD
BRANCH   7  15
ATOM     15  C   UNL     1       4.086   3.627  17.059  0.00  0.00    +0.000 C 
ATOM     16  O   UNL     1       2.980   4.014  16.699  0.00  0.00    +0.000 OA
BRANCH  15  17
ATOM     17  O   UNL     1       4.314   2.436  17.684  0.00  0.00    +0.000 OA
BRANCH  17  19
ATOM     18  C   UNL     1       3.115   2.354  19.756  0.00  0.00    +0.000 C 
ATOM     19  C   UNL     1       3.165   1.862  18.319  0.00  0.00    +0.000 C 
ENDBRANCH  17  19
ENDBRANCH  15  17
ENDBRANCH   7  15
ENDBRANCH   1  11
BRANCH   4  20
ATOM     20  C   UNL     1       9.212   9.987  18.970  0.00  0.00    +0.000 A 
ATOM     21  C   UNL     1       9.322  10.730  17.798  0.00  0.00    +0.000 A 
ATOM     22  C   UNL     1       9.558  12.105  17.829  0.00  0.00    +0.000 A 
ATOM     23  C   UNL     1       9.671  12.785  19.036  0.00  0.00    +0.000 A 
ATOM     24  C   UNL     1       9.574  12.045  20.223  0.00  0.00    +0.000 A 
ATOM     25  C   UNL     1       9.333  10.657  20.192  0.00  0.00    +0.000 A 
BRANCH  23  26
ATOM     26  N   UNL     1       9.846  14.187  19.113  0.00  0.00    +0.000 N 
ATOM     27  C   UNL     1       8.841  15.135  19.239  0.00  0.00    +0.000 C 
ATOM     28  C   UNL     1       9.357  16.543  19.387  0.00  0.00    +0.000 C 
ATOM     29  O   UNL     1       7.629  14.938  19.235  0.00  0.00    +0.000 OA
ATOM     30  H   UNL     1      10.801  14.519  19.120  0.00  0.00    +0.000 HD
ENDBRANCH  23  26
ENDBRANCH   4  20
TORSDOF 6
ENDMDL
MODEL 7
REMARK VINA RESULT:      -7.3      0.767      1.089
REMARK  Name = 
REMARK  10 active torsions:
REMARK  status: ('A' for Active; 'I' for Inactive)
REMARK    1  A    between atoms: C_1  and  C_2
REMARK    2  A    between atoms: C_2  and  O_3
REMARK    3  A    between atoms: O_3  and  C_4
REMARK    4  A    between atoms: C_4  and  C_6
REMARK    5  A    between atoms: C_7  and  C_8
REMARK    6  A    between atoms: C_10  and  N_11
REMARK    7  A    between atoms: N_14  and  C_15
REMARK    8  A    between atoms: C_18  and  N_19
REMARK    9  A    between atoms: C_20  and  C_21
REMARK   10  A    between atoms: C_25  and  C_26
REMARK                            x       y       z     vdW  Elec       q    Type
REMARK                         _______ _______ _______ _____ _____    ______ ____
ROOT
ATOM      1  N   UNL     1       7.951   6.667  18.569  0.00  0.00    +0.000 N 
ATOM      2  C   UNL     1       8.051   8.024  18.292  0.00  0.00    +0.000 C 
ATOM      3  O   UNL     1       7.350   8.580  17.448  0.00  0.00    +0.000 OA
ATOM      4  N   UNL     1       9.026   8.658  19.046  0.00  0.00    +0.000 N 
ATOM      5  H   UNL     1       8.506   6.252  19.302  0.00  0.00    +0.000 HD
ATOM      6  H   UNL     1       9.732   8.075  19.468  0.00  0.00    +0.000 HD
ENDROOT
BRANCH   1  11
ATOM      7  C   UNL     1       5.442   4.441  17.149  0.00  0.00    +0.000 A 
ATOM      8  C   UNL     1       6.349   4.621  16.112  0.00  0.00    +0.000 A 
ATOM      9  C   UNL     1       6.431   4.093  14.724  0.00  0.00    +0.000 C 
ATOM     10  N   UNL     1       7.319   5.470  16.571  0.00  0.00    +0.000 N 
ATOM     11  C   UNL     1       7.072   5.854  17.868  0.00  0.00    +0.000 A 
ATOM     12  C   UNL     1       5.877   5.279  18.245  0.00  0.00    +0.000 A 
ATOM     13  C   UNL     1       5.174   5.402  19.553  0.00  0.00    +0.000 C 
ATOM     14  H   UNL     1       8.140   5.774  16.056  0.00  0.00    +0.000 HD
BRANCH   7  15
ATOM     15  C   UNL     1       4.296   3.533  17.181  0.00  0.00    +0.000 C 
ATOM     16  O   UNL     1       4.405   2.327  17.373  0.00  0.00    +0.000 OA
BRANCH  15  17
ATOM     17  O   UNL     1       3.138   4.146  16.801  0.00  0.00    +0.000 OA
BRANCH  17  19
ATOM     18  C   UNL     1       1.820   4.480  18.773  0.00  0.00    +0.000 C 
ATOM     19  C   UNL     1       1.964   3.688  17.483  0.00  0.00    +0.000 C 
ENDBRANCH  17  19
ENDBRANCH  15  17
ENDBRANCH   7  15
ENDBRANCH   1  11
BRANCH   4  20
ATOM     20  C   UNL     1       9.249  10.057  19.051  0.00  0.00    +0.000 A 
ATOM     21  C   UNL     1       9.359  10.796  17.876  0.00  0.00    +0.000 A 
ATOM     22  C   UNL     1       9.565  12.176  17.902  0.00  0.00    +0.000 A 
ATOM     23  C   UNL     1       9.646  12.865  19.106  0.00  0.00    +0.000 A 
ATOM     24  C   UNL     1       9.549  12.130  20.297  0.00  0.00    +0.000 A 
ATOM     25  C   UNL     1       9.338  10.737  20.270  0.00  0.00    +0.000 A 
BRANCH  23  26
ATOM     26  N   UNL     1       9.789  14.271  19.177  0.00  0.00    +0.000 N 
ATOM     27  C   UNL     1      10.980  14.980  19.111  0.00  0.00    +0.000 C 
ATOM     28  C   UNL     1      10.791  16.475  19.122  0.00  0.00    +0.000 C 
ATOM     29  O   UNL     1      12.117  14.519  19.051  0.00  0.00    +0.000 OA
ATOM     30  H   UNL     1       8.933  14.805  19.236  0.00  0.00    +0.000 HD
ENDBRANCH  23  26
ENDBRANCH   4  20
TORSDOF 6
ENDMDL
MODEL 8
REMARK VINA RESULT:      -7.3      7.915      9.675
REMARK  Name = 
REMARK  10 active torsions:
REMARK  status: ('A' for Active; 'I' for Inactive)
REMARK    1  A    between atoms: C_1  and  C_2
REMARK    2  A    between atoms: C_2  and  O_3
REMARK    3  A    between atoms: O_3  and  C_4
REMARK    4  A    between atoms: C_4  and  C_6
REMARK    5  A    between atoms: C_7  and  C_8
REMARK    6  A    between atoms: C_10  and  N_11
REMARK    7  A    between atoms: N_14  and  C_15
REMARK    8  A    between atoms: C_18  and  N_19
REMARK    9  A    between atoms: C_20  and  C_21
REMARK   10  A    between atoms: C_25  and  C_26
REMARK                            x       y       z     vdW  Elec       q    Type
REMARK                         _______ _______ _______ _____ _____    ______ ____
ROOT
ATOM      1  N   UNL     1       1.791   8.490  20.597  0.00  0.00    +0.000 N 
ATOM      2  C   UNL     1       0.541   9.010  20.905  0.00  0.00    +0.000 C 
ATOM      3  O   UNL     1      -0.481   8.328  20.887  0.00  0.00    +0.000 OA
ATOM      4  N   UNL     1       0.580  10.362  21.207  0.00  0.00    +0.000 N 
ATOM      5  H   UNL     1       2.617   9.064  20.670  0.00  0.00    +0.000 HD
ATOM      6  H   UNL     1       1.389  10.879  20.900  0.00  0.00    +0.000 HD
ENDROOT
BRANCH   1  11
ATOM      7  C   UNL     1       2.253   5.185  19.135  0.00  0.00    +0.000 A 
ATOM      8  C   UNL     1       1.752   4.918  20.403  0.00  0.00    +0.000 A 
ATOM      9  C   UNL     1       1.414   3.662  21.123  0.00  0.00    +0.000 C 
ATOM     10  N   UNL     1       1.571   6.124  21.024  0.00  0.00    +0.000 N 
ATOM     11  C   UNL     1       1.942   7.166  20.208  0.00  0.00    +0.000 A 
ATOM     12  C   UNL     1       2.429   6.618  19.039  0.00  0.00    +0.000 A 
ATOM     13  C   UNL     1       2.964   7.333  17.847  0.00  0.00    +0.000 C 
ATOM     14  H   UNL     1       1.190   6.266  21.955  0.00  0.00    +0.000 HD
BRANCH   7  15
ATOM     15  C   UNL     1       2.500   4.230  18.056  0.00  0.00    +0.000 C 
ATOM     16  O   UNL     1       1.630   3.868  17.272  0.00  0.00    +0.000 OA
BRANCH  15  17
ATOM     17  O   UNL     1       3.738   3.663  18.139  0.00  0.00    +0.000 OA
BRANCH  17  19
ATOM     18  C   UNL     1       4.482   2.242  19.918  0.00  0.00    +0.000 C 
ATOM     19  C   UNL     1       3.748   2.303  18.588  0.00  0.00    +0.000 C 
ENDBRANCH  17  19
ENDBRANCH  15  17
ENDBRANCH   7  15
ENDBRANCH   1  11
BRANCH   4  20
ATOM     20  C   UNL     1      -0.530  11.108  21.675  0.00  0.00    +0.000 A 
ATOM     21  C   UNL     1      -1.018  10.979  22.973  0.00  0.00    +0.000 A 
ATOM     22  C   UNL     1      -2.104  11.733  23.418  0.00  0.00    +0.000 A 
ATOM     23  C   UNL     1      -2.725  12.657  22.586  0.00  0.00    +0.000 A 
ATOM     24  C   UNL     1      -2.250  12.786  21.272  0.00  0.00    +0.000 A 
ATOM     25  C   UNL     1      -1.152  12.027  20.823  0.00  0.00    +0.000 A 
BRANCH  23  26
ATOM     26  N   UNL     1      -3.786  13.486  23.018  0.00  0.00    +0.000 N 
ATOM     27  C   UNL     1      -5.142  13.226  22.878  0.00  0.00    +0.000 C 
ATOM     28  C   UNL     1      -6.023  14.263  23.525  0.00  0.00    +0.000 C 
ATOM     29  O   UNL     1      -5.660  12.275  22.298  0.00  0.00    +0.000 OA
ATOM     30  H   UNL     1      -3.523  14.326  23.515  0.00  0.00    +0.000 HD
ENDBRANCH  23  26
ENDBRANCH   4  20
TORSDOF 6
ENDMDL
MODEL 9
REMARK VINA RESULT:      -7.3      6.221      8.053
REMARK  Name = 
REMARK  10 active torsions:
REMARK  status: ('A' for Active; 'I' for Inactive)
REMARK    1  A    between atoms: C_1  and  C_2
REMARK    2  A    between atoms: C_2  and  O_3
REMARK    3  A    between atoms: O_3  and  C_4
REMARK    4  A    between atoms: C_4  and  C_6
REMARK    5  A    between atoms: C_7  and  C_8
REMARK    6  A    between atoms: C_10  and  N_11
REMARK    7  A    between atoms: N_14  and  C_15
REMARK    8  A    between atoms: C_18  and  N_19
REMARK    9  A    between atoms: C_20  and  C_21
REMARK   10  A    between atoms: C_25  and  C_26
REMARK                            x       y       z     vdW  Elec       q    Type
REMARK                         _______ _______ _______ _____ _____    ______ ____
ROOT
ATOM      1  N   UNL     1       3.365   8.000  17.205  0.00  0.00    +0.000 N 
ATOM      2  C   UNL     1       2.437   8.415  18.151  0.00  0.00    +0.000 C 
ATOM      3  O   UNL     1       2.276   7.831  19.221  0.00  0.00    +0.000 OA
ATOM      4  N   UNL     1       1.715   9.527  17.745  0.00  0.00    +0.000 N 
ATOM      5  H   UNL     1       3.506   8.530  16.359  0.00  0.00    +0.000 HD
ATOM      6  H   UNL     1       1.705   9.734  16.758  0.00  0.00    +0.000 HD
ENDROOT
BRANCH   1  11
ATOM      7  C   UNL     1       5.758   5.280  17.580  0.00  0.00    +0.000 A 
ATOM      8  C   UNL     1       4.524   4.656  17.720  0.00  0.00    +0.000 A 
ATOM      9  C   UNL     1       4.114   3.245  17.946  0.00  0.00    +0.000 C 
ATOM     10  N   UNL     1       3.569   5.629  17.609  0.00  0.00    +0.000 N 
ATOM     11  C   UNL     1       4.137   6.865  17.408  0.00  0.00    +0.000 A 
ATOM     12  C   UNL     1       5.506   6.698  17.443  0.00  0.00    +0.000 A 
ATOM     13  C   UNL     1       6.559   7.739  17.288  0.00  0.00    +0.000 C 
ATOM     14  H   UNL     1       2.564   5.486  17.639  0.00  0.00    +0.000 HD
BRANCH   7  15
ATOM     15  C   UNL     1       7.074   4.645  17.513  0.00  0.00    +0.000 C 
ATOM     16  O   UNL     1       7.736   4.373  18.508  0.00  0.00    +0.000 OA
BRANCH  15  17
ATOM     17  O   UNL     1       7.544   4.561  16.235  0.00  0.00    +0.000 OA
BRANCH  17  19
ATOM     18  C   UNL     1       6.811   4.727  13.961  0.00  0.00    +0.000 C 
ATOM     19  C   UNL     1       6.619   4.012  15.289  0.00  0.00    +0.000 C 
ENDBRANCH  17  19
ENDBRANCH  15  17
ENDBRANCH   7  15
ENDBRANCH   1  11
BRANCH   4  20
ATOM     20  C   UNL     1       0.798  10.227  18.567  0.00  0.00    +0.000 A 
ATOM     21  C   UNL     1       1.213  11.058  19.604  0.00  0.00    +0.000 A 
ATOM     22  C   UNL     1       0.293  11.749  20.393  0.00  0.00    +0.000 A 
ATOM     23  C   UNL     1      -1.073  11.648  20.157  0.00  0.00    +0.000 A 
ATOM     24  C   UNL     1      -1.504  10.804  19.123  0.00  0.00    +0.000 A 
ATOM     25  C   UNL     1      -0.575  10.108  18.324  0.00  0.00    +0.000 A 
BRANCH  23  26
ATOM     26  N   UNL     1      -2.035  12.381  20.891  0.00  0.00    +0.000 N 
ATOM     27  C   UNL     1      -2.320  12.240  22.242  0.00  0.00    +0.000 C 
ATOM     28  C   UNL     1      -3.333  13.233  22.749  0.00  0.00    +0.000 C 
ATOM     29  O   UNL     1      -1.845  11.416  23.019  0.00  0.00    +0.000 OA
ATOM     30  H   UNL     1      -2.526  13.105  20.386  0.00  0.00    +0.000 HD
ENDBRANCH  23  26
ENDBRANCH   4  20
TORSDOF 6
ENDMDL
