MODEL 1
REMARK VINA RESULT:      -8.4      0.000      0.000
REMARK  Name = 
REMARK  6 active torsions:
REMARK  status: ('A' for Active; 'I' for Inactive)
REMARK    1  A    between atoms: C_1  and  C_2
REMARK    2  A    between atoms: C_5  and  N_6
REMARK    3  A    between atoms: C_7  and  C_9
REMARK    4  A    between atoms: N_11  and  C_12
REMARK    5  A    between atoms: C_12  and  C_13
REMARK    6  A    between atoms: C_13  and  N_14
REMARK                            x       y       z     vdW  Elec       q    Type
REMARK                         _______ _______ _______ _____ _____    ______ ____
ROOT
ATOM      1  C   UNL     1       2.195   7.829  18.972  0.00  0.00    +0.000 A 
ATOM      2  C   UNL     1       2.994   7.395  17.985  0.00  0.00    +0.000 A 
ATOM      3  N   UNL     1       3.665   6.184  17.953  0.00  0.00    +0.000 N 
ATOM      4  C   UNL     1       3.352   5.198  18.927  0.00  0.00    +0.000 A 
ATOM      5  N   UNL     1       3.853   3.943  18.817  0.00  0.00    +0.000 NA
ATOM      6  C   UNL     1       3.544   3.042  19.771  0.00  0.00    +0.000 A 
ATOM      7 CL   UNL     1       4.233   1.492  19.533  0.00  0.00    +0.000 Cl
ATOM      8  C   UNL     1       2.747   3.305  20.867  0.00  0.00    +0.000 A 
ATOM      9  C   UNL     1       2.227   4.586  20.987  0.00  0.00    +0.000 A 
ATOM     10  C   UNL     1       2.530   5.539  20.009  0.00  0.00    +0.000 A 
ATOM     11  C   UNL     1       1.980   6.909  20.112  0.00  0.00    +0.000 A 
ATOM     12  O   UNL     1       1.357   7.249  21.115  0.00  0.00    +0.000 OA
ENDROOT
BRANCH   1  14
ATOM     13  N   UNL     1       0.701   9.525  19.831  0.00  0.00    +0.000 N 
ATOM     14  C   UNL     1       1.611   9.194  18.860  0.00  0.00    +0.000 C 
ATOM     15  O   UNL     1       1.954   9.967  17.969  0.00  0.00    +0.000 OA
ATOM     16  H   UNL     1       0.505   8.840  20.566  0.00  0.00    +0.000 HD
BRANCH  13  21
ATOM     17  C   UNL     1      -2.497  14.211  20.810  0.00  0.00    +0.000 C 
ATOM     18  C   UNL     1      -1.963  12.781  20.768  0.00  0.00    +0.000 C 
ATOM     19  C   UNL     1      -1.860  12.288  19.318  0.00  0.00    +0.000 C 
ATOM     20  C   UNL     1      -1.246  10.892  19.235  0.00  0.00    +0.000 C 
ATOM     21  C   UNL     1       0.116  10.848  19.930  0.00  0.00    +0.000 C 
ATOM     22  C   UNL     1      -0.008  11.291  21.392  0.00  0.00    +0.000 C 
ATOM     23  C   UNL     1      -0.608  12.694  21.484  0.00  0.00    +0.000 C 
ENDBRANCH  13  21
ENDBRANCH   1  14
BRANCH   3  24
ATOM     24  C   UNL     1       4.457   5.690  16.808  0.00  0.00    +0.000 C 
BRANCH  24  25
ATOM     25  C   UNL     1       5.386   6.750  16.156  0.00  0.00    +0.000 C 
BRANCH  25  26
ATOM     26  N   UNL     1       6.805   6.394  16.301  0.00  0.00    +0.000 NA
ATOM     27  C   UNL     1       7.107   4.950  16.244  0.00  0.00    +0.000 C 
ATOM     28  C   UNL     1       7.221   4.213  17.589  0.00  0.00    +0.000 C 
ATOM     29  O   UNL     1       8.042   4.920  18.519  0.00  0.00    +0.000 OA
ATOM     30  C   UNL     1       7.497   6.224  18.743  0.00  0.00    +0.000 C 
ATOM     31  C   UNL     1       7.478   7.038  17.443  0.00  0.00    +0.000 C 
ENDBRANCH  25  26
ENDBRANCH  24  25
ENDBRANCH   3  24
TORSDOF 5
ENDMDL
MODEL 2
REMARK VINA RESULT:      -8.0      1.020      1.391
REMARK  Name = 
REMARK  6 active torsions:
REMARK  status: ('A' for Active; 'I' for Inactive)
REMARK    1  A    between atoms: C_1  and  C_2
REMARK    2  A    between atoms: C_5  and  N_6
REMARK    3  A    between atoms: C_7  and  C_9
REMARK    4  A    between atoms: N_11  and  C_12
REMARK    5  A    between atoms: C_12  and  C_13
REMARK    6  A    between atoms: C_13  and  N_14
REMARK                            x       y       z     vdW  Elec       q    Type
REMARK                         _______ _______ _______ _____ _____    ______ ____
ROOT
ATOM      1  C   UNL     1       2.272   7.878  18.791  0.00  0.00    +0.000 A 
ATOM      2  C   UNL     1       3.078   7.386  17.838  0.00  0.00    +0.000 A 
ATOM      3  N   UNL     1       3.714   6.157  17.862  0.00  0.00    +0.000 N 
ATOM      4  C   UNL     1       3.354   5.215  18.864  0.00  0.00    +0.000 A 
ATOM      5  N   UNL     1       3.821   3.944  18.808  0.00  0.00    +0.000 NA
ATOM      6  C   UNL     1       3.467   3.086  19.786  0.00  0.00    +0.000 A 
ATOM      7 CL   UNL     1       4.116   1.509  19.617  0.00  0.00    +0.000 Cl
ATOM      8  C   UNL     1       2.656   3.411  20.855  0.00  0.00    +0.000 A 
ATOM      9  C   UNL     1       2.172   4.709  20.920  0.00  0.00    +0.000 A 
ATOM     10  C   UNL     1       2.521   5.618  19.916  0.00  0.00    +0.000 A 
ATOM     11  C   UNL     1       2.009   7.005  19.959  0.00  0.00    +0.000 A 
ATOM     12  O   UNL     1       1.376   7.398  20.936  0.00  0.00    +0.000 OA
ENDROOT
BRANCH   1  14
ATOM     13  N   UNL     1       1.044   9.754  19.697  0.00  0.00    +0.000 N 
ATOM     14  C   UNL     1       1.730   9.253  18.620  0.00  0.00    +0.000 C 
ATOM     15  O   UNL     1       1.918   9.892  17.588  0.00  0.00    +0.000 OA
ATOM     16  H   UNL     1       0.972   9.174  20.538  0.00  0.00    +0.000 HD
BRANCH  13  21
ATOM     17  C   UNL     1      -0.435  15.239  18.772  0.00  0.00    +0.000 C 
ATOM     18  C   UNL     1       0.130  13.828  18.631  0.00  0.00    +0.000 C 
ATOM     19  C   UNL     1       1.170  13.553  19.725  0.00  0.00    +0.000 C 
ATOM     20  C   UNL     1       1.691  12.119  19.667  0.00  0.00    +0.000 C 
ATOM     21  C   UNL     1       0.541  11.112  19.735  0.00  0.00    +0.000 C 
ATOM     22  C   UNL     1      -0.464  11.363  18.605  0.00  0.00    +0.000 C 
ATOM     23  C   UNL     1      -1.002  12.792  18.665  0.00  0.00    +0.000 C 
ENDBRANCH  13  21
ENDBRANCH   1  14
BRANCH   3  24
ATOM     24  C   UNL     1       4.514   5.600  16.752  0.00  0.00    +0.000 C 
BRANCH  24  25
ATOM     25  C   UNL     1       5.450   6.622  16.051  0.00  0.00    +0.000 C 
BRANCH  25  26
ATOM     26  N   UNL     1       6.868   6.278  16.234  0.00  0.00    +0.000 NA
ATOM     27  C   UNL     1       7.163   4.835  16.335  0.00  0.00    +0.000 C 
ATOM     28  C   UNL     1       7.274   4.248  17.752  0.00  0.00    +0.000 C 
ATOM     29  O   UNL     1       8.098   5.049  18.600  0.00  0.00    +0.000 OA
ATOM     30  C   UNL     1       7.559   6.372  18.681  0.00  0.00    +0.000 C 
ATOM     31  C   UNL     1       7.543   7.040  17.299  0.00  0.00    +0.000 C 
ENDBRANCH  25  26
ENDBRANCH  24  25
ENDBRANCH   3  24
TORSDOF 5
ENDMDL
MODEL 3
REMARK VINA RESULT:      -8.0      3.445      8.921
REMARK  Name = 
REMARK  6 active torsions:
REMARK  status: ('A' for Active; 'I' for Inactive)
REMARK    1  A    between atoms: C_1  and  C_2
REMARK    2  A    between atoms: C_5  and  N_6
REMARK    3  A    between atoms: C_7  and  C_9
REMARK    4  A    between atoms: N_11  and  C_12
REMARK    5  A    between atoms: C_12  and  C_13
REMARK    6  A    between atoms: C_13  and  N_14
REMARK                            x       y       z     vdW  Elec       q    Type
REMARK                         _______ _______ _______ _____ _____    ______ ____
ROOT
ATOM      1  C   UNL     1       1.418   9.174  19.023  0.00  0.00    +0.000 A 
ATOM      2  C   UNL     1       0.826  10.322  18.663  0.00  0.00    +0.000 A 
ATOM      3  N   UNL     1      -0.077  11.046  19.423  0.00  0.00    +0.000 N 
ATOM      4  C   UNL     1      -0.271  10.692  20.786  0.00  0.00    +0.000 A 
ATOM      5  N   UNL     1      -1.005  11.487  21.602  0.00  0.00    +0.000 NA
ATOM      6  C   UNL     1      -1.176  11.107  22.884  0.00  0.00    +0.000 A 
ATOM      7 CL   UNL     1      -2.122  12.183  23.824  0.00  0.00    +0.000 Cl
ATOM      8  C   UNL     1      -0.654   9.954  23.435  0.00  0.00    +0.000 A 
ATOM      9  C   UNL     1       0.102   9.135  22.608  0.00  0.00    +0.000 A 
ATOM     10  C   UNL     1       0.297   9.508  21.274  0.00  0.00    +0.000 A 
ATOM     11  C   UNL     1       1.106   8.655  20.376  0.00  0.00    +0.000 A 
ATOM     12  O   UNL     1       1.508   7.560  20.762  0.00  0.00    +0.000 OA
ENDROOT
BRANCH   1  14
ATOM     13  N   UNL     1       2.651   7.207  18.344  0.00  0.00    +0.000 N 
ATOM     14  C   UNL     1       2.314   8.502  18.043  0.00  0.00    +0.000 C 
ATOM     15  O   UNL     1       2.694   9.075  17.025  0.00  0.00    +0.000 OA
ATOM     16  H   UNL     1       2.255   6.788  19.190  0.00  0.00    +0.000 HD
BRANCH  13  21
ATOM     17  C   UNL     1       6.328   3.599  15.774  0.00  0.00    +0.000 C 
ATOM     18  C   UNL     1       5.564   4.430  16.803  0.00  0.00    +0.000 C 
ATOM     19  C   UNL     1       5.726   5.928  16.511  0.00  0.00    +0.000 C 
ATOM     20  C   UNL     1       4.902   6.787  17.469  0.00  0.00    +0.000 C 
ATOM     21  C   UNL     1       3.429   6.377  17.446  0.00  0.00    +0.000 C 
ATOM     22  C   UNL     1       3.276   4.891  17.792  0.00  0.00    +0.000 C 
ATOM     23  C   UNL     1       4.084   4.024  16.829  0.00  0.00    +0.000 C 
ENDBRANCH  13  21
ENDBRANCH   1  14
BRANCH   3  24
ATOM     24  C   UNL     1      -0.636  12.360  19.042  0.00  0.00    +0.000 C 
BRANCH  24  25
ATOM     25  C   UNL     1      -1.508  12.346  17.758  0.00  0.00    +0.000 C 
BRANCH  25  26
ATOM     26  N   UNL     1      -2.371  11.157  17.697  0.00  0.00    +0.000 NA
ATOM     27  C   UNL     1      -2.143  10.265  16.543  0.00  0.00    +0.000 C 
ATOM     28  C   UNL     1      -3.054  10.467  15.321  0.00  0.00    +0.000 C 
ATOM     29  O   UNL     1      -4.430  10.566  15.689  0.00  0.00    +0.000 OA
ATOM     30  C   UNL     1      -4.607  11.661  16.592  0.00  0.00    +0.000 C 
ATOM     31  C   UNL     1      -3.805  11.438  17.883  0.00  0.00    +0.000 C 
ENDBRANCH  25  26
ENDBRANCH  24  25
ENDBRANCH   3  24
TORSDOF 5
ENDMDL
MODEL 4
REMARK VINA RESULT:      -7.9      3.528      8.785
REMARK  Name = 
REMARK  6 active torsions:
REMARK  status: ('A' for Active; 'I' for Inactive)
REMARK    1  A    between atoms: C_1  and  C_2
REMARK    2  A    between atoms: C_5  and  N_6
REMARK    3  A    between atoms: C_7  and  C_9
REMARK    4  A    between atoms: N_11  and  C_12
REMARK    5  A    between atoms: C_12  and  C_13
REMARK    6  A    between atoms: C_13  and  N_14
REMARK                            x       y       z     vdW  Elec       q    Type
REMARK                         _______ _______ _______ _____ _____    ______ ____
ROOT
ATOM      1  C   UNL     1       1.143   9.313  19.001  0.00  0.00    +0.000 A 
ATOM      2  C   UNL     1       0.392  10.323  18.538  0.00  0.00    +0.000 A 
ATOM      3  N   UNL     1      -0.567  11.020  19.253  0.00  0.00    +0.000 N 
ATOM      4  C   UNL     1      -0.659  10.822  20.657  0.00  0.00    +0.000 A 
ATOM      5  N   UNL     1      -1.458  11.617  21.410  0.00  0.00    +0.000 NA
ATOM      6  C   UNL     1      -1.528  11.385  22.736  0.00  0.00    +0.000 A 
ATOM      7 CL   UNL     1      -2.569  12.446  23.589  0.00  0.00    +0.000 Cl
ATOM      8  C   UNL     1      -0.839  10.385  23.393  0.00  0.00    +0.000 A 
ATOM      9  C   UNL     1      -0.016   9.568  22.631  0.00  0.00    +0.000 A 
ATOM     10  C   UNL     1       0.076   9.789  21.253  0.00  0.00    +0.000 A 
ATOM     11  C   UNL     1       0.954   8.936  20.422  0.00  0.00    +0.000 A 
ATOM     12  O   UNL     1       1.509   7.958  20.915  0.00  0.00    +0.000 OA
ENDROOT
BRANCH   1  14
ATOM     13  N   UNL     1       2.371   7.331  18.359  0.00  0.00    +0.000 N 
ATOM     14  C   UNL     1       2.079   8.638  18.061  0.00  0.00    +0.000 C 
ATOM     15  O   UNL     1       2.528   9.219  17.077  0.00  0.00    +0.000 OA
ATOM     16  H   UNL     1       1.919   6.907  19.173  0.00  0.00    +0.000 HD
BRANCH  13  21
ATOM     17  C   UNL     1       6.194   3.783  15.922  0.00  0.00    +0.000 C 
ATOM     18  C   UNL     1       5.398   4.622  16.920  0.00  0.00    +0.000 C 
ATOM     19  C   UNL     1       5.494   6.112  16.566  0.00  0.00    +0.000 C 
ATOM     20  C   UNL     1       4.637   6.973  17.492  0.00  0.00    +0.000 C 
ATOM     21  C   UNL     1       3.182   6.500  17.492  0.00  0.00    +0.000 C 
ATOM     22  C   UNL     1       3.094   5.024  17.898  0.00  0.00    +0.000 C 
ATOM     23  C   UNL     1       3.936   4.154  16.967  0.00  0.00    +0.000 C 
ENDBRANCH  13  21
ENDBRANCH   1  14
BRANCH   3  24
ATOM     24  C   UNL     1      -1.307  12.195  18.747  0.00  0.00    +0.000 C 
BRANCH  24  25
ATOM     25  C   UNL     1      -0.413  13.322  18.163  0.00  0.00    +0.000 C 
BRANCH  25  26
ATOM     26  N   UNL     1       0.323  14.036  19.217  0.00  0.00    +0.000 NA
ATOM     27  C   UNL     1       0.003  15.470  19.355  0.00  0.00    +0.000 C 
ATOM     28  C   UNL     1       0.927  16.460  18.627  0.00  0.00    +0.000 C 
ATOM     29  O   UNL     1       2.307  16.170  18.855  0.00  0.00    +0.000 OA
ATOM     30  C   UNL     1       2.597  14.842  18.409  0.00  0.00    +0.000 C 
ATOM     31  C   UNL     1       1.779  13.811  19.199  0.00  0.00    +0.000 C 
ENDBRANCH  25  26
ENDBRANCH  24  25
ENDBRANCH   3  24
TORSDOF 5
ENDMDL
MODEL 5
REMARK VINA RESULT:      -7.8      2.207      4.283
REMARK  Name = 
REMARK  6 active torsions:
REMARK  status: ('A' for Active; 'I' for Inactive)
REMARK    1  A    between atoms: C_1  and  C_2
REMARK    2  A    between atoms: C_5  and  N_6
REMARK    3  A    between atoms: C_7  and  C_9
REMARK    4  A    between atoms: N_11  and  C_12
REMARK    5  A    between atoms: C_12  and  C_13
REMARK    6  A    between atoms: C_13  and  N_14
REMARK                            x       y       z     vdW  Elec       q    Type
REMARK                         _______ _______ _______ _____ _____    ______ ____
ROOT
ATOM      1  C   UNL     1       1.579   8.684  19.381  0.00  0.00    +0.000 A 
ATOM      2  C   UNL     1       1.603   7.550  20.096  0.00  0.00    +0.000 A 
ATOM      3  N   UNL     1       2.246   6.376  19.742  0.00  0.00    +0.000 N 
ATOM      4  C   UNL     1       3.138   6.387  18.635  0.00  0.00    +0.000 A 
ATOM      5  N   UNL     1       3.918   5.310  18.374  0.00  0.00    +0.000 NA
ATOM      6  C   UNL     1       4.739   5.355  17.305  0.00  0.00    +0.000 A 
ATOM      7 CL   UNL     1       5.675   3.940  17.068  0.00  0.00    +0.000 Cl
ATOM      8  C   UNL     1       4.845   6.430  16.445  0.00  0.00    +0.000 A 
ATOM      9  C   UNL     1       4.052   7.538  16.706  0.00  0.00    +0.000 A 
ATOM     10  C   UNL     1       3.194   7.518  17.810  0.00  0.00    +0.000 A 
ATOM     11  C   UNL     1       2.346   8.692  18.113  0.00  0.00    +0.000 A 
ATOM     12  O   UNL     1       2.303   9.639  17.331  0.00  0.00    +0.000 OA
ENDROOT
BRANCH   1  14
ATOM     13  N   UNL     1       1.175  11.067  19.463  0.00  0.00    +0.000 N 
ATOM     14  C   UNL     1       0.776   9.827  19.894  0.00  0.00    +0.000 C 
ATOM     15  O   UNL     1      -0.192   9.652  20.630  0.00  0.00    +0.000 OA
ATOM     16  H   UNL     1       1.964  11.124  18.813  0.00  0.00    +0.000 HD
BRANCH  13  21
ATOM     17  C   UNL     1      -0.680  16.400  20.586  0.00  0.00    +0.000 C 
ATOM     18  C   UNL     1       0.180  15.190  20.229  0.00  0.00    +0.000 C 
ATOM     19  C   UNL     1       0.224  14.198  21.399  0.00  0.00    +0.000 C 
ATOM     20  C   UNL     1       1.005  12.934  21.044  0.00  0.00    +0.000 C 
ATOM     21  C   UNL     1       0.441  12.275  19.784  0.00  0.00    +0.000 C 
ATOM     22  C   UNL     1       0.451  13.259  18.608  0.00  0.00    +0.000 C 
ATOM     23  C   UNL     1      -0.341  14.520  18.950  0.00  0.00    +0.000 C 
ENDBRANCH  13  21
ENDBRANCH   1  14
BRANCH   3  24
ATOM     24  C   UNL     1       2.340   5.176  20.597  0.00  0.00    +0.000 C 
BRANCH  24  25
ATOM     25  C   UNL     1       1.136   4.202  20.483  0.00  0.00    +0.000 C 
BRANCH  25  26
ATOM     26  N   UNL     1       1.568   2.796  20.491  0.00  0.00    +0.000 NA
ATOM     27  C   UNL     1       2.913   2.549  21.049  0.00  0.00    +0.000 C 
ATOM     28  C   UNL     1       4.074   2.459  20.045  0.00  0.00    +0.000 C 
ATOM     29  O   UNL     1       3.762   1.611  18.940  0.00  0.00    +0.000 OA
ATOM     30  C   UNL     1       2.599   2.106  18.270  0.00  0.00    +0.000 C 
ATOM     31  C   UNL     1       1.384   2.097  19.208  0.00  0.00    +0.000 C 
ENDBRANCH  25  26
ENDBRANCH  24  25
ENDBRANCH   3  24
TORSDOF 5
ENDMDL
MODEL 6
REMARK VINA RESULT:      -7.8      3.809      9.016
REMARK  Name = 
REMARK  6 active torsions:
REMARK  status: ('A' for Active; 'I' for Inactive)
REMARK    1  A    between atoms: C_1  and  C_2
REMARK    2  A    between atoms: C_5  and  N_6
REMARK    3  A    between atoms: C_7  and  C_9
REMARK    4  A    between atoms: N_11  and  C_12
REMARK    5  A    between atoms: C_12  and  C_13
REMARK    6  A    between atoms: C_13  and  N_14
REMARK                            x       y       z     vdW  Elec       q    Type
REMARK                         _______ _______ _______ _____ _____    ______ ____
ROOT
ATOM      1  C   UNL     1       1.315   8.893  19.603  0.00  0.00    +0.000 A 
ATOM      2  C   UNL     1       1.098  10.030  18.925  0.00  0.00    +0.000 A 
ATOM      3  N   UNL     1       0.294  11.081  19.332  0.00  0.00    +0.000 N 
ATOM      4  C   UNL     1      -0.203  11.092  20.664  0.00  0.00    +0.000 A 
ATOM      5  N   UNL     1      -0.837  12.187  21.149  0.00  0.00    +0.000 NA
ATOM      6  C   UNL     1      -1.306  12.150  22.413  0.00  0.00    +0.000 A 
ATOM      7 CL   UNL     1      -2.092  13.586  22.920  0.00  0.00    +0.000 Cl
ATOM      8  C   UNL     1      -1.189  11.066  23.259  0.00  0.00    +0.000 A 
ATOM      9  C   UNL     1      -0.539   9.941  22.772  0.00  0.00    +0.000 A 
ATOM     10  C   UNL     1      -0.040   9.955  21.465  0.00  0.00    +0.000 A 
ATOM     11  C   UNL     1       0.664   8.770  20.928  0.00  0.00    +0.000 A 
ATOM     12  O   UNL     1       0.708   7.731  21.581  0.00  0.00    +0.000 OA
ENDROOT
BRANCH   1  14
ATOM     13  N   UNL     1       2.086   6.601  19.549  0.00  0.00    +0.000 N 
ATOM     14  C   UNL     1       2.161   7.844  18.972  0.00  0.00    +0.000 C 
ATOM     15  O   UNL     1       2.852   8.085  17.985  0.00  0.00    +0.000 OA
ATOM     16  H   UNL     1       1.451   6.473  20.341  0.00  0.00    +0.000 HD
BRANCH  13  21
ATOM     17  C   UNL     1       3.898   1.397  17.884  0.00  0.00    +0.000 C 
ATOM     18  C   UNL     1       3.105   2.548  18.501  0.00  0.00    +0.000 C 
ATOM     19  C   UNL     1       3.958   3.293  19.537  0.00  0.00    +0.000 C 
ATOM     20  C   UNL     1       3.226   4.504  20.111  0.00  0.00    +0.000 C 
ATOM     21  C   UNL     1       2.764   5.446  18.997  0.00  0.00    +0.000 C 
ATOM     22  C   UNL     1       1.870   4.704  17.997  0.00  0.00    +0.000 C 
ATOM     23  C   UNL     1       2.600   3.499  17.407  0.00  0.00    +0.000 C 
ENDBRANCH  13  21
ENDBRANCH   1  14
BRANCH   3  24
ATOM     24  C   UNL     1       0.155  12.363  18.612  0.00  0.00    +0.000 C 
BRANCH  24  25
ATOM     25  C   UNL     1      -1.167  12.518  17.813  0.00  0.00    +0.000 C 
BRANCH  25  26
ATOM     26  N   UNL     1      -1.980  11.294  17.861  0.00  0.00    +0.000 NA
ATOM     27  C   UNL     1      -2.011  10.502  16.616  0.00  0.00    +0.000 C 
ATOM     28  C   UNL     1      -3.197  10.747  15.668  0.00  0.00    +0.000 C 
ATOM     29  O   UNL     1      -4.445  10.748  16.362  0.00  0.00    +0.000 OA
ATOM     30  C   UNL     1      -4.432  11.763  17.369  0.00  0.00    +0.000 C 
ATOM     31  C   UNL     1      -3.335  11.488  18.407  0.00  0.00    +0.000 C 
ENDBRANCH  25  26
ENDBRANCH  24  25
ENDBRANCH   3  24
TORSDOF 5
ENDMDL
MODEL 7
REMARK VINA RESULT:      -7.8      1.848      1.995
REMARK  Name = 
REMARK  6 active torsions:
REMARK  status: ('A' for Active; 'I' for Inactive)
REMARK    1  A    between atoms: C_1  and  C_2
REMARK    2  A    between atoms: C_5  and  N_6
REMARK    3  A    between atoms: C_7  and  C_9
REMARK    4  A    between atoms: N_11  and  C_12
REMARK    5  A    between atoms: C_12  and  C_13
REMARK    6  A    between atoms: C_13  and  N_14
REMARK                            x       y       z     vdW  Elec       q    Type
REMARK                         _______ _______ _______ _____ _____    ______ ____
ROOT
ATOM      1  C   UNL     1       1.966   8.321  18.719  0.00  0.00    +0.000 A 
ATOM      2  C   UNL     1       2.838   7.830  17.826  0.00  0.00    +0.000 A 
ATOM      3  N   UNL     1       3.548   6.648  17.945  0.00  0.00    +0.000 N 
ATOM      4  C   UNL     1       3.208   5.742  18.986  0.00  0.00    +0.000 A 
ATOM      5  N   UNL     1       3.755   4.502  19.021  0.00  0.00    +0.000 NA
ATOM      6  C   UNL     1       3.418   3.679  20.034  0.00  0.00    +0.000 A 
ATOM      7 CL   UNL     1       4.170   2.141  19.980  0.00  0.00    +0.000 Cl
ATOM      8  C   UNL     1       2.545   4.009  21.052  0.00  0.00    +0.000 A 
ATOM      9  C   UNL     1       1.978   5.275  21.023  0.00  0.00    +0.000 A 
ATOM     10  C   UNL     1       2.310   6.148  19.981  0.00  0.00    +0.000 A 
ATOM     11  C   UNL     1       1.710   7.499  19.925  0.00  0.00    +0.000 A 
ATOM     12  O   UNL     1       1.015   7.903  20.853  0.00  0.00    +0.000 OA
ENDROOT
BRANCH   1  14
ATOM     13  N   UNL     1       2.071  10.732  18.870  0.00  0.00    +0.000 N 
ATOM     14  C   UNL     1       1.346   9.646  18.448  0.00  0.00    +0.000 C 
ATOM     15  O   UNL     1       0.271   9.743  17.862  0.00  0.00    +0.000 OA
ATOM     16  H   UNL     1       2.980  10.566  19.310  0.00  0.00    +0.000 HD
BRANCH  13  21
ATOM     17  C   UNL     1       1.022  16.392  18.791  0.00  0.00    +0.000 C 
ATOM     18  C   UNL     1       1.508  14.994  19.168  0.00  0.00    +0.000 C 
ATOM     19  C   UNL     1       0.317  14.060  19.419  0.00  0.00    +0.000 C 
ATOM     20  C   UNL     1       0.767  12.630  19.712  0.00  0.00    +0.000 C 
ATOM     21  C   UNL     1       1.661  12.094  18.593  0.00  0.00    +0.000 C 
ATOM     22  C   UNL     1       2.876  13.007  18.388  0.00  0.00    +0.000 C 
ATOM     23  C   UNL     1       2.434  14.436  18.078  0.00  0.00    +0.000 C 
ENDBRANCH  13  21
ENDBRANCH   1  14
BRANCH   3  24
ATOM     24  C   UNL     1       4.426   6.083  16.899  0.00  0.00    +0.000 C 
BRANCH  24  25
ATOM     25  C   UNL     1       5.432   7.092  16.282  0.00  0.00    +0.000 C 
BRANCH  25  26
ATOM     26  N   UNL     1       6.820   6.623  16.407  0.00  0.00    +0.000 NA
ATOM     27  C   UNL     1       7.034   5.189  16.125  0.00  0.00    +0.000 C 
ATOM     28  C   UNL     1       7.051   4.241  17.334  0.00  0.00    +0.000 C 
ATOM     29  O   UNL     1       7.878   4.733  18.389  0.00  0.00    +0.000 OA
ATOM     30  C   UNL     1       7.407   6.017  18.807  0.00  0.00    +0.000 C 
ATOM     31  C   UNL     1       7.489   7.029  17.655  0.00  0.00    +0.000 C 
ENDBRANCH  25  26
ENDBRANCH  24  25
ENDBRANCH   3  24
TORSDOF 5
ENDMDL
MODEL 8
REMARK VINA RESULT:      -7.8      2.154      4.183
REMARK  Name = 
REMARK  6 active torsions:
REMARK  status: ('A' for Active; 'I' for Inactive)
REMARK    1  A    between atoms: C_1  and  C_2
REMARK    2  A    between atoms: C_5  and  N_6
REMARK    3  A    between atoms: C_7  and  C_9
REMARK    4  A    between atoms: N_11  and  C_12
REMARK    5  A    between atoms: C_12  and  C_13
REMARK    6  A    between atoms: C_13  and  N_14
REMARK                            x       y       z     vdW  Elec       q    Type
REMARK                         _______ _______ _______ _____ _____    ______ ____
ROOT
ATOM      1  C   UNL     1       1.391   8.596  19.206  0.00  0.00    +0.000 A 
ATOM      2  C   UNL     1       1.422   7.487  19.961  0.00  0.00    +0.000 A 
ATOM      3  N   UNL     1       2.222   6.377  19.746  0.00  0.00    +0.000 N 
ATOM      4  C   UNL     1       3.259   6.452  18.777  0.00  0.00    +0.000 A 
ATOM      5  N   UNL     1       4.170   5.455  18.670  0.00  0.00    +0.000 NA
ATOM      6  C   UNL     1       5.128   5.558  17.727  0.00  0.00    +0.000 A 
ATOM      7 CL   UNL     1       6.223   4.241  17.680  0.00  0.00    +0.000 Cl
ATOM      8  C   UNL     1       5.252   6.618  16.851  0.00  0.00    +0.000 A 
ATOM      9  C   UNL     1       4.325   7.645  16.954  0.00  0.00    +0.000 A 
ATOM     10  C   UNL     1       3.322   7.563  17.925  0.00  0.00    +0.000 A 
ATOM     11  C   UNL     1       2.329   8.651  18.060  0.00  0.00    +0.000 A 
ATOM     12  O   UNL     1       2.306   9.569  17.244  0.00  0.00    +0.000 OA
ENDROOT
BRANCH   1  14
ATOM     13  N   UNL     1       0.567  10.214  20.803  0.00  0.00    +0.000 N 
ATOM     14  C   UNL     1       0.414   9.662  19.556  0.00  0.00    +0.000 C 
ATOM     15  O   UNL     1      -0.446  10.030  18.760  0.00  0.00    +0.000 OA
ATOM     16  H   UNL     1       1.339   9.883  21.388  0.00  0.00    +0.000 HD
BRANCH  13  21
ATOM     17  C   UNL     1      -1.815  14.696  23.518  0.00  0.00    +0.000 C 
ATOM     18  C   UNL     1      -0.904  13.538  23.117  0.00  0.00    +0.000 C 
ATOM     19  C   UNL     1      -1.681  12.215  23.125  0.00  0.00    +0.000 C 
ATOM     20  C   UNL     1      -0.822  11.048  22.643  0.00  0.00    +0.000 C 
ATOM     21  C   UNL     1      -0.233  11.332  21.261  0.00  0.00    +0.000 C 
ATOM     22  C   UNL     1       0.586  12.629  21.278  0.00  0.00    +0.000 C 
ATOM     23  C   UNL     1      -0.271  13.805  21.744  0.00  0.00    +0.000 C 
ENDBRANCH  13  21
ENDBRANCH   1  14
BRANCH   3  24
ATOM     24  C   UNL     1       2.308   5.213  20.652  0.00  0.00    +0.000 C 
BRANCH  24  25
ATOM     25  C   UNL     1       1.103   4.238  20.571  0.00  0.00    +0.000 C 
BRANCH  25  26
ATOM     26  N   UNL     1       1.539   2.834  20.531  0.00  0.00    +0.000 NA
ATOM     27  C   UNL     1       2.881   2.570  21.086  0.00  0.00    +0.000 C 
ATOM     28  C   UNL     1       4.047   2.519  20.084  0.00  0.00    +0.000 C 
ATOM     29  O   UNL     1       3.742   1.711  18.948  0.00  0.00    +0.000 OA
ATOM     30  C   UNL     1       2.581   2.226  18.291  0.00  0.00    +0.000 C 
ATOM     31  C   UNL     1       1.362   2.181  19.223  0.00  0.00    +0.000 C 
ENDBRANCH  25  26
ENDBRANCH  24  25
ENDBRANCH   3  24
TORSDOF 5
ENDMDL
MODEL 9
REMARK VINA RESULT:      -7.7      3.602      9.445
REMARK  Name = 
REMARK  6 active torsions:
REMARK  status: ('A' for Active; 'I' for Inactive)
REMARK    1  A    between atoms: C_1  and  C_2
REMARK    2  A    between atoms: C_5  and  N_6
REMARK    3  A    between atoms: C_7  and  C_9
REMARK    4  A    between atoms: N_11  and  C_12
REMARK    5  A    between atoms: C_12  and  C_13
REMARK    6  A    between atoms: C_13  and  N_14
REMARK                            x       y       z     vdW  Elec       q    Type
REMARK                         _______ _______ _______ _____ _____    ______ ____
ROOT
ATOM      1  C   UNL     1       1.144   9.268  19.032  0.00  0.00    +0.000 A 
ATOM      2  C   UNL     1       0.391  10.283  18.582  0.00  0.00    +0.000 A 
ATOM      3  N   UNL     1      -0.560  10.977  19.311  0.00  0.00    +0.000 N 
ATOM      4  C   UNL     1      -0.638  10.769  20.715  0.00  0.00    +0.000 A 
ATOM      5  N   UNL     1      -1.428  11.561  21.481  0.00  0.00    +0.000 NA
ATOM      6  C   UNL     1      -1.485  11.321  22.807  0.00  0.00    +0.000 A 
ATOM      7 CL   UNL     1      -2.516  12.378  23.676  0.00  0.00    +0.000 Cl
ATOM      8  C   UNL     1      -0.792  10.315  23.450  0.00  0.00    +0.000 A 
ATOM      9  C   UNL     1       0.021   9.502  22.675  0.00  0.00    +0.000 A 
ATOM     10  C   UNL     1       0.101   9.731  21.297  0.00  0.00    +0.000 A 
ATOM     11  C   UNL     1       0.968   8.882  20.452  0.00  0.00    +0.000 A 
ATOM     12  O   UNL     1       1.527   7.900  20.934  0.00  0.00    +0.000 OA
ENDROOT
BRANCH   1  14
ATOM     13  N   UNL     1       2.395   7.301  18.388  0.00  0.00    +0.000 N 
ATOM     14  C   UNL     1       2.070   8.598  18.079  0.00  0.00    +0.000 C 
ATOM     15  O   UNL     1       2.483   9.172  17.075  0.00  0.00    +0.000 OA
ATOM     16  H   UNL     1       1.971   6.880  19.219  0.00  0.00    +0.000 HD
BRANCH  13  21
ATOM     17  C   UNL     1       6.139   3.685  15.928  0.00  0.00    +0.000 C 
ATOM     18  C   UNL     1       5.343   4.514  16.934  0.00  0.00    +0.000 C 
ATOM     19  C   UNL     1       5.527   6.013  16.661  0.00  0.00    +0.000 C 
ATOM     20  C   UNL     1       4.675   6.870  17.594  0.00  0.00    +0.000 C 
ATOM     21  C   UNL     1       3.201   6.472  17.513  0.00  0.00    +0.000 C 
ATOM     22  C   UNL     1       3.023   4.985  17.839  0.00  0.00    +0.000 C 
ATOM     23  C   UNL     1       3.860   4.119  16.900  0.00  0.00    +0.000 C 
ENDBRANCH  13  21
ENDBRANCH   1  14
BRANCH   3  24
ATOM     24  C   UNL     1      -1.301  12.156  18.820  0.00  0.00    +0.000 C 
BRANCH  24  25
ATOM     25  C   UNL     1      -2.290  11.864  17.658  0.00  0.00    +0.000 C 
BRANCH  25  26
ATOM     26  N   UNL     1      -3.544  11.272  18.146  0.00  0.00    +0.000 NA
ATOM     27  C   UNL     1      -4.613  11.129  17.137  0.00  0.00    +0.000 C 
ATOM     28  C   UNL     1      -5.661  12.253  17.075  0.00  0.00    +0.000 C 
ATOM     29  O   UNL     1      -6.155  12.596  18.370  0.00  0.00    +0.000 OA
ATOM     30  C   UNL     1      -5.069  13.013  19.202  0.00  0.00    +0.000 C 
ATOM     31  C   UNL     1      -4.057  11.874  19.388  0.00  0.00    +0.000 C 
ENDBRANCH  25  26
ENDBRANCH  24  25
ENDBRANCH   3  24
TORSDOF 5
ENDMDL
