MODEL 1
REMARK VINA RESULT:      -7.5      0.000      0.000
REMARK  Name = 
REMARK  5 active torsions:
REMARK  status: ('A' for Active; 'I' for Inactive)
REMARK    1  A    between atoms: C_1  and  C_2
REMARK    2  A    between atoms: C_4  and  C_5
REMARK    3  A    between atoms: C_8  and  S_9
REMARK    4  A    between atoms: S_9  and  N_10
REMARK    5  A    between atoms: C_15  and  C_16
REMARK                            x       y       z     vdW  Elec       q    Type
REMARK                         _______ _______ _______ _____ _____    ______ ____
ROOT
ATOM      1  C   UNL     1       1.791   2.189  22.011  0.00  0.00    +0.000 C 
ATOM      2  C   UNL     1       2.302   3.156  21.000  0.00  0.00    +0.000 A 
ATOM      3  N   UNL     1       1.915   4.406  20.903  0.00  0.00    +0.000 NA
ATOM      4  C   UNL     1       2.563   5.033  19.841  0.00  0.00    +0.000 A 
ATOM      5  C   UNL     1       3.493   4.243  19.161  0.00  0.00    +0.000 A 
ATOM      6  S   UNL     1       3.482   2.661  19.868  0.00  0.00    +0.000 S 
ENDROOT
BRANCH   5   7
ATOM      7  C   UNL     1       4.429   4.527  18.053  0.00  0.00    +0.000 A 
ATOM      8  C   UNL     1       4.164   4.064  16.753  0.00  0.00    +0.000 A 
ATOM      9  C   UNL     1       5.077   4.263  15.711  0.00  0.00    +0.000 A 
ATOM     10  C   UNL     1       6.246   4.979  15.944  0.00  0.00    +0.000 A 
ATOM     11 CL   UNL     1       7.359   5.239  14.660  0.00  0.00    +0.000 Cl
ATOM     12  C   UNL     1       6.514   5.485  17.211  0.00  0.00    +0.000 A 
ATOM     13  C   UNL     1       5.619   5.249  18.260  0.00  0.00    +0.000 A 
ENDBRANCH   5   7
BRANCH   4  14
ATOM     14  C   UNL     1       2.245   6.432  19.555  0.00  0.00    +0.000 A 
ATOM     15  C   UNL     1       1.701   7.237  20.570  0.00  0.00    +0.000 A 
ATOM     16  C   UNL     1       1.418   8.588  20.339  0.00  0.00    +0.000 A 
ATOM     17  C   UNL     1       1.696   9.146  19.090  0.00  0.00    +0.000 A 
ATOM     18  C   UNL     1       2.206   8.353  18.058  0.00  0.00    +0.000 A 
ATOM     19  C   UNL     1       2.456   6.997  18.288  0.00  0.00    +0.000 A 
BRANCH  17  20
ATOM     20  S   UNL     1       1.318  10.838  18.775  0.00  0.00    +0.000 S 
ATOM     21  O   UNL     1       0.909  11.481  20.003  0.00  0.00    +0.000 OA
ATOM     22  O   UNL     1       2.330  11.400  17.910  0.00  0.00    +0.000 OA
BRANCH  20  23
ATOM     23  N   UNL     1      -0.072  10.723  17.834  0.00  0.00    +0.000 NA
ATOM     24  H   UNL     1      -0.079   9.826  17.349  0.00  0.00    +0.000 HD
ATOM     25  H   UNL     1      -0.894  10.879  18.417  0.00  0.00    +0.000 HD
ENDBRANCH  20  23
ENDBRANCH  17  20
ENDBRANCH   4  14
TORSDOF 4
ENDMDL
MODEL 2
REMARK VINA RESULT:      -7.5      0.187      1.026
REMARK  Name = 
REMARK  5 active torsions:
REMARK  status: ('A' for Active; 'I' for Inactive)
REMARK    1  A    between atoms: C_1  and  C_2
REMARK    2  A    between atoms: C_4  and  C_5
REMARK    3  A    between atoms: C_8  and  S_9
REMARK    4  A    between atoms: S_9  and  N_10
REMARK    5  A    between atoms: C_15  and  C_16
REMARK                            x       y       z     vdW  Elec       q    Type
REMARK                         _______ _______ _______ _____ _____    ______ ____
ROOT
ATOM      1  C   UNL     1       1.614   2.235  22.059  0.00  0.00    +0.000 C 
ATOM      2  C   UNL     1       2.181   3.179  21.056  0.00  0.00    +0.000 A 
ATOM      3  N   UNL     1       1.840   4.441  20.946  0.00  0.00    +0.000 NA
ATOM      4  C   UNL     1       2.532   5.040  19.896  0.00  0.00    +0.000 A 
ATOM      5  C   UNL     1       3.449   4.216  19.240  0.00  0.00    +0.000 A 
ATOM      6  S   UNL     1       3.368   2.639  19.952  0.00  0.00    +0.000 S 
ENDROOT
BRANCH   5   7
ATOM      7  C   UNL     1       4.419   4.462  18.153  0.00  0.00    +0.000 A 
ATOM      8  C   UNL     1       4.134   4.069  16.834  0.00  0.00    +0.000 A 
ATOM      9  C   UNL     1       5.073   4.230  15.809  0.00  0.00    +0.000 A 
ATOM     10  C   UNL     1       6.293   4.841  16.078  0.00  0.00    +0.000 A 
ATOM     11 CL   UNL     1       7.439   5.056  14.815  0.00  0.00    +0.000 Cl
ATOM     12  C   UNL     1       6.585   5.278  17.365  0.00  0.00    +0.000 A 
ATOM     13  C   UNL     1       5.660   5.079  18.397  0.00  0.00    +0.000 A 
ENDBRANCH   5   7
BRANCH   4  14
ATOM     14  C   UNL     1       2.269   6.449  19.598  0.00  0.00    +0.000 A 
ATOM     15  C   UNL     1       2.536   6.942  18.310  0.00  0.00    +0.000 A 
ATOM     16  C   UNL     1       2.263   8.275  17.982  0.00  0.00    +0.000 A 
ATOM     17  C   UNL     1       1.704   9.119  18.943  0.00  0.00    +0.000 A 
ATOM     18  C   UNL     1       1.463   8.656  20.239  0.00  0.00    +0.000 A 
ATOM     19  C   UNL     1       1.767   7.331  20.567  0.00  0.00    +0.000 A 
BRANCH  17  20
ATOM     20  S   UNL     1       1.382  10.808  18.555  0.00  0.00    +0.000 S 
ATOM     21  O   UNL     1       1.191  11.558  19.776  0.00  0.00    +0.000 OA
ATOM     22  O   UNL     1       2.290  11.242  17.518  0.00  0.00    +0.000 OA
BRANCH  20  23
ATOM     23  N   UNL     1      -0.133  10.724  17.828  0.00  0.00    +0.000 NA
ATOM     24  H   UNL     1      -0.472   9.762  17.865  0.00  0.00    +0.000 HD
ATOM     25  H   UNL     1      -0.761  11.396  18.267  0.00  0.00    +0.000 HD
ENDBRANCH  20  23
ENDBRANCH  17  20
ENDBRANCH   4  14
TORSDOF 4
ENDMDL
MODEL 3
REMARK VINA RESULT:      -7.5      0.249      1.032
REMARK  Name = 
REMARK  5 active torsions:
REMARK  status: ('A' for Active; 'I' for Inactive)
REMARK    1  A    between atoms: C_1  and  C_2
REMARK    2  A    between atoms: C_4  and  C_5
REMARK    3  A    between atoms: C_8  and  S_9
REMARK    4  A    between atoms: S_9  and  N_10
REMARK    5  A    between atoms: C_15  and  C_16
REMARK                            x       y       z     vdW  Elec       q    Type
REMARK                         _______ _______ _______ _____ _____    ______ ____
ROOT
ATOM      1  C   UNL     1       1.580   2.188  22.174  0.00  0.00    +0.000 C 
ATOM      2  C   UNL     1       2.146   3.101  21.143  0.00  0.00    +0.000 A 
ATOM      3  N   UNL     1       1.792   4.355  20.983  0.00  0.00    +0.000 NA
ATOM      4  C   UNL     1       2.488   4.923  19.919  0.00  0.00    +0.000 A 
ATOM      5  C   UNL     1       3.421   4.086  19.302  0.00  0.00    +0.000 A 
ATOM      6  S   UNL     1       3.349   2.534  20.071  0.00  0.00    +0.000 S 
ENDROOT
BRANCH   5   7
ATOM      7  C   UNL     1       4.398   4.302  18.215  0.00  0.00    +0.000 A 
ATOM      8  C   UNL     1       5.648   4.889  18.480  0.00  0.00    +0.000 A 
ATOM      9  C   UNL     1       6.553   5.167  17.450  0.00  0.00    +0.000 A 
ATOM     10  C   UNL     1       6.243   4.808  16.142  0.00  0.00    +0.000 A 
ATOM     11 CL   UNL     1       7.362   5.132  14.878  0.00  0.00    +0.000 Cl
ATOM     12  C   UNL     1       5.032   4.188  15.857  0.00  0.00    +0.000 A 
ATOM     13  C   UNL     1       4.111   3.949  16.884  0.00  0.00    +0.000 A 
ENDBRANCH   5   7
BRANCH   4  14
ATOM     14  C   UNL     1       2.213   6.317  19.567  0.00  0.00    +0.000 A 
ATOM     15  C   UNL     1       1.709   7.189  20.546  0.00  0.00    +0.000 A 
ATOM     16  C   UNL     1       1.469   8.536  20.252  0.00  0.00    +0.000 A 
ATOM     17  C   UNL     1       1.749   9.021  18.974  0.00  0.00    +0.000 A 
ATOM     18  C   UNL     1       2.219   8.161  17.977  0.00  0.00    +0.000 A 
ATOM     19  C   UNL     1       2.427   6.810  18.271  0.00  0.00    +0.000 A 
BRANCH  17  20
ATOM     20  S   UNL     1       1.424  10.708  18.578  0.00  0.00    +0.000 S 
ATOM     21  O   UNL     1       1.191  11.454  19.794  0.00  0.00    +0.000 OA
ATOM     22  O   UNL     1       2.357  11.150  17.568  0.00  0.00    +0.000 OA
BRANCH  20  23
ATOM     23  N   UNL     1      -0.069  10.611  17.808  0.00  0.00    +0.000 NA
ATOM     24  H   UNL     1      -0.045   9.862  17.116  0.00  0.00    +0.000 HD
ATOM     25  H   UNL     1      -0.806  10.501  18.504  0.00  0.00    +0.000 HD
ENDBRANCH  20  23
ENDBRANCH  17  20
ENDBRANCH   4  14
TORSDOF 4
ENDMDL
MODEL 4
REMARK VINA RESULT:      -7.3      0.246      1.443
REMARK  Name = 
REMARK  5 active torsions:
REMARK  status: ('A' for Active; 'I' for Inactive)
REMARK    1  A    between atoms: C_1  and  C_2
REMARK    2  A    between atoms: C_4  and  C_5
REMARK    3  A    between atoms: C_8  and  S_9
REMARK    4  A    between atoms: S_9  and  N_10
REMARK    5  A    between atoms: C_15  and  C_16
REMARK                            x       y       z     vdW  Elec       q    Type
REMARK                         _______ _______ _______ _____ _____    ______ ____
ROOT
ATOM      1  C   UNL     1       1.733   2.160  22.231  0.00  0.00    +0.000 C 
ATOM      2  C   UNL     1       2.276   3.091  21.204  0.00  0.00    +0.000 A 
ATOM      3  N   UNL     1       1.914   4.346  21.070  0.00  0.00    +0.000 NA
ATOM      4  C   UNL     1       2.588   4.933  20.002  0.00  0.00    +0.000 A 
ATOM      5  C   UNL     1       3.513   4.110  19.355  0.00  0.00    +0.000 A 
ATOM      6  S   UNL     1       3.462   2.547  20.101  0.00  0.00    +0.000 S 
ENDROOT
BRANCH   5   7
ATOM      7  C   UNL     1       4.469   4.348  18.255  0.00  0.00    +0.000 A 
ATOM      8  C   UNL     1       5.688   5.005  18.493  0.00  0.00    +0.000 A 
ATOM      9  C   UNL     1       6.570   5.302  17.447  0.00  0.00    +0.000 A 
ATOM     10  C   UNL     1       6.269   4.894  16.152  0.00  0.00    +0.000 A 
ATOM     11 CL   UNL     1       7.360   5.241  14.870  0.00  0.00    +0.000 Cl
ATOM     12  C   UNL     1       5.089   4.204  15.894  0.00  0.00    +0.000 A 
ATOM     13  C   UNL     1       4.190   3.945  16.935  0.00  0.00    +0.000 A 
ENDBRANCH   5   7
BRANCH   4  14
ATOM     14  C   UNL     1       2.300   6.331  19.677  0.00  0.00    +0.000 A 
ATOM     15  C   UNL     1       2.533   6.797  18.372  0.00  0.00    +0.000 A 
ATOM     16  C   UNL     1       2.236   8.118  18.019  0.00  0.00    +0.000 A 
ATOM     17  C   UNL     1       1.686   8.977  18.971  0.00  0.00    +0.000 A 
ATOM     18  C   UNL     1       1.478   8.542  20.283  0.00  0.00    +0.000 A 
ATOM     19  C   UNL     1       1.807   7.229  20.635  0.00  0.00    +0.000 A 
BRANCH  17  20
ATOM     20  S   UNL     1       1.333  10.653  18.551  0.00  0.00    +0.000 S 
ATOM     21  O   UNL     1       1.043  11.403  19.752  0.00  0.00    +0.000 OA
ATOM     22  O   UNL     1       2.288  11.109  17.568  0.00  0.00    +0.000 OA
BRANCH  20  23
ATOM     23  N   UNL     1      -0.131  10.514  17.734  0.00  0.00    +0.000 NA
ATOM     24  H   UNL     1      -0.479  11.445  17.502  0.00  0.00    +0.000 HD
ATOM     25  H   UNL     1      -0.014   9.908  16.922  0.00  0.00    +0.000 HD
ENDBRANCH  20  23
ENDBRANCH  17  20
ENDBRANCH   4  14
TORSDOF 4
ENDMDL
MODEL 5
REMARK VINA RESULT:      -7.0      2.963      4.525
REMARK  Name = 
REMARK  5 active torsions:
REMARK  status: ('A' for Active; 'I' for Inactive)
REMARK    1  A    between atoms: C_1  and  C_2
REMARK    2  A    between atoms: C_4  and  C_5
REMARK    3  A    between atoms: C_8  and  S_9
REMARK    4  A    between atoms: S_9  and  N_10
REMARK    5  A    between atoms: C_15  and  C_16
REMARK                            x       y       z     vdW  Elec       q    Type
REMARK                         _______ _______ _______ _____ _____    ______ ____
ROOT
ATOM      1  C   UNL     1       6.015   5.279  15.042  0.00  0.00    +0.000 C 
ATOM      2  C   UNL     1       5.072   5.325  16.194  0.00  0.00    +0.000 A 
ATOM      3  N   UNL     1       4.420   6.396  16.581  0.00  0.00    +0.000 NA
ATOM      4  C   UNL     1       3.643   6.113  17.700  0.00  0.00    +0.000 A 
ATOM      5  C   UNL     1       3.677   4.783  18.129  0.00  0.00    +0.000 A 
ATOM      6  S   UNL     1       4.772   3.913  17.107  0.00  0.00    +0.000 S 
ENDROOT
BRANCH   5   7
ATOM      7  C   UNL     1       2.964   4.056  19.199  0.00  0.00    +0.000 A 
ATOM      8  C   UNL     1       1.562   3.966  19.195  0.00  0.00    +0.000 A 
ATOM      9  C   UNL     1       0.870   3.344  20.240  0.00  0.00    +0.000 A 
ATOM     10  C   UNL     1       1.578   2.751  21.281  0.00  0.00    +0.000 A 
ATOM     11 CL   UNL     1       0.730   1.970  22.556  0.00  0.00    +0.000 Cl
ATOM     12  C   UNL     1       2.968   2.788  21.289  0.00  0.00    +0.000 A 
ATOM     13  C   UNL     1       3.655   3.447  20.263  0.00  0.00    +0.000 A 
ENDBRANCH   5   7
BRANCH   4  14
ATOM     14  C   UNL     1       2.855   7.192  18.298  0.00  0.00    +0.000 A 
ATOM     15  C   UNL     1       2.471   7.100  19.646  0.00  0.00    +0.000 A 
ATOM     16  C   UNL     1       1.747   8.131  20.257  0.00  0.00    +0.000 A 
ATOM     17  C   UNL     1       1.419   9.271  19.522  0.00  0.00    +0.000 A 
ATOM     18  C   UNL     1       1.765   9.366  18.171  0.00  0.00    +0.000 A 
ATOM     19  C   UNL     1       2.460   8.318  17.559  0.00  0.00    +0.000 A 
BRANCH  17  20
ATOM     20  S   UNL     1       0.483  10.565  20.268  0.00  0.00    +0.000 S 
ATOM     21  O   UNL     1      -0.922  10.364  19.998  0.00  0.00    +0.000 OA
ATOM     22  O   UNL     1       0.986  10.810  21.600  0.00  0.00    +0.000 OA
BRANCH  20  23
ATOM     23  N   UNL     1       0.937  11.903  19.356  0.00  0.00    +0.000 NA
ATOM     24  H   UNL     1       0.362  11.950  18.514  0.00  0.00    +0.000 HD
ATOM     25  H   UNL     1       0.887  12.743  19.931  0.00  0.00    +0.000 HD
ENDBRANCH  20  23
ENDBRANCH  17  20
ENDBRANCH   4  14
TORSDOF 4
ENDMDL
MODEL 6
REMARK VINA RESULT:      -7.0      3.031      4.655
REMARK  Name = 
REMARK  5 active torsions:
REMARK  status: ('A' for Active; 'I' for Inactive)
REMARK    1  A    between atoms: C_1  and  C_2
REMARK    2  A    between atoms: C_4  and  C_5
REMARK    3  A    between atoms: C_8  and  S_9
REMARK    4  A    between atoms: S_9  and  N_10
REMARK    5  A    between atoms: C_15  and  C_16
REMARK                            x       y       z     vdW  Elec       q    Type
REMARK                         _______ _______ _______ _____ _____    ______ ____
ROOT
ATOM      1  C   UNL     1       5.777   5.557  15.064  0.00  0.00    +0.000 C 
ATOM      2  C   UNL     1       4.874   5.549  16.248  0.00  0.00    +0.000 A 
ATOM      3  N   UNL     1       4.235   6.601  16.705  0.00  0.00    +0.000 NA
ATOM      4  C   UNL     1       3.496   6.265  17.836  0.00  0.00    +0.000 A 
ATOM      5  C   UNL     1       3.547   4.918  18.203  0.00  0.00    +0.000 A 
ATOM      6  S   UNL     1       4.607   4.097  17.107  0.00  0.00    +0.000 S 
ENDROOT
BRANCH   5   7
ATOM      7  C   UNL     1       2.871   4.142  19.264  0.00  0.00    +0.000 A 
ATOM      8  C   UNL     1       1.470   4.040  19.297  0.00  0.00    +0.000 A 
ATOM      9  C   UNL     1       0.815   3.370  20.336  0.00  0.00    +0.000 A 
ATOM     10  C   UNL     1       1.558   2.743  21.330  0.00  0.00    +0.000 A 
ATOM     11 CL   UNL     1       0.754   1.903  22.597  0.00  0.00    +0.000 Cl
ATOM     12  C   UNL     1       2.947   2.791  21.300  0.00  0.00    +0.000 A 
ATOM     13  C   UNL     1       3.598   3.497  20.282  0.00  0.00    +0.000 A 
ENDBRANCH   5   7
BRANCH   4  14
ATOM     14  C   UNL     1       2.729   7.315  18.508  0.00  0.00    +0.000 A 
ATOM     15  C   UNL     1       2.338   8.454  17.783  0.00  0.00    +0.000 A 
ATOM     16  C   UNL     1       1.573   9.459  18.386  0.00  0.00    +0.000 A 
ATOM     17  C   UNL     1       1.182   9.320  19.719  0.00  0.00    +0.000 A 
ATOM     18  C   UNL     1       1.589   8.211  20.465  0.00  0.00    +0.000 A 
ATOM     19  C   UNL     1       2.379   7.226  19.864  0.00  0.00    +0.000 A 
BRANCH  17  20
ATOM     20  S   UNL     1       0.244  10.591  20.501  0.00  0.00    +0.000 S 
ATOM     21  O   UNL     1       1.139  11.582  21.057  0.00  0.00    +0.000 OA
ATOM     22  O   UNL     1      -0.873  10.948  19.658  0.00  0.00    +0.000 OA
BRANCH  20  23
ATOM     23  N   UNL     1      -0.419   9.784  21.820  0.00  0.00    +0.000 NA
ATOM     24  H   UNL     1       0.285   9.700  22.554  0.00  0.00    +0.000 HD
ATOM     25  H   UNL     1      -1.268  10.260  22.121  0.00  0.00    +0.000 HD
ENDBRANCH  20  23
ENDBRANCH  17  20
ENDBRANCH   4  14
TORSDOF 4
ENDMDL
MODEL 7
REMARK VINA RESULT:      -7.0      3.049      4.590
REMARK  Name = 
REMARK  5 active torsions:
REMARK  status: ('A' for Active; 'I' for Inactive)
REMARK    1  A    between atoms: C_1  and  C_2
REMARK    2  A    between atoms: C_4  and  C_5
REMARK    3  A    between atoms: C_8  and  S_9
REMARK    4  A    between atoms: S_9  and  N_10
REMARK    5  A    between atoms: C_15  and  C_16
REMARK                            x       y       z     vdW  Elec       q    Type
REMARK                         _______ _______ _______ _____ _____    ______ ____
ROOT
ATOM      1  C   UNL     1       5.825   5.637  15.150  0.00  0.00    +0.000 C 
ATOM      2  C   UNL     1       4.895   5.611  16.313  0.00  0.00    +0.000 A 
ATOM      3  N   UNL     1       4.216   6.647  16.748  0.00  0.00    +0.000 NA
ATOM      4  C   UNL     1       3.462   6.297  17.865  0.00  0.00    +0.000 A 
ATOM      5  C   UNL     1       3.542   4.955  18.242  0.00  0.00    +0.000 A 
ATOM      6  S   UNL     1       4.650   4.157  17.176  0.00  0.00    +0.000 S 
ENDROOT
BRANCH   5   7
ATOM      7  C   UNL     1       2.864   4.166  19.293  0.00  0.00    +0.000 A 
ATOM      8  C   UNL     1       1.468   4.012  19.286  0.00  0.00    +0.000 A 
ATOM      9  C   UNL     1       0.807   3.330  20.315  0.00  0.00    +0.000 A 
ATOM     10  C   UNL     1       1.543   2.743  21.338  0.00  0.00    +0.000 A 
ATOM     11 CL   UNL     1       0.734   1.889  22.591  0.00  0.00    +0.000 Cl
ATOM     12  C   UNL     1       2.930   2.843  21.347  0.00  0.00    +0.000 A 
ATOM     13  C   UNL     1       3.584   3.560  20.339  0.00  0.00    +0.000 A 
ENDBRANCH   5   7
BRANCH   4  14
ATOM     14  C   UNL     1       2.650   7.329  18.512  0.00  0.00    +0.000 A 
ATOM     15  C   UNL     1       2.326   7.198  19.873  0.00  0.00    +0.000 A 
ATOM     16  C   UNL     1       1.580   8.184  20.530  0.00  0.00    +0.000 A 
ATOM     17  C   UNL     1       1.170   9.318  19.828  0.00  0.00    +0.000 A 
ATOM     18  C   UNL     1       1.455   9.451  18.466  0.00  0.00    +0.000 A 
ATOM     19  C   UNL     1       2.173   8.446  17.810  0.00  0.00    +0.000 A 
BRANCH  17  20
ATOM     20  S   UNL     1       0.206  10.555  20.633  0.00  0.00    +0.000 S 
ATOM     21  O   UNL     1       1.072  11.608  21.114  0.00  0.00    +0.000 OA
ATOM     22  O   UNL     1      -0.975  10.827  19.848  0.00  0.00    +0.000 OA
BRANCH  20  23
ATOM     23  N   UNL     1      -0.335   9.746  22.006  0.00  0.00    +0.000 NA
ATOM     24  H   UNL     1       0.434   9.209  22.407  0.00  0.00    +0.000 HD
ATOM     25  H   UNL     1      -0.750  10.414  22.656  0.00  0.00    +0.000 HD
ENDBRANCH  20  23
ENDBRANCH  17  20
ENDBRANCH   4  14
TORSDOF 4
ENDMDL
MODEL 8
REMARK VINA RESULT:      -6.9      2.994      4.725
REMARK  Name = 
REMARK  5 active torsions:
REMARK  status: ('A' for Active; 'I' for Inactive)
REMARK    1  A    between atoms: C_1  and  C_2
REMARK    2  A    between atoms: C_4  and  C_5
REMARK    3  A    between atoms: C_8  and  S_9
REMARK    4  A    between atoms: S_9  and  N_10
REMARK    5  A    between atoms: C_15  and  C_16
REMARK                            x       y       z     vdW  Elec       q    Type
REMARK                         _______ _______ _______ _____ _____    ______ ____
ROOT
ATOM      1  C   UNL     1       5.781   5.462  15.121  0.00  0.00    +0.000 C 
ATOM      2  C   UNL     1       4.861   5.513  16.290  0.00  0.00    +0.000 A 
ATOM      3  N   UNL     1       4.230   6.590  16.697  0.00  0.00    +0.000 NA
ATOM      4  C   UNL     1       3.471   6.309  17.829  0.00  0.00    +0.000 A 
ATOM      5  C   UNL     1       3.496   4.977  18.249  0.00  0.00    +0.000 A 
ATOM      6  S   UNL     1       4.560   4.099  17.201  0.00  0.00    +0.000 S 
ENDROOT
BRANCH   5   7
ATOM      7  C   UNL     1       2.794   4.252  19.328  0.00  0.00    +0.000 A 
ATOM      8  C   UNL     1       3.503   3.748  20.433  0.00  0.00    +0.000 A 
ATOM      9  C   UNL     1       2.862   2.997  21.425  0.00  0.00    +0.000 A 
ATOM     10  C   UNL     1       1.490   2.788  21.356  0.00  0.00    +0.000 A 
ATOM     11 CL   UNL     1       0.699   1.882  22.585  0.00  0.00    +0.000 Cl
ATOM     12  C   UNL     1       0.756   3.312  20.297  0.00  0.00    +0.000 A 
ATOM     13  C   UNL     1       1.406   4.027  19.284  0.00  0.00    +0.000 A 
ENDBRANCH   5   7
BRANCH   4  14
ATOM     14  C   UNL     1       2.709   7.395  18.448  0.00  0.00    +0.000 A 
ATOM     15  C   UNL     1       2.346   8.511  17.675  0.00  0.00    +0.000 A 
ATOM     16  C   UNL     1       1.588   9.550  18.227  0.00  0.00    +0.000 A 
ATOM     17  C   UNL     1       1.174   9.467  19.557  0.00  0.00    +0.000 A 
ATOM     18  C   UNL     1       1.553   8.381  20.351  0.00  0.00    +0.000 A 
ATOM     19  C   UNL     1       2.337   7.362  19.801  0.00  0.00    +0.000 A 
BRANCH  17  20
ATOM     20  S   UNL     1       0.243  10.780  20.276  0.00  0.00    +0.000 S 
ATOM     21  O   UNL     1      -1.117  10.732  19.791  0.00  0.00    +0.000 OA
ATOM     22  O   UNL     1       0.558  10.874  21.683  0.00  0.00    +0.000 OA
BRANCH  20  23
ATOM     23  N   UNL     1       0.935  12.138  19.562  0.00  0.00    +0.000 NA
ATOM     24  H   UNL     1       1.924  12.183  19.809  0.00  0.00    +0.000 HD
ATOM     25  H   UNL     1       0.766  12.120  18.557  0.00  0.00    +0.000 HD
ENDBRANCH  20  23
ENDBRANCH  17  20
ENDBRANCH   4  14
TORSDOF 4
ENDMDL
MODEL 9
REMARK VINA RESULT:      -6.8      2.951      4.650
REMARK  Name = 
REMARK  5 active torsions:
REMARK  status: ('A' for Active; 'I' for Inactive)
REMARK    1  A    between atoms: C_1  and  C_2
REMARK    2  A    between atoms: C_4  and  C_5
REMARK    3  A    between atoms: C_8  and  S_9
REMARK    4  A    between atoms: S_9  and  N_10
REMARK    5  A    between atoms: C_15  and  C_16
REMARK                            x       y       z     vdW  Elec       q    Type
REMARK                         _______ _______ _______ _____ _____    ______ ____
ROOT
ATOM      1  C   UNL     1       5.985   5.299  15.134  0.00  0.00    +0.000 C 
ATOM      2  C   UNL     1       5.032   5.375  16.275  0.00  0.00    +0.000 A 
ATOM      3  N   UNL     1       4.375   6.455  16.627  0.00  0.00    +0.000 NA
ATOM      4  C   UNL     1       3.588   6.202  17.747  0.00  0.00    +0.000 A 
ATOM      5  C   UNL     1       3.621   4.885  18.213  0.00  0.00    +0.000 A 
ATOM      6  S   UNL     1       4.727   3.988  17.225  0.00  0.00    +0.000 S 
ENDROOT
BRANCH   5   7
ATOM      7  C   UNL     1       2.901   4.187  19.298  0.00  0.00    +0.000 A 
ATOM      8  C   UNL     1       3.600   3.639  20.387  0.00  0.00    +0.000 A 
ATOM      9  C   UNL     1       2.938   2.912  21.383  0.00  0.00    +0.000 A 
ATOM     10  C   UNL     1       1.555   2.772  21.333  0.00  0.00    +0.000 A 
ATOM     11 CL   UNL     1       0.739   1.896  22.567  0.00  0.00    +0.000 Cl
ATOM     12  C   UNL     1       0.833   3.341  20.289  0.00  0.00    +0.000 A 
ATOM     13  C   UNL     1       1.503   4.031  19.273  0.00  0.00    +0.000 A 
ENDBRANCH   5   7
BRANCH   4  14
ATOM     14  C   UNL     1       2.794   7.296  18.307  0.00  0.00    +0.000 A 
ATOM     15  C   UNL     1       2.371   7.226  19.645  0.00  0.00    +0.000 A 
ATOM     16  C   UNL     1       1.640   8.271  20.222  0.00  0.00    +0.000 A 
ATOM     17  C   UNL     1       1.342   9.403  19.461  0.00  0.00    +0.000 A 
ATOM     18  C   UNL     1       1.725   9.476  18.119  0.00  0.00    +0.000 A 
ATOM     19  C   UNL     1       2.428   8.414  17.542  0.00  0.00    +0.000 A 
BRANCH  17  20
ATOM     20  S   UNL     1       0.397  10.715  20.163  0.00  0.00    +0.000 S 
ATOM     21  O   UNL     1       0.833  11.977  19.609  0.00  0.00    +0.000 OA
ATOM     22  O   UNL     1      -0.995  10.331  20.205  0.00  0.00    +0.000 OA
BRANCH  20  23
ATOM     23  N   UNL     1       0.919  10.714  21.762  0.00  0.00    +0.000 NA
ATOM     24  H   UNL     1       0.888   9.762  22.127  0.00  0.00    +0.000 HD
ATOM     25  H   UNL     1       1.842  11.143  21.822  0.00  0.00    +0.000 HD
ENDBRANCH  20  23
ENDBRANCH  17  20
ENDBRANCH   4  14
TORSDOF 4
ENDMDL
