MODEL 1
REMARK VINA RESULT:      -6.4      0.000      0.000
REMARK  Name = 
REMARK  1 active torsions:
REMARK  status: ('A' for Active; 'I' for Inactive)
REMARK    1  A    between atoms: C_1  and  C_2
REMARK                            x       y       z     vdW  Elec       q    Type
REMARK                         _______ _______ _______ _____ _____    ______ ____
ROOT
ATOM      1  C   UNL     1       2.514   7.494  18.450  0.00  0.00    +0.000 C 
ATOM      2  C   UNL     1       3.262   6.208  18.507  0.00  0.00    +0.000 C 
ATOM      3  C   UNL     1       4.331   5.892  17.752  0.00  0.00    +0.000 C 
ATOM      4  S   UNL     1       4.941   4.298  18.094  0.00  0.00    +0.000 S 
ATOM      5  O   UNL     1       4.686   3.432  16.963  0.00  0.00    +0.000 OA
ATOM      6  O   UNL     1       6.230   4.404  18.743  0.00  0.00    +0.000 OA
ATOM      7  C   UNL     1       3.732   4.013  19.300  0.00  0.00    +0.000 A 
ATOM      8  C   UNL     1       3.594   2.869  20.045  0.00  0.00    +0.000 A 
ATOM      9  F   UNL     1       4.419   1.829  19.897  0.00  0.00    +0.000 F 
ATOM     10  C   UNL     1       2.562   2.814  20.975  0.00  0.00    +0.000 A 
ATOM     11  C   UNL     1       1.696   3.910  21.127  0.00  0.00    +0.000 A 
ATOM     12  C   UNL     1       1.859   5.068  20.351  0.00  0.00    +0.000 A 
ATOM     13  C   UNL     1       2.893   5.119  19.424  0.00  0.00    +0.000 A 
ENDROOT
TORSDOF 0
ENDMDL
MODEL 2
REMARK VINA RESULT:      -6.2      1.248      1.248
REMARK  Name = 
REMARK  1 active torsions:
REMARK  status: ('A' for Active; 'I' for Inactive)
REMARK    1  A    between atoms: C_1  and  C_2
REMARK                            x       y       z     vdW  Elec       q    Type
REMARK                         _______ _______ _______ _____ _____    ______ ____
ROOT
ATOM      1  C   UNL     1       2.280   7.235  19.684  0.00  0.00    +0.000 C 
ATOM      2  C   UNL     1       2.956   6.015  19.162  0.00  0.00    +0.000 C 
ATOM      3  C   UNL     1       4.139   5.991  18.521  0.00  0.00    +0.000 C 
ATOM      4  S   UNL     1       4.612   4.382  18.055  0.00  0.00    +0.000 S 
ATOM      5  O   UNL     1       4.551   4.260  16.614  0.00  0.00    +0.000 OA
ATOM      6  O   UNL     1       5.754   3.969  18.842  0.00  0.00    +0.000 OA
ATOM      7  C   UNL     1       3.183   3.684  18.737  0.00  0.00    +0.000 A 
ATOM      8  C   UNL     1       2.861   2.350  18.737  0.00  0.00    +0.000 A 
ATOM      9  F   UNL     1       3.661   1.432  18.185  0.00  0.00    +0.000 F 
ATOM     10  C   UNL     1       1.667   1.964  19.335  0.00  0.00    +0.000 A 
ATOM     11  C   UNL     1       0.828   2.931  19.914  0.00  0.00    +0.000 A 
ATOM     12  C   UNL     1       1.182   4.290  19.899  0.00  0.00    +0.000 A 
ATOM     13  C   UNL     1       2.377   4.670  19.302  0.00  0.00    +0.000 A 
ENDROOT
TORSDOF 0
ENDMDL
MODEL 3
REMARK VINA RESULT:      -6.1      2.854      3.914
REMARK  Name = 
REMARK  1 active torsions:
REMARK  status: ('A' for Active; 'I' for Inactive)
REMARK    1  A    between atoms: C_1  and  C_2
REMARK                            x       y       z     vdW  Elec       q    Type
REMARK                         _______ _______ _______ _____ _____    ______ ____
ROOT
ATOM      1  C   UNL     1       5.226   3.812  13.807  0.00  0.00    +0.000 C 
ATOM      2  C   UNL     1       5.804   4.278  15.097  0.00  0.00    +0.000 C 
ATOM      3  C   UNL     1       7.068   4.708  15.276  0.00  0.00    +0.000 C 
ATOM      4  S   UNL     1       7.387   5.171  16.923  0.00  0.00    +0.000 S 
ATOM      5  O   UNL     1       8.301   4.222  17.521  0.00  0.00    +0.000 OA
ATOM      6  O   UNL     1       7.566   6.606  16.994  0.00  0.00    +0.000 OA
ATOM      7  C   UNL     1       5.775   4.785  17.422  0.00  0.00    +0.000 A 
ATOM      8  C   UNL     1       5.274   4.913  18.694  0.00  0.00    +0.000 A 
ATOM      9  F   UNL     1       6.024   5.367  19.703  0.00  0.00    +0.000 F 
ATOM     10  C   UNL     1       3.949   4.556  18.915  0.00  0.00    +0.000 A 
ATOM     11  C   UNL     1       3.164   4.078  17.852  0.00  0.00    +0.000 A 
ATOM     12  C   UNL     1       3.702   3.957  16.560  0.00  0.00    +0.000 A 
ATOM     13  C   UNL     1       5.026   4.317  16.344  0.00  0.00    +0.000 A 
ENDROOT
TORSDOF 0
ENDMDL
MODEL 4
REMARK VINA RESULT:      -6.1      1.973      3.647
REMARK  Name = 
REMARK  1 active torsions:
REMARK  status: ('A' for Active; 'I' for Inactive)
REMARK    1  A    between atoms: C_1  and  C_2
REMARK                            x       y       z     vdW  Elec       q    Type
REMARK                         _______ _______ _______ _____ _____    ______ ____
ROOT
ATOM      1  C   UNL     1       1.354   2.731  21.592  0.00  0.00    +0.000 C 
ATOM      2  C   UNL     1       1.964   3.215  20.323  0.00  0.00    +0.000 C 
ATOM      3  C   UNL     1       2.457   2.432  19.345  0.00  0.00    +0.000 C 
ATOM      4  S   UNL     1       3.094   3.352  18.012  0.00  0.00    +0.000 S 
ATOM      5  O   UNL     1       4.534   3.214  17.975  0.00  0.00    +0.000 OA
ATOM      6  O   UNL     1       2.245   3.172  16.854  0.00  0.00    +0.000 OA
ATOM      7  C   UNL     1       2.695   4.859  18.765  0.00  0.00    +0.000 A 
ATOM      8  C   UNL     1       2.928   6.106  18.242  0.00  0.00    +0.000 A 
ATOM      9  F   UNL     1       3.509   6.272  17.050  0.00  0.00    +0.000 F 
ATOM     10  C   UNL     1       2.539   7.213  18.988  0.00  0.00    +0.000 A 
ATOM     11  C   UNL     1       1.929   7.035  20.241  0.00  0.00    +0.000 A 
ATOM     12  C   UNL     1       1.703   5.747  20.753  0.00  0.00    +0.000 A 
ATOM     13  C   UNL     1       2.092   4.644  20.003  0.00  0.00    +0.000 A 
ENDROOT
TORSDOF 0
ENDMDL
MODEL 5
REMARK VINA RESULT:      -6.0      1.940      2.573
REMARK  Name = 
REMARK  1 active torsions:
REMARK  status: ('A' for Active; 'I' for Inactive)
REMARK    1  A    between atoms: C_1  and  C_2
REMARK                            x       y       z     vdW  Elec       q    Type
REMARK                         _______ _______ _______ _____ _____    ______ ____
ROOT
ATOM      1  C   UNL     1       4.844   6.025  16.558  0.00  0.00    +0.000 C 
ATOM      2  C   UNL     1       4.115   4.974  17.319  0.00  0.00    +0.000 C 
ATOM      3  C   UNL     1       4.164   3.652  17.067  0.00  0.00    +0.000 C 
ATOM      4  S   UNL     1       3.178   2.728  18.164  0.00  0.00    +0.000 S 
ATOM      5  O   UNL     1       2.048   2.176  17.448  0.00  0.00    +0.000 OA
ATOM      6  O   UNL     1       4.029   1.946  19.035  0.00  0.00    +0.000 OA
ATOM      7  C   UNL     1       2.663   4.145  19.014  0.00  0.00    +0.000 A 
ATOM      8  C   UNL     1       1.808   4.174  20.086  0.00  0.00    +0.000 A 
ATOM      9  F   UNL     1       1.274   3.057  20.591  0.00  0.00    +0.000 F 
ATOM     10  C   UNL     1       1.504   5.408  20.650  0.00  0.00    +0.000 A 
ATOM     11  C   UNL     1       2.067   6.580  20.116  0.00  0.00    +0.000 A 
ATOM     12  C   UNL     1       2.939   6.522  19.017  0.00  0.00    +0.000 A 
ATOM     13  C   UNL     1       3.241   5.286  18.459  0.00  0.00    +0.000 A 
ENDROOT
TORSDOF 0
ENDMDL
MODEL 6
REMARK VINA RESULT:      -6.0      1.954      3.091
REMARK  Name = 
REMARK  1 active torsions:
REMARK  status: ('A' for Active; 'I' for Inactive)
REMARK    1  A    between atoms: C_1  and  C_2
REMARK                            x       y       z     vdW  Elec       q    Type
REMARK                         _______ _______ _______ _____ _____    ______ ____
ROOT
ATOM      1  C   UNL     1       5.332   5.893  15.418  0.00  0.00    +0.000 C 
ATOM      2  C   UNL     1       4.804   5.253  16.654  0.00  0.00    +0.000 C 
ATOM      3  C   UNL     1       5.046   3.987  17.043  0.00  0.00    +0.000 C 
ATOM      4  S   UNL     1       4.257   3.589  18.542  0.00  0.00    +0.000 S 
ATOM      5  O   UNL     1       3.199   2.634  18.291  0.00  0.00    +0.000 OA
ATOM      6  O   UNL     1       5.251   3.422  19.581  0.00  0.00    +0.000 OA
ATOM      7  C   UNL     1       3.564   5.168  18.684  0.00  0.00    +0.000 A 
ATOM      8  C   UNL     1       2.755   5.604  19.704  0.00  0.00    +0.000 A 
ATOM      9  F   UNL     1       2.420   4.808  20.724  0.00  0.00    +0.000 F 
ATOM     10  C   UNL     1       2.287   6.912  19.656  0.00  0.00    +0.000 A 
ATOM     11  C   UNL     1       2.642   7.745  18.582  0.00  0.00    +0.000 A 
ATOM     12  C   UNL     1       3.470   7.274  17.550  0.00  0.00    +0.000 A 
ATOM     13  C   UNL     1       3.937   5.966  17.603  0.00  0.00    +0.000 A 
ENDROOT
TORSDOF 0
ENDMDL
MODEL 7
REMARK VINA RESULT:      -6.0      1.684      3.453
REMARK  Name = 
REMARK  1 active torsions:
REMARK  status: ('A' for Active; 'I' for Inactive)
REMARK    1  A    between atoms: C_1  and  C_2
REMARK                            x       y       z     vdW  Elec       q    Type
REMARK                         _______ _______ _______ _____ _____    ______ ____
ROOT
ATOM      1  C   UNL     1       2.051   2.729  21.741  0.00  0.00    +0.000 C 
ATOM      2  C   UNL     1       2.842   3.318  20.626  0.00  0.00    +0.000 C 
ATOM      3  C   UNL     1       3.795   2.679  19.922  0.00  0.00    +0.000 C 
ATOM      4  S   UNL     1       4.508   3.689  18.696  0.00  0.00    +0.000 S 
ATOM      5  O   UNL     1       5.875   3.993  19.058  0.00  0.00    +0.000 OA
ATOM      6  O   UNL     1       4.116   3.209  17.388  0.00  0.00    +0.000 OA
ATOM      7  C   UNL     1       3.505   5.036  19.117  0.00  0.00    +0.000 A 
ATOM      8  C   UNL     1       3.522   6.270  18.518  0.00  0.00    +0.000 A 
ATOM      9  F   UNL     1       4.354   6.551  17.510  0.00  0.00    +0.000 F 
ATOM     10  C   UNL     1       2.642   7.239  18.986  0.00  0.00    +0.000 A 
ATOM     11  C   UNL     1       1.770   6.939  20.046  0.00  0.00    +0.000 A 
ATOM     12  C   UNL     1       1.773   5.668  20.642  0.00  0.00    +0.000 A 
ATOM     13  C   UNL     1       2.654   4.703  20.170  0.00  0.00    +0.000 A 
ENDROOT
TORSDOF 0
ENDMDL
MODEL 8
REMARK VINA RESULT:      -5.9      2.401      3.514
REMARK  Name = 
REMARK  1 active torsions:
REMARK  status: ('A' for Active; 'I' for Inactive)
REMARK    1  A    between atoms: C_1  and  C_2
REMARK                            x       y       z     vdW  Elec       q    Type
REMARK                         _______ _______ _______ _____ _____    ______ ____
ROOT
ATOM      1  C   UNL     1       2.076   7.326  20.076  0.00  0.00    +0.000 C 
ATOM      2  C   UNL     1       2.198   5.861  19.838  0.00  0.00    +0.000 C 
ATOM      3  C   UNL     1       1.591   4.900  20.559  0.00  0.00    +0.000 C 
ATOM      4  S   UNL     1       1.972   3.300  19.989  0.00  0.00    +0.000 S 
ATOM      5  O   UNL     1       2.797   2.623  20.966  0.00  0.00    +0.000 OA
ATOM      6  O   UNL     1       0.793   2.707  19.393  0.00  0.00    +0.000 OA
ATOM      7  C   UNL     1       2.986   3.910  18.726  0.00  0.00    +0.000 A 
ATOM      8  C   UNL     1       3.674   3.154  17.810  0.00  0.00    +0.000 A 
ATOM      9  F   UNL     1       3.615   1.818  17.814  0.00  0.00    +0.000 F 
ATOM     10  C   UNL     1       4.443   3.815  16.860  0.00  0.00    +0.000 A 
ATOM     11  C   UNL     1       4.503   5.219  16.859  0.00  0.00    +0.000 A 
ATOM     12  C   UNL     1       3.791   5.968  17.809  0.00  0.00    +0.000 A 
ATOM     13  C   UNL     1       3.022   5.303  18.755  0.00  0.00    +0.000 A 
ENDROOT
TORSDOF 0
ENDMDL
MODEL 9
REMARK VINA RESULT:      -5.9      2.192      3.043
REMARK  Name = 
REMARK  1 active torsions:
REMARK  status: ('A' for Active; 'I' for Inactive)
REMARK    1  A    between atoms: C_1  and  C_2
REMARK                            x       y       z     vdW  Elec       q    Type
REMARK                         _______ _______ _______ _____ _____    ______ ____
ROOT
ATOM      1  C   UNL     1       4.804   4.728  16.250  0.00  0.00    +0.000 C 
ATOM      2  C   UNL     1       4.151   4.166  17.464  0.00  0.00    +0.000 C 
ATOM      3  C   UNL     1       4.166   2.871  17.831  0.00  0.00    +0.000 C 
ATOM      4  S   UNL     1       3.293   2.586  19.309  0.00  0.00    +0.000 S 
ATOM      5  O   UNL     1       2.092   1.831  19.021  0.00  0.00    +0.000 OA
ATOM      6  O   UNL     1       4.224   2.234  20.359  0.00  0.00    +0.000 OA
ATOM      7  C   UNL     1       2.876   4.258  19.472  0.00  0.00    +0.000 A 
ATOM      8  C   UNL     1       2.134   4.807  20.488  0.00  0.00    +0.000 A 
ATOM      9  F   UNL     1       1.649   4.063  21.486  0.00  0.00    +0.000 F 
ATOM     10  C   UNL     1       1.896   6.176  20.460  0.00  0.00    +0.000 A 
ATOM     11  C   UNL     1       2.408   6.956  19.409  0.00  0.00    +0.000 A 
ATOM     12  C   UNL     1       3.163   6.368  18.381  0.00  0.00    +0.000 A 
ATOM     13  C   UNL     1       3.400   5.000  18.414  0.00  0.00    +0.000 A 
ENDROOT
TORSDOF 0
ENDMDL
