MODEL 1
REMARK VINA RESULT:      -8.3      0.000      0.000
REMARK  Name = 
REMARK  11 active torsions:
REMARK  status: ('A' for Active; 'I' for Inactive)
REMARK    1  A    between atoms: C_1  and  C_2
REMARK    2  A    between atoms: C_5  and  C_6
REMARK    3  A    between atoms: C_6  and  C_7
REMARK    4  A    between atoms: C_6  and  C_14
REMARK    5  A    between atoms: C_6  and  C_20
REMARK    6  A    between atoms: C_7  and  C_8
REMARK    7  A    between atoms: C_8  and  CA_9
REMARK    8  A    between atoms: CA_9  and  N_10
REMARK    9  A    between atoms: CA_9  and  C_11
REMARK   10  A    between atoms: C_11  and  OXT_13
REMARK   11  A    between atoms: C_24  and  O_25
REMARK                            x       y       z     vdW  Elec       q    Type
REMARK                         _______ _______ _______ _____ _____    ______ ____
ROOT
ATOM      1  C   UNL     1       3.661   5.566  18.652  0.00  0.00    +0.000 C 
ENDROOT
BRANCH   1   6
ATOM      2  C   UNL     1       6.199   4.185  13.469  0.00  0.00    +0.000 C 
ATOM      3  C   UNL     1       5.530   4.524  14.768  0.00  0.00    +0.000 A 
ATOM      4  C   UNL     1       5.107   3.523  15.635  0.00  0.00    +0.000 A 
ATOM      5  C   UNL     1       4.477   3.845  16.843  0.00  0.00    +0.000 A 
ATOM      6  C   UNL     1       4.302   5.177  17.265  0.00  0.00    +0.000 A 
ATOM      7  C   UNL     1       4.699   6.169  16.348  0.00  0.00    +0.000 A 
ATOM      8  C   UNL     1       5.307   5.853  15.124  0.00  0.00    +0.000 A 
ENDBRANCH   1   6
BRANCH   1   9
ATOM      9  C   UNL     1       2.887   6.936  18.657  0.00  0.00    +0.000 A 
ATOM     10  C   UNL     1       2.834   7.799  17.549  0.00  0.00    +0.000 A 
ATOM     11  C   UNL     1       2.053   8.961  17.567  0.00  0.00    +0.000 A 
ATOM     12  C   UNL     1       1.345   9.316  18.711  0.00  0.00    +0.000 A 
ATOM     13  C   UNL     1       1.420   8.512  19.841  0.00  0.00    +0.000 A 
ATOM     14  C   UNL     1       2.176   7.335  19.814  0.00  0.00    +0.000 A 
ENDBRANCH   1   9
BRANCH   1  15
ATOM     15  C   UNL     1       2.661   4.396  19.019  0.00  0.00    +0.000 A 
ATOM     16  C   UNL     1       1.645   3.964  18.147  0.00  0.00    +0.000 A 
ATOM     17  C   UNL     1       0.714   2.991  18.537  0.00  0.00    +0.000 A 
ATOM     18  C   UNL     1       0.758   2.441  19.817  0.00  0.00    +0.000 A 
ATOM     19  C   UNL     1       1.750   2.856  20.691  0.00  0.00    +0.000 A 
ATOM     20  C   UNL     1       2.694   3.802  20.302  0.00  0.00    +0.000 A 
BRANCH  19  21
ATOM     21  O   UNL     1       1.822   2.373  21.964  0.00  0.00    +0.000 OA
ATOM     22  H   UNL     1       2.684   2.615  22.339  0.00  0.00    +0.000 HD
ENDBRANCH  19  21
ENDBRANCH   1  15
BRANCH   1  23
ATOM     23  C   UNL     1       4.776   5.705  19.781  0.00  0.00    +0.000 C 
BRANCH  23  24
ATOM     24  C   UNL     1       6.052   4.841  19.608  0.00  0.00    +0.000 C 
BRANCH  24  25
ATOM     25  CA  UNL     1       7.332   5.656  19.343  0.00  0.00    +0.000 C 
BRANCH  25  26
ATOM     26  N   UNL     1       8.483   5.297  20.227  0.00  0.00    +0.000 NA
ATOM     27  H1  UNL     1       8.226   5.507  21.197  0.00  0.00    +0.000 HD
ATOM     28  H2  UNL     1       9.263   5.923  20.017  0.00  0.00    +0.000 HD
ENDBRANCH  25  26
BRANCH  25  29
ATOM     29  C   UNL     1       7.808   5.464  17.885  0.00  0.00    +0.000 C 
ATOM     30  O   UNL     1       8.068   4.398  17.352  0.00  0.00    +0.000 OA
BRANCH  29  31
ATOM     31  OXT UNL     1       7.882   6.658  17.238  0.00  0.00    +0.000 OA
ATOM     32  HXT UNL     1       7.239   6.596  16.488  0.00  0.00    +0.000 HD
ENDBRANCH  29  31
ENDBRANCH  25  29
ENDBRANCH  24  25
ENDBRANCH  23  24
ENDBRANCH   1  23
TORSDOF 10
ENDMDL
MODEL 2
REMARK VINA RESULT:      -8.2      0.162      1.094
REMARK  Name = 
REMARK  11 active torsions:
REMARK  status: ('A' for Active; 'I' for Inactive)
REMARK    1  A    between atoms: C_1  and  C_2
REMARK    2  A    between atoms: C_5  and  C_6
REMARK    3  A    between atoms: C_6  and  C_7
REMARK    4  A    between atoms: C_6  and  C_14
REMARK    5  A    between atoms: C_6  and  C_20
REMARK    6  A    between atoms: C_7  and  C_8
REMARK    7  A    between atoms: C_8  and  CA_9
REMARK    8  A    between atoms: CA_9  and  N_10
REMARK    9  A    between atoms: CA_9  and  C_11
REMARK   10  A    between atoms: C_11  and  OXT_13
REMARK   11  A    between atoms: C_24  and  O_25
REMARK                            x       y       z     vdW  Elec       q    Type
REMARK                         _______ _______ _______ _____ _____    ______ ____
ROOT
ATOM      1  C   UNL     1       3.611   5.611  18.641  0.00  0.00    +0.000 C 
ENDROOT
BRANCH   1   6
ATOM      2  C   UNL     1       6.005   4.112  13.423  0.00  0.00    +0.000 C 
ATOM      3  C   UNL     1       5.428   4.501  14.751  0.00  0.00    +0.000 A 
ATOM      4  C   UNL     1       5.259   5.838  15.090  0.00  0.00    +0.000 A 
ATOM      5  C   UNL     1       4.726   6.196  16.335  0.00  0.00    +0.000 A 
ATOM      6  C   UNL     1       4.280   5.236  17.264  0.00  0.00    +0.000 A 
ATOM      7  C   UNL     1       4.506   3.891  16.912  0.00  0.00    +0.000 A 
ATOM      8  C   UNL     1       5.064   3.526  15.677  0.00  0.00    +0.000 A 
ENDBRANCH   1   6
BRANCH   1   9
ATOM      9  C   UNL     1       2.844   6.985  18.647  0.00  0.00    +0.000 A 
ATOM     10  C   UNL     1       2.778   7.839  17.533  0.00  0.00    +0.000 A 
ATOM     11  C   UNL     1       2.003   9.005  17.554  0.00  0.00    +0.000 A 
ATOM     12  C   UNL     1       1.315   9.373  18.705  0.00  0.00    +0.000 A 
ATOM     13  C   UNL     1       1.403   8.577  19.840  0.00  0.00    +0.000 A 
ATOM     14  C   UNL     1       2.153   7.397  19.811  0.00  0.00    +0.000 A 
ENDBRANCH   1   9
BRANCH   1  15
ATOM     15  C   UNL     1       2.598   4.441  18.970  0.00  0.00    +0.000 A 
ATOM     16  C   UNL     1       1.599   4.025  18.070  0.00  0.00    +0.000 A 
ATOM     17  C   UNL     1       0.655   3.052  18.428  0.00  0.00    +0.000 A 
ATOM     18  C   UNL     1       0.668   2.486  19.700  0.00  0.00    +0.000 A 
ATOM     19  C   UNL     1       1.642   2.885  20.602  0.00  0.00    +0.000 A 
ATOM     20  C   UNL     1       2.599   3.831  20.246  0.00  0.00    +0.000 A 
BRANCH  19  21
ATOM     21  O   UNL     1       1.683   2.386  21.870  0.00  0.00    +0.000 OA
ATOM     22  H   UNL     1       0.793   2.436  22.254  0.00  0.00    +0.000 HD
ENDBRANCH  19  21
ENDBRANCH   1  15
BRANCH   1  23
ATOM     23  C   UNL     1       4.702   5.729  19.795  0.00  0.00    +0.000 C 
BRANCH  23  24
ATOM     24  C   UNL     1       5.971   4.852  19.645  0.00  0.00    +0.000 C 
BRANCH  24  25
ATOM     25  CA  UNL     1       7.268   5.653  19.423  0.00  0.00    +0.000 C 
BRANCH  25  26
ATOM     26  N   UNL     1       8.377   5.301  20.361  0.00  0.00    +0.000 NA
ATOM     27  H1  UNL     1       8.779   4.405  20.067  0.00  0.00    +0.000 HD
ATOM     28  H2  UNL     1       7.978   5.123  21.285  0.00  0.00    +0.000 HD
ENDBRANCH  25  26
BRANCH  25  29
ATOM     29  C   UNL     1       7.803   5.434  17.990  0.00  0.00    +0.000 C 
ATOM     30  O   UNL     1       7.901   6.289  17.124  0.00  0.00    +0.000 OA
BRANCH  29  31
ATOM     31  OXT UNL     1       8.187   4.142  17.807  0.00  0.00    +0.000 OA
ATOM     32  HXT UNL     1       8.358   3.784  18.714  0.00  0.00    +0.000 HD
ENDBRANCH  29  31
ENDBRANCH  25  29
ENDBRANCH  24  25
ENDBRANCH  23  24
ENDBRANCH   1  23
TORSDOF 10
ENDMDL
MODEL 3
REMARK VINA RESULT:      -8.1      0.162      1.098
REMARK  Name = 
REMARK  11 active torsions:
REMARK  status: ('A' for Active; 'I' for Inactive)
REMARK    1  A    between atoms: C_1  and  C_2
REMARK    2  A    between atoms: C_5  and  C_6
REMARK    3  A    between atoms: C_6  and  C_7
REMARK    4  A    between atoms: C_6  and  C_14
REMARK    5  A    between atoms: C_6  and  C_20
REMARK    6  A    between atoms: C_7  and  C_8
REMARK    7  A    between atoms: C_8  and  CA_9
REMARK    8  A    between atoms: CA_9  and  N_10
REMARK    9  A    between atoms: CA_9  and  C_11
REMARK   10  A    between atoms: C_11  and  OXT_13
REMARK   11  A    between atoms: C_24  and  O_25
REMARK                            x       y       z     vdW  Elec       q    Type
REMARK                         _______ _______ _______ _____ _____    ______ ____
ROOT
ATOM      1  C   UNL     1       3.574   5.549  18.668  0.00  0.00    +0.000 C 
ENDROOT
BRANCH   1   6
ATOM      2  C   UNL     1       6.147   4.260  13.480  0.00  0.00    +0.000 C 
ATOM      3  C   UNL     1       5.469   4.577  14.779  0.00  0.00    +0.000 A 
ATOM      4  C   UNL     1       4.997   3.562  15.603  0.00  0.00    +0.000 A 
ATOM      5  C   UNL     1       4.358   3.864  16.812  0.00  0.00    +0.000 A 
ATOM      6  C   UNL     1       4.224   5.185  17.279  0.00  0.00    +0.000 A 
ATOM      7  C   UNL     1       4.671   6.194  16.403  0.00  0.00    +0.000 A 
ATOM      8  C   UNL     1       5.288   5.899  15.178  0.00  0.00    +0.000 A 
ENDBRANCH   1   6
BRANCH   1   9
ATOM      9  C   UNL     1       2.774   6.904  18.686  0.00  0.00    +0.000 A 
ATOM     10  C   UNL     1       2.080   7.378  19.812  0.00  0.00    +0.000 A 
ATOM     11  C   UNL     1       1.463   8.636  19.812  0.00  0.00    +0.000 A 
ATOM     12  C   UNL     1       1.482   9.429  18.669  0.00  0.00    +0.000 A 
ATOM     13  C   UNL     1       2.114   8.965  17.523  0.00  0.00    +0.000 A 
ATOM     14  C   UNL     1       2.755   7.722  17.531  0.00  0.00    +0.000 A 
ENDBRANCH   1   9
BRANCH   1  15
ATOM     15  C   UNL     1       2.597   4.356  19.022  0.00  0.00    +0.000 A 
ATOM     16  C   UNL     1       1.609   3.893  18.132  0.00  0.00    +0.000 A 
ATOM     17  C   UNL     1       0.696   2.899  18.510  0.00  0.00    +0.000 A 
ATOM     18  C   UNL     1       0.727   2.359  19.794  0.00  0.00    +0.000 A 
ATOM     19  C   UNL     1       1.689   2.804  20.686  0.00  0.00    +0.000 A 
ATOM     20  C   UNL     1       2.618   3.771  20.310  0.00  0.00    +0.000 A 
BRANCH  19  21
ATOM     21  O   UNL     1       1.747   2.332  21.964  0.00  0.00    +0.000 OA
ATOM     22  H   UNL     1       2.322   1.550  21.980  0.00  0.00    +0.000 HD
ENDBRANCH  19  21
ENDBRANCH   1  15
BRANCH   1  23
ATOM     23  C   UNL     1       4.685   5.698  19.800  0.00  0.00    +0.000 C 
BRANCH  23  24
ATOM     24  C   UNL     1       5.962   4.833  19.639  0.00  0.00    +0.000 C 
BRANCH  24  25
ATOM     25  CA  UNL     1       7.251   5.648  19.425  0.00  0.00    +0.000 C 
BRANCH  25  26
ATOM     26  N   UNL     1       8.356   5.309  20.372  0.00  0.00    +0.000 NA
ATOM     27  H1  UNL     1       8.670   4.353  20.179  0.00  0.00    +0.000 HD
ATOM     28  H2  UNL     1       7.975   5.277  21.320  0.00  0.00    +0.000 HD
ENDBRANCH  25  26
BRANCH  25  29
ATOM     29  C   UNL     1       7.800   5.432  17.997  0.00  0.00    +0.000 C 
ATOM     30  O   UNL     1       7.916   6.290  17.137  0.00  0.00    +0.000 OA
BRANCH  29  31
ATOM     31  OXT UNL     1       8.173   4.137  17.811  0.00  0.00    +0.000 OA
ATOM     32  HXT UNL     1       8.876   3.962  18.486  0.00  0.00    +0.000 HD
ENDBRANCH  29  31
ENDBRANCH  25  29
ENDBRANCH  24  25
ENDBRANCH  23  24
ENDBRANCH   1  23
TORSDOF 10
ENDMDL
MODEL 4
REMARK VINA RESULT:      -8.1      0.112      1.285
REMARK  Name = 
REMARK  11 active torsions:
REMARK  status: ('A' for Active; 'I' for Inactive)
REMARK    1  A    between atoms: C_1  and  C_2
REMARK    2  A    between atoms: C_5  and  C_6
REMARK    3  A    between atoms: C_6  and  C_7
REMARK    4  A    between atoms: C_6  and  C_14
REMARK    5  A    between atoms: C_6  and  C_20
REMARK    6  A    between atoms: C_7  and  C_8
REMARK    7  A    between atoms: C_8  and  CA_9
REMARK    8  A    between atoms: CA_9  and  N_10
REMARK    9  A    between atoms: CA_9  and  C_11
REMARK   10  A    between atoms: C_11  and  OXT_13
REMARK   11  A    between atoms: C_24  and  O_25
REMARK                            x       y       z     vdW  Elec       q    Type
REMARK                         _______ _______ _______ _____ _____    ______ ____
ROOT
ATOM      1  C   UNL     1       3.601   5.550  18.661  0.00  0.00    +0.000 C 
ENDROOT
BRANCH   1   6
ATOM      2  C   UNL     1       5.994   4.104  13.428  0.00  0.00    +0.000 C 
ATOM      3  C   UNL     1       5.418   4.478  14.761  0.00  0.00    +0.000 A 
ATOM      4  C   UNL     1       5.282   5.812  15.129  0.00  0.00    +0.000 A 
ATOM      5  C   UNL     1       4.749   6.156  16.378  0.00  0.00    +0.000 A 
ATOM      6  C   UNL     1       4.271   5.188  17.281  0.00  0.00    +0.000 A 
ATOM      7  C   UNL     1       4.462   3.845  16.900  0.00  0.00    +0.000 A 
ATOM      8  C   UNL     1       5.020   3.493  15.662  0.00  0.00    +0.000 A 
ENDBRANCH   1   6
BRANCH   1   9
ATOM      9  C   UNL     1       2.797   6.902  18.668  0.00  0.00    +0.000 A 
ATOM     10  C   UNL     1       2.079   7.371  19.782  0.00  0.00    +0.000 A 
ATOM     11  C   UNL     1       1.459   8.626  19.774  0.00  0.00    +0.000 A 
ATOM     12  C   UNL     1       1.498   9.424  18.635  0.00  0.00    +0.000 A 
ATOM     13  C   UNL     1       2.154   8.966  17.499  0.00  0.00    +0.000 A 
ATOM     14  C   UNL     1       2.799   7.724  17.516  0.00  0.00    +0.000 A 
ENDBRANCH   1   9
BRANCH   1  15
ATOM     15  C   UNL     1       2.622   4.354  19.002  0.00  0.00    +0.000 A 
ATOM     16  C   UNL     1       1.648   3.889  18.099  0.00  0.00    +0.000 A 
ATOM     17  C   UNL     1       0.732   2.893  18.465  0.00  0.00    +0.000 A 
ATOM     18  C   UNL     1       0.748   2.351  19.749  0.00  0.00    +0.000 A 
ATOM     19  C   UNL     1       1.698   2.799  20.653  0.00  0.00    +0.000 A 
ATOM     20  C   UNL     1       2.629   3.768  20.289  0.00  0.00    +0.000 A 
BRANCH  19  21
ATOM     21  O   UNL     1       1.741   2.326  21.931  0.00  0.00    +0.000 OA
ATOM     22  H   UNL     1       2.670   2.201  22.185  0.00  0.00    +0.000 HD
ENDBRANCH  19  21
ENDBRANCH   1  15
BRANCH   1  23
ATOM     23  C   UNL     1       4.696   5.702  19.808  0.00  0.00    +0.000 C 
BRANCH  23  24
ATOM     24  C   UNL     1       5.982   4.849  19.659  0.00  0.00    +0.000 C 
BRANCH  24  25
ATOM     25  CA  UNL     1       7.261   5.674  19.426  0.00  0.00    +0.000 C 
BRANCH  25  26
ATOM     26  N   UNL     1       8.382   5.348  20.360  0.00  0.00    +0.000 NA
ATOM     27  H1  UNL     1       7.985   4.966  21.223  0.00  0.00    +0.000 HD
ATOM     28  H2  UNL     1       8.837   6.219  20.639  0.00  0.00    +0.000 HD
ENDBRANCH  25  26
BRANCH  25  29
ATOM     29  C   UNL     1       7.794   5.458  17.991  0.00  0.00    +0.000 C 
ATOM     30  O   UNL     1       8.064   4.382  17.482  0.00  0.00    +0.000 OA
BRANCH  29  31
ATOM     31  OXT UNL     1       7.909   6.642  17.332  0.00  0.00    +0.000 OA
ATOM     32  HXT UNL     1       8.835   6.950  17.496  0.00  0.00    +0.000 HD
ENDBRANCH  29  31
ENDBRANCH  25  29
ENDBRANCH  24  25
ENDBRANCH  23  24
ENDBRANCH   1  23
TORSDOF 10
ENDMDL
MODEL 5
REMARK VINA RESULT:      -8.0      2.055      4.895
REMARK  Name = 
REMARK  11 active torsions:
REMARK  status: ('A' for Active; 'I' for Inactive)
REMARK    1  A    between atoms: C_1  and  C_2
REMARK    2  A    between atoms: C_5  and  C_6
REMARK    3  A    between atoms: C_6  and  C_7
REMARK    4  A    between atoms: C_6  and  C_14
REMARK    5  A    between atoms: C_6  and  C_20
REMARK    6  A    between atoms: C_7  and  C_8
REMARK    7  A    between atoms: C_8  and  CA_9
REMARK    8  A    between atoms: CA_9  and  N_10
REMARK    9  A    between atoms: CA_9  and  C_11
REMARK   10  A    between atoms: C_11  and  OXT_13
REMARK   11  A    between atoms: C_24  and  O_25
REMARK                            x       y       z     vdW  Elec       q    Type
REMARK                         _______ _______ _______ _____ _____    ______ ____
ROOT
ATOM      1  C   UNL     1       4.367   5.993  17.607  0.00  0.00    +0.000 C 
ENDROOT
BRANCH   1   6
ATOM      2  C   UNL     1       0.365   9.803  19.770  0.00  0.00    +0.000 C 
ATOM      3  C   UNL     1       1.354   8.828  19.205  0.00  0.00    +0.000 A 
ATOM      4  C   UNL     1       1.820   8.960  17.902  0.00  0.00    +0.000 A 
ATOM      5  C   UNL     1       2.739   8.043  17.377  0.00  0.00    +0.000 A 
ATOM      6  C   UNL     1       3.278   6.997  18.150  0.00  0.00    +0.000 A 
ATOM      7  C   UNL     1       2.754   6.860  19.450  0.00  0.00    +0.000 A 
ATOM      8  C   UNL     1       1.814   7.760  19.973  0.00  0.00    +0.000 A 
ENDBRANCH   1   6
BRANCH   1   9
ATOM      9  C   UNL     1       5.806   6.196  18.208  0.00  0.00    +0.000 A 
ATOM     10  C   UNL     1       6.339   5.389  19.228  0.00  0.00    +0.000 A 
ATOM     11  C   UNL     1       7.660   5.544  19.665  0.00  0.00    +0.000 A 
ATOM     12  C   UNL     1       8.466   6.543  19.129  0.00  0.00    +0.000 A 
ATOM     13  C   UNL     1       7.952   7.391  18.157  0.00  0.00    +0.000 A 
ATOM     14  C   UNL     1       6.641   7.218  17.699  0.00  0.00    +0.000 A 
ENDBRANCH   1   9
BRANCH   1  15
ATOM     15  C   UNL     1       3.845   4.543  17.965  0.00  0.00    +0.000 A 
ATOM     16  C   UNL     1       2.552   4.097  17.635  0.00  0.00    +0.000 A 
ATOM     17  C   UNL     1       2.085   2.842  18.050  0.00  0.00    +0.000 A 
ATOM     18  C   UNL     1       2.887   2.009  18.828  0.00  0.00    +0.000 A 
ATOM     19  C   UNL     1       4.163   2.432  19.167  0.00  0.00    +0.000 A 
ATOM     20  C   UNL     1       4.644   3.666  18.735  0.00  0.00    +0.000 A 
BRANCH  19  21
ATOM     21  O   UNL     1       4.979   1.672  19.950  0.00  0.00    +0.000 OA
ATOM     22  H   UNL     1       5.346   0.953  19.410  0.00  0.00    +0.000 HD
ENDBRANCH  19  21
ENDBRANCH   1  15
BRANCH   1  23
ATOM     23  C   UNL     1       4.542   6.135  16.030  0.00  0.00    +0.000 C 
BRANCH  23  24
ATOM     24  C   UNL     1       5.208   4.943  15.294  0.00  0.00    +0.000 C 
BRANCH  24  25
ATOM     25  CA  UNL     1       6.704   5.149  14.990  0.00  0.00    +0.000 C 
BRANCH  25  26
ATOM     26  N   UNL     1       7.623   4.383  15.886  0.00  0.00    +0.000 NA
ATOM     27  H1  UNL     1       7.098   3.612  16.310  0.00  0.00    +0.000 HD
ATOM     28  H2  UNL     1       7.892   4.984  16.668  0.00  0.00    +0.000 HD
ENDBRANCH  25  26
BRANCH  25  29
ATOM     29  C   UNL     1       7.028   4.720  13.541  0.00  0.00    +0.000 C 
ATOM     30  O   UNL     1       6.511   3.796  12.935  0.00  0.00    +0.000 OA
BRANCH  29  31
ATOM     31  OXT UNL     1       7.970   5.534  12.994  0.00  0.00    +0.000 OA
ATOM     32  HXT UNL     1       8.842   5.174  13.294  0.00  0.00    +0.000 HD
ENDBRANCH  29  31
ENDBRANCH  25  29
ENDBRANCH  24  25
ENDBRANCH  23  24
ENDBRANCH   1  23
TORSDOF 10
ENDMDL
MODEL 6
REMARK VINA RESULT:      -7.8      2.138      4.907
REMARK  Name = 
REMARK  11 active torsions:
REMARK  status: ('A' for Active; 'I' for Inactive)
REMARK    1  A    between atoms: C_1  and  C_2
REMARK    2  A    between atoms: C_5  and  C_6
REMARK    3  A    between atoms: C_6  and  C_7
REMARK    4  A    between atoms: C_6  and  C_14
REMARK    5  A    between atoms: C_6  and  C_20
REMARK    6  A    between atoms: C_7  and  C_8
REMARK    7  A    between atoms: C_8  and  CA_9
REMARK    8  A    between atoms: CA_9  and  N_10
REMARK    9  A    between atoms: CA_9  and  C_11
REMARK   10  A    between atoms: C_11  and  OXT_13
REMARK   11  A    between atoms: C_24  and  O_25
REMARK                            x       y       z     vdW  Elec       q    Type
REMARK                         _______ _______ _______ _____ _____    ______ ____
ROOT
ATOM      1  C   UNL     1       4.456   5.936  17.510  0.00  0.00    +0.000 C 
ENDROOT
BRANCH   1   6
ATOM      2  C   UNL     1       0.472   9.713  19.760  0.00  0.00    +0.000 C 
ATOM      3  C   UNL     1       1.456   8.746  19.173  0.00  0.00    +0.000 A 
ATOM      4  C   UNL     1       1.915   8.899  17.869  0.00  0.00    +0.000 A 
ATOM      5  C   UNL     1       2.829   7.990  17.324  0.00  0.00    +0.000 A 
ATOM      6  C   UNL     1       3.372   6.931  18.076  0.00  0.00    +0.000 A 
ATOM      7  C   UNL     1       2.856   6.774  19.377  0.00  0.00    +0.000 A 
ATOM      8  C   UNL     1       1.920   7.666  19.921  0.00  0.00    +0.000 A 
ENDBRANCH   1   6
BRANCH   1   9
ATOM      9  C   UNL     1       5.907   6.149  18.081  0.00  0.00    +0.000 A 
ATOM     10  C   UNL     1       6.794   7.124  17.594  0.00  0.00    +0.000 A 
ATOM     11  C   UNL     1       8.039   7.343  18.197  0.00  0.00    +0.000 A 
ATOM     12  C   UNL     1       8.449   6.558  19.270  0.00  0.00    +0.000 A 
ATOM     13  C   UNL     1       7.616   5.551  19.740  0.00  0.00    +0.000 A 
ATOM     14  C   UNL     1       6.361   5.351  19.158  0.00  0.00    +0.000 A 
ENDBRANCH   1   9
BRANCH   1  15
ATOM     15  C   UNL     1       3.954   4.482  17.880  0.00  0.00    +0.000 A 
ATOM     16  C   UNL     1       2.701   3.984  17.473  0.00  0.00    +0.000 A 
ATOM     17  C   UNL     1       2.243   2.729  17.898  0.00  0.00    +0.000 A 
ATOM     18  C   UNL     1       3.011   1.947  18.758  0.00  0.00    +0.000 A 
ATOM     19  C   UNL     1       4.246   2.421  19.173  0.00  0.00    +0.000 A 
ATOM     20  C   UNL     1       4.720   3.655  18.734  0.00  0.00    +0.000 A 
BRANCH  19  21
ATOM     21  O   UNL     1       5.026   1.713  20.037  0.00  0.00    +0.000 OA
ATOM     22  H   UNL     1       4.643   1.779  20.926  0.00  0.00    +0.000 HD
ENDBRANCH  19  21
ENDBRANCH   1  15
BRANCH   1  23
ATOM     23  C   UNL     1       4.597   6.079  15.930  0.00  0.00    +0.000 C 
BRANCH  23  24
ATOM     24  C   UNL     1       5.181   4.859  15.171  0.00  0.00    +0.000 C 
BRANCH  24  25
ATOM     25  CA  UNL     1       6.623   5.061  14.668  0.00  0.00    +0.000 C 
BRANCH  25  26
ATOM     26  N   UNL     1       7.675   4.556  15.602  0.00  0.00    +0.000 NA
ATOM     27  H1  UNL     1       8.187   3.800  15.137  0.00  0.00    +0.000 HD
ATOM     28  H2  UNL     1       7.217   4.114  16.401  0.00  0.00    +0.000 HD
ENDBRANCH  25  26
BRANCH  25  29
ATOM     29  C   UNL     1       6.835   4.340  13.318  0.00  0.00    +0.000 C 
ATOM     30  O   UNL     1       7.471   4.770  12.369  0.00  0.00    +0.000 OA
BRANCH  29  31
ATOM     31  OXT UNL     1       6.230   3.122  13.318  0.00  0.00    +0.000 OA
ATOM     32  HXT UNL     1       5.785   3.044  12.437  0.00  0.00    +0.000 HD
ENDBRANCH  29  31
ENDBRANCH  25  29
ENDBRANCH  24  25
ENDBRANCH  23  24
ENDBRANCH   1  23
TORSDOF 10
ENDMDL
MODEL 7
REMARK VINA RESULT:      -7.6      1.971      4.853
REMARK  Name = 
REMARK  11 active torsions:
REMARK  status: ('A' for Active; 'I' for Inactive)
REMARK    1  A    between atoms: C_1  and  C_2
REMARK    2  A    between atoms: C_5  and  C_6
REMARK    3  A    between atoms: C_6  and  C_7
REMARK    4  A    between atoms: C_6  and  C_14
REMARK    5  A    between atoms: C_6  and  C_20
REMARK    6  A    between atoms: C_7  and  C_8
REMARK    7  A    between atoms: C_8  and  CA_9
REMARK    8  A    between atoms: CA_9  and  N_10
REMARK    9  A    between atoms: CA_9  and  C_11
REMARK   10  A    between atoms: C_11  and  OXT_13
REMARK   11  A    between atoms: C_24  and  O_25
REMARK                            x       y       z     vdW  Elec       q    Type
REMARK                         _______ _______ _______ _____ _____    ______ ____
ROOT
ATOM      1  C   UNL     1       4.255   5.905  17.841  0.00  0.00    +0.000 C 
ENDROOT
BRANCH   1   6
ATOM      2  C   UNL     1       0.255   9.990  19.426  0.00  0.00    +0.000 C 
ATOM      3  C   UNL     1       1.287   8.972  19.045  0.00  0.00    +0.000 A 
ATOM      4  C   UNL     1       1.679   7.984  19.941  0.00  0.00    +0.000 A 
ATOM      5  C   UNL     1       2.648   7.039  19.582  0.00  0.00    +0.000 A 
ATOM      6  C   UNL     1       3.216   7.000  18.295  0.00  0.00    +0.000 A 
ATOM      7  C   UNL     1       2.834   8.039  17.423  0.00  0.00    +0.000 A 
ATOM      8  C   UNL     1       1.883   9.005  17.786  0.00  0.00    +0.000 A 
ENDBRANCH   1   6
BRANCH   1   9
ATOM      9  C   UNL     1       5.730   6.156  18.327  0.00  0.00    +0.000 A 
ATOM     10  C   UNL     1       6.354   5.394  19.330  0.00  0.00    +0.000 A 
ATOM     11  C   UNL     1       7.701   5.590  19.662  0.00  0.00    +0.000 A 
ATOM     12  C   UNL     1       8.442   6.586  19.036  0.00  0.00    +0.000 A 
ATOM     13  C   UNL     1       7.839   7.391  18.079  0.00  0.00    +0.000 A 
ATOM     14  C   UNL     1       6.503   7.177  17.725  0.00  0.00    +0.000 A 
ENDBRANCH   1   9
BRANCH   1  15
ATOM     15  C   UNL     1       3.733   4.533  18.430  0.00  0.00    +0.000 A 
ATOM     16  C   UNL     1       4.566   3.639  19.129  0.00  0.00    +0.000 A 
ATOM     17  C   UNL     1       4.098   2.388  19.555  0.00  0.00    +0.000 A 
ATOM     18  C   UNL     1       2.794   1.986  19.275  0.00  0.00    +0.000 A 
ATOM     19  C   UNL     1       1.958   2.851  18.586  0.00  0.00    +0.000 A 
ATOM     20  C   UNL     1       2.407   4.106  18.183  0.00  0.00    +0.000 A 
BRANCH  19  21
ATOM     21  O   UNL     1       0.683   2.498  18.259  0.00  0.00    +0.000 OA
ATOM     22  H   UNL     1       0.097   3.252  18.434  0.00  0.00    +0.000 HD
ENDBRANCH  19  21
ENDBRANCH   1  15
BRANCH   1  23
ATOM     23  C   UNL     1       4.342   5.819  16.253  0.00  0.00    +0.000 C 
BRANCH  23  24
ATOM     24  C   UNL     1       5.104   4.604  15.663  0.00  0.00    +0.000 C 
BRANCH  24  25
ATOM     25  CA  UNL     1       6.599   4.867  15.400  0.00  0.00    +0.000 C 
BRANCH  25  26
ATOM     26  N   UNL     1       7.524   4.015  16.208  0.00  0.00    +0.000 NA
ATOM     27  H1  UNL     1       8.174   4.627  16.711  0.00  0.00    +0.000 HD
ATOM     28  H2  UNL     1       8.109   3.473  15.570  0.00  0.00    +0.000 HD
ENDBRANCH  25  26
BRANCH  25  29
ATOM     29  C   UNL     1       6.941   4.618  13.914  0.00  0.00    +0.000 C 
ATOM     30  O   UNL     1       7.626   5.339  13.206  0.00  0.00    +0.000 OA
BRANCH  29  31
ATOM     31  OXT UNL     1       6.391   3.453  13.477  0.00  0.00    +0.000 OA
ATOM     32  HXT UNL     1       5.690   3.715  12.830  0.00  0.00    +0.000 HD
ENDBRANCH  29  31
ENDBRANCH  25  29
ENDBRANCH  24  25
ENDBRANCH  23  24
ENDBRANCH   1  23
TORSDOF 10
ENDMDL
MODEL 8
REMARK VINA RESULT:      -7.5      1.949      4.820
REMARK  Name = 
REMARK  11 active torsions:
REMARK  status: ('A' for Active; 'I' for Inactive)
REMARK    1  A    between atoms: C_1  and  C_2
REMARK    2  A    between atoms: C_5  and  C_6
REMARK    3  A    between atoms: C_6  and  C_7
REMARK    4  A    between atoms: C_6  and  C_14
REMARK    5  A    between atoms: C_6  and  C_20
REMARK    6  A    between atoms: C_7  and  C_8
REMARK    7  A    between atoms: C_8  and  CA_9
REMARK    8  A    between atoms: CA_9  and  N_10
REMARK    9  A    between atoms: CA_9  and  C_11
REMARK   10  A    between atoms: C_11  and  OXT_13
REMARK   11  A    between atoms: C_24  and  O_25
REMARK                            x       y       z     vdW  Elec       q    Type
REMARK                         _______ _______ _______ _____ _____    ______ ____
ROOT
ATOM      1  C   UNL     1       3.990   5.744  18.261  0.00  0.00    +0.000 C 
ENDROOT
BRANCH   1   6
ATOM      2  C   UNL     1       0.271  10.149  19.667  0.00  0.00    +0.000 C 
ATOM      3  C   UNL     1       1.187   9.020  19.298  0.00  0.00    +0.000 A 
ATOM      4  C   UNL     1       1.592   8.833  17.981  0.00  0.00    +0.000 A 
ATOM      5  C   UNL     1       2.442   7.774  17.640  0.00  0.00    +0.000 A 
ATOM      6  C   UNL     1       2.975   6.900  18.607  0.00  0.00    +0.000 A 
ATOM      7  C   UNL     1       2.512   7.086  19.924  0.00  0.00    +0.000 A 
ATOM      8  C   UNL     1       1.639   8.129  20.268  0.00  0.00    +0.000 A 
ENDBRANCH   1   6
BRANCH   1   9
ATOM      9  C   UNL     1       5.505   6.122  18.449  0.00  0.00    +0.000 A 
ATOM     10  C   UNL     1       6.367   5.450  19.332  0.00  0.00    +0.000 A 
ATOM     11  C   UNL     1       7.732   5.757  19.395  0.00  0.00    +0.000 A 
ATOM     12  C   UNL     1       8.260   6.778  18.612  0.00  0.00    +0.000 A 
ATOM     13  C   UNL     1       7.424   7.497  17.767  0.00  0.00    +0.000 A 
ATOM     14  C   UNL     1       6.066   7.171  17.683  0.00  0.00    +0.000 A 
ENDBRANCH   1   9
BRANCH   1  15
ATOM     15  C   UNL     1       3.625   4.538  19.219  0.00  0.00    +0.000 A 
ATOM     16  C   UNL     1       2.497   4.550  20.061  0.00  0.00    +0.000 A 
ATOM     17  C   UNL     1       2.254   3.510  20.968  0.00  0.00    +0.000 A 
ATOM     18  C   UNL     1       3.142   2.442  21.078  0.00  0.00    +0.000 A 
ATOM     19  C   UNL     1       4.261   2.414  20.260  0.00  0.00    +0.000 A 
ATOM     20  C   UNL     1       4.496   3.430  19.337  0.00  0.00    +0.000 A 
BRANCH  19  21
ATOM     21  O   UNL     1       5.178   1.409  20.346  0.00  0.00    +0.000 OA
ATOM     22  H   UNL     1       5.975   1.674  19.859  0.00  0.00    +0.000 HD
ENDBRANCH  19  21
ENDBRANCH   1  15
BRANCH   1  23
ATOM     23  C   UNL     1       3.850   5.293  16.740  0.00  0.00    +0.000 C 
BRANCH  23  24
ATOM     24  C   UNL     1       4.910   4.292  16.211  0.00  0.00    +0.000 C 
BRANCH  24  25
ATOM     25  CA  UNL     1       5.694   4.795  14.985  0.00  0.00    +0.000 C 
BRANCH  25  26
ATOM     26  N   UNL     1       5.331   6.178  14.549  0.00  0.00    +0.000 NA
ATOM     27  H1  UNL     1       5.030   6.142  13.570  0.00  0.00    +0.000 HD
ATOM     28  H2  UNL     1       6.176   6.752  14.546  0.00  0.00    +0.000 HD
ENDBRANCH  25  26
BRANCH  25  29
ATOM     29  C   UNL     1       7.212   4.800  15.276  0.00  0.00    +0.000 C 
ATOM     30  O   UNL     1       7.759   4.280  16.235  0.00  0.00    +0.000 OA
BRANCH  29  31
ATOM     31  OXT UNL     1       7.892   5.451  14.295  0.00  0.00    +0.000 OA
ATOM     32  HXT UNL     1       7.623   5.016  13.448  0.00  0.00    +0.000 HD
ENDBRANCH  29  31
ENDBRANCH  25  29
ENDBRANCH  24  25
ENDBRANCH  23  24
ENDBRANCH   1  23
TORSDOF 10
ENDMDL
MODEL 9
REMARK VINA RESULT:      -7.3      1.699      4.689
REMARK  Name = 
REMARK  11 active torsions:
REMARK  status: ('A' for Active; 'I' for Inactive)
REMARK    1  A    between atoms: C_1  and  C_2
REMARK    2  A    between atoms: C_5  and  C_6
REMARK    3  A    between atoms: C_6  and  C_7
REMARK    4  A    between atoms: C_6  and  C_14
REMARK    5  A    between atoms: C_6  and  C_20
REMARK    6  A    between atoms: C_7  and  C_8
REMARK    7  A    between atoms: C_8  and  CA_9
REMARK    8  A    between atoms: CA_9  and  N_10
REMARK    9  A    between atoms: CA_9  and  C_11
REMARK   10  A    between atoms: C_11  and  OXT_13
REMARK   11  A    between atoms: C_24  and  O_25
REMARK                            x       y       z     vdW  Elec       q    Type
REMARK                         _______ _______ _______ _____ _____    ______ ____
ROOT
ATOM      1  C   UNL     1       3.760   5.679  18.085  0.00  0.00    +0.000 C 
ENDROOT
BRANCH   1   6
ATOM      2  C   UNL     1       0.524  10.439  19.530  0.00  0.00    +0.000 C 
ATOM      3  C   UNL     1       1.318   9.225  19.148  0.00  0.00    +0.000 A 
ATOM      4  C   UNL     1       1.813   9.075  17.857  0.00  0.00    +0.000 A 
ATOM      5  C   UNL     1       2.548   7.936  17.503  0.00  0.00    +0.000 A 
ATOM      6  C   UNL     1       2.874   6.935  18.438  0.00  0.00    +0.000 A 
ATOM      7  C   UNL     1       2.322   7.092  19.724  0.00  0.00    +0.000 A 
ATOM      8  C   UNL     1       1.563   8.217  20.078  0.00  0.00    +0.000 A 
ENDBRANCH   1   6
BRANCH   1   9
ATOM      9  C   UNL     1       5.273   5.806  18.496  0.00  0.00    +0.000 A 
ATOM     10  C   UNL     1       5.909   4.924  19.386  0.00  0.00    +0.000 A 
ATOM     11  C   UNL     1       7.282   5.016  19.647  0.00  0.00    +0.000 A 
ATOM     12  C   UNL     1       8.043   6.024  19.064  0.00  0.00    +0.000 A 
ATOM     13  C   UNL     1       7.433   6.943  18.220  0.00  0.00    +0.000 A 
ATOM     14  C   UNL     1       6.068   6.834  17.936  0.00  0.00    +0.000 A 
ENDBRANCH   1   9
BRANCH   1  15
ATOM     15  C   UNL     1       3.108   4.455  18.845  0.00  0.00    +0.000 A 
ATOM     16  C   UNL     1       2.413   3.428  18.179  0.00  0.00    +0.000 A 
ATOM     17  C   UNL     1       1.764   2.407  18.887  0.00  0.00    +0.000 A 
ATOM     18  C   UNL     1       1.771   2.397  20.281  0.00  0.00    +0.000 A 
ATOM     19  C   UNL     1       2.447   3.401  20.956  0.00  0.00    +0.000 A 
ATOM     20  C   UNL     1       3.117   4.403  20.259  0.00  0.00    +0.000 A 
BRANCH  19  21
ATOM     21  O   UNL     1       2.461   3.456  22.318  0.00  0.00    +0.000 OA
ATOM     22  H   UNL     1       2.000   2.676  22.665  0.00  0.00    +0.000 HD
ENDBRANCH  19  21
ENDBRANCH   1  15
BRANCH   1  23
ATOM     23  C   UNL     1       3.768   5.406  16.516  0.00  0.00    +0.000 C 
BRANCH  23  24
ATOM     24  C   UNL     1       4.839   4.416  15.988  0.00  0.00    +0.000 C 
BRANCH  24  25
ATOM     25  CA  UNL     1       5.688   4.967  14.827  0.00  0.00    +0.000 C 
BRANCH  25  26
ATOM     26  N   UNL     1       5.423   6.402  14.501  0.00  0.00    +0.000 NA
ATOM     27  H1  UNL     1       5.413   6.938  15.374  0.00  0.00    +0.000 HD
ATOM     28  H2  UNL     1       4.475   6.482  14.129  0.00  0.00    +0.000 HD
ENDBRANCH  25  26
BRANCH  25  29
ATOM     29  C   UNL     1       7.194   4.850  15.152  0.00  0.00    +0.000 C 
ATOM     30  O   UNL     1       7.679   4.240  16.092  0.00  0.00    +0.000 OA
BRANCH  29  31
ATOM     31  OXT UNL     1       7.943   5.507  14.226  0.00  0.00    +0.000 OA
ATOM     32  HXT UNL     1       7.513   6.392  14.113  0.00  0.00    +0.000 HD
ENDBRANCH  29  31
ENDBRANCH  25  29
ENDBRANCH  24  25
ENDBRANCH  23  24
ENDBRANCH   1  23
TORSDOF 10
ENDMDL
