MODEL 1
REMARK VINA RESULT:      -6.5      0.000      0.000
REMARK  Name = 
REMARK  8 active torsions:
REMARK  status: ('A' for Active; 'I' for Inactive)
REMARK    1  A    between atoms: C_1  and  O_2
REMARK    2  A    between atoms: O_2  and  C_3
REMARK    3  A    between atoms: C_9  and  C_10
REMARK    4  A    between atoms: C_10  and  N_11
REMARK    5  A    between atoms: N_11  and  C_12
REMARK    6  A    between atoms: C_13  and  C_15
REMARK    7  A    between atoms: C_15  and  N_16
REMARK    8  A    between atoms: C_21  and  C_22
REMARK                            x       y       z     vdW  Elec       q    Type
REMARK                         _______ _______ _______ _____ _____    ______ ____
ROOT
ATOM      1  N   UNL     1       3.142   3.405  18.743  0.00  0.00    +0.000 N 
ATOM      2  C   UNL     1       2.634   2.255  18.017  0.00  0.00    +0.000 C 
ATOM      3  C   UNL     1       2.376   4.573  18.730  0.00  0.00    +0.000 C 
ATOM      4  O   UNL     1       1.322   4.647  18.097  0.00  0.00    +0.000 OA
ENDROOT
BRANCH   1   5
ATOM      5  C   UNL     1       4.571   3.420  19.028  0.00  0.00    +0.000 C 
BRANCH   5  12
ATOM      6  C   UNL     1       6.505   5.053  18.347  0.00  0.00    +0.000 A 
ATOM      7  C   UNL     1       7.198   5.689  17.298  0.00  0.00    +0.000 A 
ATOM      8  C   UNL     1       6.880   5.437  15.963  0.00  0.00    +0.000 A 
ATOM      9  C   UNL     1       5.876   4.530  15.659  0.00  0.00    +0.000 A 
ATOM     10 CL   UNL     1       5.453   4.232  14.022  0.00  0.00    +0.000 Cl
ATOM     11  C   UNL     1       5.198   3.876  16.683  0.00  0.00    +0.000 A 
ATOM     12  C   UNL     1       5.501   4.109  18.044  0.00  0.00    +0.000 A 
BRANCH   6  14
ATOM     13  C   UNL     1       8.130   5.666  19.978  0.00  0.00    +0.000 C 
ATOM     14  O   UNL     1       6.779   5.317  19.664  0.00  0.00    +0.000 OA
ENDBRANCH   6  14
ENDBRANCH   5  12
ENDBRANCH   1   5
BRANCH   3  15
ATOM     15  C   UNL     1       2.901   5.796  19.494  0.00  0.00    +0.000 C 
BRANCH  15  16
ATOM     16  N   UNL     1       2.460   7.097  18.998  0.00  0.00    +0.000 N 
ATOM     17  C   UNL     1       3.020   7.702  17.891  0.00  0.00    +0.000 C 
ATOM     18  O   UNL     1       3.833   7.211  17.123  0.00  0.00    +0.000 OA
ATOM     19  C   UNL     1       2.531   9.116  17.821  0.00  0.00    +0.000 C 
ATOM     20  C   UNL     1       1.438   9.216  18.879  0.00  0.00    +0.000 C 
ATOM     21  C   UNL     1       1.394   7.866  19.599  0.00  0.00    +0.000 C 
ATOM     22  C   UNL     1       1.521   8.022  21.109  0.00  0.00    +0.000 C 
ENDBRANCH  15  16
ENDBRANCH   3  15
TORSDOF 5
ENDMDL
MODEL 2
REMARK VINA RESULT:      -6.5      2.309      5.293
REMARK  Name = 
REMARK  8 active torsions:
REMARK  status: ('A' for Active; 'I' for Inactive)
REMARK    1  A    between atoms: C_1  and  O_2
REMARK    2  A    between atoms: O_2  and  C_3
REMARK    3  A    between atoms: C_9  and  C_10
REMARK    4  A    between atoms: C_10  and  N_11
REMARK    5  A    between atoms: N_11  and  C_12
REMARK    6  A    between atoms: C_13  and  C_15
REMARK    7  A    between atoms: C_15  and  N_16
REMARK    8  A    between atoms: C_21  and  C_22
REMARK                            x       y       z     vdW  Elec       q    Type
REMARK                         _______ _______ _______ _____ _____    ______ ____
ROOT
ATOM      1  N   UNL     1       2.287   2.865  18.002  0.00  0.00    +0.000 N 
ATOM      2  C   UNL     1       1.642   1.766  18.696  0.00  0.00    +0.000 C 
ATOM      3  C   UNL     1       3.684   2.885  17.972  0.00  0.00    +0.000 C 
ATOM      4  O   UNL     1       4.354   2.023  18.542  0.00  0.00    +0.000 OA
ENDROOT
BRANCH   1   5
ATOM      5  C   UNL     1       1.492   4.070  17.801  0.00  0.00    +0.000 C 
BRANCH   5  12
ATOM      6  C   UNL     1       1.510   5.304  20.113  0.00  0.00    +0.000 A 
ATOM      7  C   UNL     1       1.659   6.527  20.797  0.00  0.00    +0.000 A 
ATOM      8  C   UNL     1       1.971   7.704  20.116  0.00  0.00    +0.000 A 
ATOM      9  C   UNL     1       2.157   7.670  18.742  0.00  0.00    +0.000 A 
ATOM     10 CL   UNL     1       2.511   9.115  17.885  0.00  0.00    +0.000 Cl
ATOM     11  C   UNL     1       2.036   6.465  18.055  0.00  0.00    +0.000 A 
ATOM     12  C   UNL     1       1.725   5.257  18.720  0.00  0.00    +0.000 A 
BRANCH   6  14
ATOM     13  C   UNL     1       2.145   3.598  21.649  0.00  0.00    +0.000 C 
ATOM     14  O   UNL     1       1.167   4.146  20.762  0.00  0.00    +0.000 OA
ENDBRANCH   6  14
ENDBRANCH   5  12
ENDBRANCH   1   5
BRANCH   3  15
ATOM     15  C   UNL     1       4.379   4.041  17.241  0.00  0.00    +0.000 C 
BRANCH  15  16
ATOM     16  N   UNL     1       5.650   4.483  17.809  0.00  0.00    +0.000 N 
ATOM     17  C   UNL     1       5.740   5.120  19.030  0.00  0.00    +0.000 C 
ATOM     18  O   UNL     1       4.838   5.283  19.837  0.00  0.00    +0.000 OA
ATOM     19  C   UNL     1       7.125   5.667  19.182  0.00  0.00    +0.000 C 
ATOM     20  C   UNL     1       7.918   5.087  18.016  0.00  0.00    +0.000 C 
ATOM     21  C   UNL     1       6.930   4.287  17.164  0.00  0.00    +0.000 C 
ATOM     22  C   UNL     1       6.957   4.720  15.704  0.00  0.00    +0.000 C 
ENDBRANCH  15  16
ENDBRANCH   3  15
TORSDOF 5
ENDMDL
MODEL 3
REMARK VINA RESULT:      -6.5      1.077      1.777
REMARK  Name = 
REMARK  8 active torsions:
REMARK  status: ('A' for Active; 'I' for Inactive)
REMARK    1  A    between atoms: C_1  and  O_2
REMARK    2  A    between atoms: O_2  and  C_3
REMARK    3  A    between atoms: C_9  and  C_10
REMARK    4  A    between atoms: C_10  and  N_11
REMARK    5  A    between atoms: N_11  and  C_12
REMARK    6  A    between atoms: C_13  and  C_15
REMARK    7  A    between atoms: C_15  and  N_16
REMARK    8  A    between atoms: C_21  and  C_22
REMARK                            x       y       z     vdW  Elec       q    Type
REMARK                         _______ _______ _______ _____ _____    ______ ____
ROOT
ATOM      1  N   UNL     1       2.941   3.421  18.338  0.00  0.00    +0.000 N 
ATOM      2  C   UNL     1       2.245   2.206  17.955  0.00  0.00    +0.000 C 
ATOM      3  C   UNL     1       2.358   4.642  17.991  0.00  0.00    +0.000 C 
ATOM      4  O   UNL     1       1.306   4.696  17.350  0.00  0.00    +0.000 OA
ENDROOT
BRANCH   1   5
ATOM      5  C   UNL     1       4.364   3.298  18.625  0.00  0.00    +0.000 C 
BRANCH   5  12
ATOM      6  C   UNL     1       6.441   4.736  17.923  0.00  0.00    +0.000 A 
ATOM      7  C   UNL     1       7.194   5.283  16.867  0.00  0.00    +0.000 A 
ATOM      8  C   UNL     1       6.863   5.032  15.535  0.00  0.00    +0.000 A 
ATOM      9  C   UNL     1       5.783   4.212  15.243  0.00  0.00    +0.000 A 
ATOM     10 CL   UNL     1       5.344   3.917  13.609  0.00  0.00    +0.000 Cl
ATOM     11  C   UNL     1       5.043   3.644  16.275  0.00  0.00    +0.000 A 
ATOM     12  C   UNL     1       5.358   3.878  17.634  0.00  0.00    +0.000 A 
BRANCH   6  14
ATOM     13  C   UNL     1       7.901   5.784  19.487  0.00  0.00    +0.000 C 
ATOM     14  O   UNL     1       6.731   5.003  19.237  0.00  0.00    +0.000 OA
ENDBRANCH   6  14
ENDBRANCH   5  12
ENDBRANCH   1   5
BRANCH   3  15
ATOM     15  C   UNL     1       3.082   5.934  18.391  0.00  0.00    +0.000 C 
BRANCH  15  16
ATOM     16  N   UNL     1       2.381   6.790  19.345  0.00  0.00    +0.000 N 
ATOM     17  C   UNL     1       1.868   6.315  20.534  0.00  0.00    +0.000 C 
ATOM     18  O   UNL     1       2.028   5.200  21.007  0.00  0.00    +0.000 OA
ATOM     19  C   UNL     1       0.995   7.375  21.134  0.00  0.00    +0.000 C 
ATOM     20  C   UNL     1       1.229   8.618  20.283  0.00  0.00    +0.000 C 
ATOM     21  C   UNL     1       2.170   8.207  19.148  0.00  0.00    +0.000 C 
ATOM     22  C   UNL     1       1.603   8.562  17.781  0.00  0.00    +0.000 C 
ENDBRANCH  15  16
ENDBRANCH   3  15
TORSDOF 5
ENDMDL
MODEL 4
REMARK VINA RESULT:      -6.3      3.109      6.572
REMARK  Name = 
REMARK  8 active torsions:
REMARK  status: ('A' for Active; 'I' for Inactive)
REMARK    1  A    between atoms: C_1  and  O_2
REMARK    2  A    between atoms: O_2  and  C_3
REMARK    3  A    between atoms: C_9  and  C_10
REMARK    4  A    between atoms: C_10  and  N_11
REMARK    5  A    between atoms: N_11  and  C_12
REMARK    6  A    between atoms: C_13  and  C_15
REMARK    7  A    between atoms: C_15  and  N_16
REMARK    8  A    between atoms: C_21  and  C_22
REMARK                            x       y       z     vdW  Elec       q    Type
REMARK                         _______ _______ _______ _____ _____    ______ ____
ROOT
ATOM      1  N   UNL     1       2.198   5.691  19.753  0.00  0.00    +0.000 N 
ATOM      2  C   UNL     1       1.206   4.825  20.361  0.00  0.00    +0.000 C 
ATOM      3  C   UNL     1       3.090   5.121  18.842  0.00  0.00    +0.000 C 
ATOM      4  O   UNL     1       3.067   3.916  18.583  0.00  0.00    +0.000 OA
ENDROOT
BRANCH   1   5
ATOM      5  C   UNL     1       2.496   6.936  20.450  0.00  0.00    +0.000 C 
BRANCH   5  12
ATOM      6  C   UNL     1       1.126   8.864  19.319  0.00  0.00    +0.000 A 
ATOM      7  C   UNL     1       0.233   9.937  19.498  0.00  0.00    +0.000 A 
ATOM      8  C   UNL     1      -0.291  10.243  20.755  0.00  0.00    +0.000 A 
ATOM      9  C   UNL     1       0.059   9.465  21.848  0.00  0.00    +0.000 A 
ATOM     10 CL   UNL     1      -0.552   9.846  23.407  0.00  0.00    +0.000 Cl
ATOM     11  C   UNL     1       0.923   8.386  21.684  0.00  0.00    +0.000 A 
ATOM     12  C   UNL     1       1.465   8.051  20.422  0.00  0.00    +0.000 A 
BRANCH   6  14
ATOM     13  C   UNL     1       2.519   9.575  17.522  0.00  0.00    +0.000 C 
ATOM     14  O   UNL     1       1.678   8.573  18.098  0.00  0.00    +0.000 OA
ENDBRANCH   6  14
ENDBRANCH   5  12
ENDBRANCH   1   5
BRANCH   3  15
ATOM     15  C   UNL     1       4.144   6.026  18.191  0.00  0.00    +0.000 C 
BRANCH  15  16
ATOM     16  N   UNL     1       5.369   5.363  17.748  0.00  0.00    +0.000 N 
ATOM     17  C   UNL     1       6.427   5.108  18.596  0.00  0.00    +0.000 C 
ATOM     18  O   UNL     1       6.448   5.267  19.807  0.00  0.00    +0.000 OA
ATOM     19  C   UNL     1       7.602   4.674  17.776  0.00  0.00    +0.000 C 
ATOM     20  C   UNL     1       7.058   4.478  16.366  0.00  0.00    +0.000 C 
ATOM     21  C   UNL     1       5.587   4.900  16.396  0.00  0.00    +0.000 C 
ATOM     22  C   UNL     1       5.272   5.940  15.329  0.00  0.00    +0.000 C 
ENDBRANCH  15  16
ENDBRANCH   3  15
TORSDOF 5
ENDMDL
MODEL 5
REMARK VINA RESULT:      -6.3      2.366      4.108
REMARK  Name = 
REMARK  8 active torsions:
REMARK  status: ('A' for Active; 'I' for Inactive)
REMARK    1  A    between atoms: C_1  and  O_2
REMARK    2  A    between atoms: O_2  and  C_3
REMARK    3  A    between atoms: C_9  and  C_10
REMARK    4  A    between atoms: C_10  and  N_11
REMARK    5  A    between atoms: N_11  and  C_12
REMARK    6  A    between atoms: C_13  and  C_15
REMARK    7  A    between atoms: C_15  and  N_16
REMARK    8  A    between atoms: C_21  and  C_22
REMARK                            x       y       z     vdW  Elec       q    Type
REMARK                         _______ _______ _______ _____ _____    ______ ____
ROOT
ATOM      1  N   UNL     1       3.982   5.367  17.067  0.00  0.00    +0.000 N 
ATOM      2  C   UNL     1       4.585   6.675  16.885  0.00  0.00    +0.000 C 
ATOM      3  C   UNL     1       2.874   5.274  17.912  0.00  0.00    +0.000 C 
ATOM      4  O   UNL     1       2.437   6.256  18.515  0.00  0.00    +0.000 OA
ENDROOT
BRANCH   1   5
ATOM      5  C   UNL     1       4.814   4.213  16.752  0.00  0.00    +0.000 C 
BRANCH   5  12
ATOM      6  C   UNL     1       6.939   4.881  15.370  0.00  0.00    +0.000 A 
ATOM      7  C   UNL     1       7.554   4.936  14.104  0.00  0.00    +0.000 A 
ATOM      8  C   UNL     1       6.921   4.427  12.969  0.00  0.00    +0.000 A 
ATOM      9  C   UNL     1       5.671   3.838  13.090  0.00  0.00    +0.000 A 
ATOM     10 CL   UNL     1       4.866   3.235  11.698  0.00  0.00    +0.000 Cl
ATOM     11  C   UNL     1       5.061   3.756  14.338  0.00  0.00    +0.000 A 
ATOM     12  C   UNL     1       5.680   4.259  15.505  0.00  0.00    +0.000 A 
BRANCH   6  14
ATOM     13  C   UNL     1       7.778   4.505  17.568  0.00  0.00    +0.000 C 
ATOM     14  O   UNL     1       7.531   5.409  16.488  0.00  0.00    +0.000 OA
ENDBRANCH   6  14
ENDBRANCH   5  12
ENDBRANCH   1   5
BRANCH   3  15
ATOM     15  C   UNL     1       2.226   3.897  18.113  0.00  0.00    +0.000 C 
BRANCH  15  16
ATOM     16  N   UNL     1       2.240   3.379  19.479  0.00  0.00    +0.000 N 
ATOM     17  C   UNL     1       1.327   3.774  20.436  0.00  0.00    +0.000 C 
ATOM     18  O   UNL     1       0.343   4.475  20.261  0.00  0.00    +0.000 OA
ATOM     19  C   UNL     1       1.784   3.267  21.769  0.00  0.00    +0.000 C 
ATOM     20  C   UNL     1       2.949   2.332  21.466  0.00  0.00    +0.000 C 
ATOM     21  C   UNL     1       3.192   2.401  19.957  0.00  0.00    +0.000 C 
ATOM     22  C   UNL     1       4.640   2.737  19.628  0.00  0.00    +0.000 C 
ENDBRANCH  15  16
ENDBRANCH   3  15
TORSDOF 5
ENDMDL
MODEL 6
REMARK VINA RESULT:      -6.3      2.951      4.571
REMARK  Name = 
REMARK  8 active torsions:
REMARK  status: ('A' for Active; 'I' for Inactive)
REMARK    1  A    between atoms: C_1  and  O_2
REMARK    2  A    between atoms: O_2  and  C_3
REMARK    3  A    between atoms: C_9  and  C_10
REMARK    4  A    between atoms: C_10  and  N_11
REMARK    5  A    between atoms: N_11  and  C_12
REMARK    6  A    between atoms: C_13  and  C_15
REMARK    7  A    between atoms: C_15  and  N_16
REMARK    8  A    between atoms: C_21  and  C_22
REMARK                            x       y       z     vdW  Elec       q    Type
REMARK                         _______ _______ _______ _____ _____    ______ ____
ROOT
ATOM      1  N   UNL     1       2.515   7.647  18.415  0.00  0.00    +0.000 N 
ATOM      2  C   UNL     1       3.494   7.365  17.381  0.00  0.00    +0.000 C 
ATOM      3  C   UNL     1       1.875   8.888  18.384  0.00  0.00    +0.000 C 
ATOM      4  O   UNL     1       2.150   9.735  17.533  0.00  0.00    +0.000 OA
ENDROOT
BRANCH   1   5
ATOM      5  C   UNL     1       2.604   6.852  19.634  0.00  0.00    +0.000 C 
BRANCH   5  12
ATOM      6  C   UNL     1       4.203   4.782  19.471  0.00  0.00    +0.000 A 
ATOM      7  C   UNL     1       4.322   3.399  19.234  0.00  0.00    +0.000 A 
ATOM      8  C   UNL     1       3.200   2.605  18.995  0.00  0.00    +0.000 A 
ATOM      9  C   UNL     1       1.939   3.184  19.010  0.00  0.00    +0.000 A 
ATOM     10 CL   UNL     1       0.550   2.227  18.688  0.00  0.00    +0.000 Cl
ATOM     11  C   UNL     1       1.803   4.545  19.266  0.00  0.00    +0.000 A 
ATOM     12  C   UNL     1       2.922   5.372  19.515  0.00  0.00    +0.000 A 
BRANCH   6  14
ATOM     13  C   UNL     1       6.466   5.269  18.907  0.00  0.00    +0.000 C 
ATOM     14  O   UNL     1       5.299   5.582  19.671  0.00  0.00    +0.000 OA
ENDBRANCH   6  14
ENDBRANCH   5  12
ENDBRANCH   1   5
BRANCH   3  15
ATOM     15  C   UNL     1       0.838   9.199  19.472  0.00  0.00    +0.000 C 
BRANCH  15  16
ATOM     16  N   UNL     1       0.253  10.537  19.432  0.00  0.00    +0.000 N 
ATOM     17  C   UNL     1       0.520  11.496  20.387  0.00  0.00    +0.000 C 
ATOM     18  O   UNL     1       1.343  11.422  21.287  0.00  0.00    +0.000 OA
ATOM     19  C   UNL     1      -0.433  12.636  20.199  0.00  0.00    +0.000 C 
ATOM     20  C   UNL     1      -1.145  12.350  18.882  0.00  0.00    +0.000 C 
ATOM     21  C   UNL     1      -0.642  10.991  18.391  0.00  0.00    +0.000 C 
ATOM     22  C   UNL     1      -1.788  10.031  18.101  0.00  0.00    +0.000 C 
ENDBRANCH  15  16
ENDBRANCH   3  15
TORSDOF 5
ENDMDL
MODEL 7
REMARK VINA RESULT:      -6.3      3.459      6.645
REMARK  Name = 
REMARK  8 active torsions:
REMARK  status: ('A' for Active; 'I' for Inactive)
REMARK    1  A    between atoms: C_1  and  O_2
REMARK    2  A    between atoms: O_2  and  C_3
REMARK    3  A    between atoms: C_9  and  C_10
REMARK    4  A    between atoms: C_10  and  N_11
REMARK    5  A    between atoms: N_11  and  C_12
REMARK    6  A    between atoms: C_13  and  C_15
REMARK    7  A    between atoms: C_15  and  N_16
REMARK    8  A    between atoms: C_21  and  C_22
REMARK                            x       y       z     vdW  Elec       q    Type
REMARK                         _______ _______ _______ _____ _____    ______ ____
ROOT
ATOM      1  N   UNL     1       5.542   4.658  17.248  0.00  0.00    +0.000 N 
ATOM      2  C   UNL     1       6.127   4.316  18.531  0.00  0.00    +0.000 C 
ATOM      3  C   UNL     1       6.393   4.723  16.141  0.00  0.00    +0.000 C 
ATOM      4  O   UNL     1       7.606   4.532  16.247  0.00  0.00    +0.000 OA
ENDROOT
BRANCH   1   5
ATOM      5  C   UNL     1       4.257   5.344  17.276  0.00  0.00    +0.000 C 
BRANCH   5  12
ATOM      6  C   UNL     1       2.632   3.793  18.628  0.00  0.00    +0.000 A 
ATOM      7  C   UNL     1       1.664   3.701  19.646  0.00  0.00    +0.000 A 
ATOM      8  C   UNL     1       1.302   4.815  20.405  0.00  0.00    +0.000 A 
ATOM      9  C   UNL     1       1.921   6.033  20.166  0.00  0.00    +0.000 A 
ATOM     10 CL   UNL     1       1.465   7.421  21.070  0.00  0.00    +0.000 Cl
ATOM     11  C   UNL     1       2.896   6.136  19.179  0.00  0.00    +0.000 A 
ATOM     12  C   UNL     1       3.285   5.023  18.399  0.00  0.00    +0.000 A 
BRANCH   6  14
ATOM     13  C   UNL     1       3.476   1.567  18.533  0.00  0.00    +0.000 C 
ATOM     14  O   UNL     1       2.972   2.717  17.849  0.00  0.00    +0.000 OA
ENDBRANCH   6  14
ENDBRANCH   5  12
ENDBRANCH   1   5
BRANCH   3  15
ATOM     15  C   UNL     1       5.787   5.083  14.778  0.00  0.00    +0.000 C 
BRANCH  15  16
ATOM     16  N   UNL     1       6.448   4.500  13.613  0.00  0.00    +0.000 N 
ATOM     17  C   UNL     1       7.628   4.997  13.098  0.00  0.00    +0.000 C 
ATOM     18  O   UNL     1       8.330   5.867  13.589  0.00  0.00    +0.000 OA
ATOM     19  C   UNL     1       7.879   4.351  11.771  0.00  0.00    +0.000 C 
ATOM     20  C   UNL     1       6.837   3.244  11.659  0.00  0.00    +0.000 C 
ATOM     21  C   UNL     1       5.945   3.348  12.898  0.00  0.00    +0.000 C 
ATOM     22  C   UNL     1       4.470   3.443  12.532  0.00  0.00    +0.000 C 
ENDBRANCH  15  16
ENDBRANCH   3  15
TORSDOF 5
ENDMDL
MODEL 8
REMARK VINA RESULT:      -6.2      2.472      4.132
REMARK  Name = 
REMARK  8 active torsions:
REMARK  status: ('A' for Active; 'I' for Inactive)
REMARK    1  A    between atoms: C_1  and  O_2
REMARK    2  A    between atoms: O_2  and  C_3
REMARK    3  A    between atoms: C_9  and  C_10
REMARK    4  A    between atoms: C_10  and  N_11
REMARK    5  A    between atoms: N_11  and  C_12
REMARK    6  A    between atoms: C_13  and  C_15
REMARK    7  A    between atoms: C_15  and  N_16
REMARK    8  A    between atoms: C_21  and  C_22
REMARK                            x       y       z     vdW  Elec       q    Type
REMARK                         _______ _______ _______ _____ _____    ______ ____
ROOT
ATOM      1  N   UNL     1       4.429   5.436  17.024  0.00  0.00    +0.000 N 
ATOM      2  C   UNL     1       4.578   6.601  16.172  0.00  0.00    +0.000 C 
ATOM      3  C   UNL     1       4.207   5.650  18.387  0.00  0.00    +0.000 C 
ATOM      4  O   UNL     1       4.172   6.786  18.864  0.00  0.00    +0.000 OA
ENDROOT
BRANCH   1   5
ATOM      5  C   UNL     1       4.967   4.181  16.517  0.00  0.00    +0.000 C 
BRANCH   5  12
ATOM      6  C   UNL     1       7.045   4.816  15.049  0.00  0.00    +0.000 A 
ATOM      7  C   UNL     1       7.612   4.850  13.761  0.00  0.00    +0.000 A 
ATOM      8  C   UNL     1       6.935   4.332  12.656  0.00  0.00    +0.000 A 
ATOM      9  C   UNL     1       5.686   3.755  12.830  0.00  0.00    +0.000 A 
ATOM     10 CL   UNL     1       4.826   3.140  11.477  0.00  0.00    +0.000 Cl
ATOM     11  C   UNL     1       5.121   3.692  14.101  0.00  0.00    +0.000 A 
ATOM     12  C   UNL     1       5.787   4.205  15.238  0.00  0.00    +0.000 A 
BRANCH   6  14
ATOM     13  C   UNL     1       7.772   4.523  17.298  0.00  0.00    +0.000 C 
ATOM     14  O   UNL     1       7.681   5.353  16.138  0.00  0.00    +0.000 OA
ENDBRANCH   6  14
ENDBRANCH   5  12
ENDBRANCH   1   5
BRANCH   3  15
ATOM     15  C   UNL     1       4.046   4.427  19.299  0.00  0.00    +0.000 C 
BRANCH  15  16
ATOM     16  N   UNL     1       2.710   3.840  19.350  0.00  0.00    +0.000 N 
ATOM     17  C   UNL     1       1.738   4.272  20.230  0.00  0.00    +0.000 C 
ATOM     18  O   UNL     1       1.800   5.244  20.966  0.00  0.00    +0.000 OA
ATOM     19  C   UNL     1       0.603   3.296  20.203  0.00  0.00    +0.000 C 
ATOM     20  C   UNL     1       0.906   2.358  19.041  0.00  0.00    +0.000 C 
ATOM     21  C   UNL     1       2.270   2.768  18.484  0.00  0.00    +0.000 C 
ATOM     22  C   UNL     1       3.236   1.593  18.417  0.00  0.00    +0.000 C 
ENDBRANCH  15  16
ENDBRANCH   3  15
TORSDOF 5
ENDMDL
MODEL 9
REMARK VINA RESULT:      -6.2      3.333      7.084
REMARK  Name = 
REMARK  8 active torsions:
REMARK  status: ('A' for Active; 'I' for Inactive)
REMARK    1  A    between atoms: C_1  and  O_2
REMARK    2  A    between atoms: O_2  and  C_3
REMARK    3  A    between atoms: C_9  and  C_10
REMARK    4  A    between atoms: C_10  and  N_11
REMARK    5  A    between atoms: N_11  and  C_12
REMARK    6  A    between atoms: C_13  and  C_15
REMARK    7  A    between atoms: C_15  and  N_16
REMARK    8  A    between atoms: C_21  and  C_22
REMARK                            x       y       z     vdW  Elec       q    Type
REMARK                         _______ _______ _______ _____ _____    ______ ____
ROOT
ATOM      1  N   UNL     1       1.659   8.204  19.586  0.00  0.00    +0.000 N 
ATOM      2  C   UNL     1       1.182   8.533  20.916  0.00  0.00    +0.000 C 
ATOM      3  C   UNL     1       2.287   6.969  19.407  0.00  0.00    +0.000 C 
ATOM      4  O   UNL     1       2.466   6.193  20.347  0.00  0.00    +0.000 OA
ENDROOT
BRANCH   1   5
ATOM      5  C   UNL     1       1.871   9.318  18.672  0.00  0.00    +0.000 C 
BRANCH   5  12
ATOM      6  C   UNL     1       0.690  11.653  18.841  0.00  0.00    +0.000 A 
ATOM      7  C   UNL     1      -0.496  12.391  18.660  0.00  0.00    +0.000 A 
ATOM      8  C   UNL     1      -1.646  11.798  18.140  0.00  0.00    +0.000 A 
ATOM      9  C   UNL     1      -1.619  10.461  17.774  0.00  0.00    +0.000 A 
ATOM     10 CL   UNL     1      -3.035   9.707  17.160  0.00  0.00    +0.000 Cl
ATOM     11  C   UNL     1      -0.448   9.723  17.924  0.00  0.00    +0.000 A 
ATOM     12  C   UNL     1       0.733  10.300  18.445  0.00  0.00    +0.000 A 
BRANCH   6  14
ATOM     13  C   UNL     1       2.568  13.089  18.541  0.00  0.00    +0.000 C 
ATOM     14  O   UNL     1       1.818  12.212  19.385  0.00  0.00    +0.000 OA
ENDBRANCH   6  14
ENDBRANCH   5  12
ENDBRANCH   1   5
BRANCH   3  15
ATOM     15  C   UNL     1       2.795   6.607  18.005  0.00  0.00    +0.000 C 
BRANCH  15  16
ATOM     16  N   UNL     1       3.167   5.209  17.802  0.00  0.00    +0.000 N 
ATOM     17  C   UNL     1       2.235   4.214  17.587  0.00  0.00    +0.000 C 
ATOM     18  O   UNL     1       1.036   4.361  17.410  0.00  0.00    +0.000 OA
ATOM     19  C   UNL     1       2.923   2.887  17.687  0.00  0.00    +0.000 C 
ATOM     20  C   UNL     1       4.411   3.210  17.759  0.00  0.00    +0.000 C 
ATOM     21  C   UNL     1       4.533   4.735  17.791  0.00  0.00    +0.000 C 
ATOM     22  C   UNL     1       5.362   5.215  18.975  0.00  0.00    +0.000 C 
ENDBRANCH  15  16
ENDBRANCH   3  15
TORSDOF 5
ENDMDL
