MODEL 1
REMARK VINA RESULT:      -8.3      0.000      0.000
REMARK  Name = 
REMARK  4 active torsions:
REMARK  status: ('A' for Active; 'I' for Inactive)
REMARK    1  A    between atoms: C_1  and  N_2
REMARK    2  A    between atoms: C_11  and  C_12
REMARK    3  A    between atoms: C_12  and  N_13
REMARK    4  A    between atoms: C_14  and  C_16
REMARK                            x       y       z     vdW  Elec       q    Type
REMARK                         _______ _______ _______ _____ _____    ______ ____
ROOT
ATOM      1  N   UNL     1       1.384   8.612  19.012  0.00  0.00    +0.000 N 
ATOM      2  C   UNL     1       0.828   9.639  19.763  0.00  0.00    +0.000 C 
ATOM      3  O   UNL     1       1.027   9.790  20.960  0.00  0.00    +0.000 OA
ATOM      4  H   UNL     1       1.091   8.631  18.037  0.00  0.00    +0.000 HD
ENDROOT
BRANCH   2   5
ATOM      5  C   UNL     1       0.088  10.603  18.909  0.00  0.00    +0.000 A 
ATOM      6  N   UNL     1       0.359  11.926  19.064  0.00  0.00    +0.000 NA
ATOM      7  N   UNL     1      -0.846  12.496  18.866  0.00  0.00    +0.000 N 
ATOM      8  C   UNL     1      -1.847  11.562  18.851  0.00  0.00    +0.000 A 
ATOM      9  C   UNL     1      -1.181  10.502  18.276  0.00  0.00    +0.000 A 
ATOM     10  C   UNL     1      -1.782   9.894  17.050  0.00  0.00    +0.000 C 
ATOM     11  O   UNL     1      -2.850  10.736  16.435  0.00  0.00    +0.000 OA
ATOM     12  C   UNL     1      -3.678  11.408  17.317  0.00  0.00    +0.000 A 
ATOM     13  C   UNL     1      -4.985  11.712  16.949  0.00  0.00    +0.000 A 
ATOM     14  C   UNL     1      -5.864  12.255  17.901  0.00  0.00    +0.000 A 
ATOM     15  C   UNL     1      -5.436  12.506  19.209  0.00  0.00    +0.000 A 
ATOM     16  C   UNL     1      -4.102  12.303  19.547  0.00  0.00    +0.000 A 
ATOM     17  C   UNL     1      -3.229  11.811  18.578  0.00  0.00    +0.000 A 
ATOM     18  H   UNL     1      -0.916  13.494  18.701  0.00  0.00    +0.000 HD
ENDBRANCH   2   5
BRANCH   1  19
ATOM     19  C   UNL     1       2.207   7.516  19.499  0.00  0.00    +0.000 C 
BRANCH  19  30
ATOM     20  C   UNL     1       2.915   4.794  20.320  0.00  0.00    +0.000 C 
ATOM     21  N   UNL     1       2.968   5.121  18.912  0.00  0.00    +0.000 N 
ATOM     22  C   UNL     1       3.488   4.142  18.049  0.00  0.00    +0.000 C 
ATOM     23  O   UNL     1       3.402   2.942  18.277  0.00  0.00    +0.000 OA
ATOM     24  C   UNL     1       4.258   4.690  16.952  0.00  0.00    +0.000 A 
ATOM     25  C   UNL     1       4.951   4.029  15.946  0.00  0.00    +0.000 A 
ATOM     26  C   UNL     1       5.695   4.999  15.235  0.00  0.00    +0.000 A 
ATOM     27  C   UNL     1       5.421   6.229  15.797  0.00  0.00    +0.000 A 
ATOM     28  N   UNL     1       4.528   6.032  16.815  0.00  0.00    +0.000 N 
ATOM     29  C   UNL     1       4.011   7.044  17.731  0.00  0.00    +0.000 C 
ATOM     30  C   UNL     1       2.742   6.523  18.422  0.00  0.00    +0.000 C 
ENDBRANCH  19  30
ENDBRANCH   1  19
TORSDOF 3
ENDMDL
MODEL 2
REMARK VINA RESULT:      -8.1      1.225      1.490
REMARK  Name = 
REMARK  4 active torsions:
REMARK  status: ('A' for Active; 'I' for Inactive)
REMARK    1  A    between atoms: C_1  and  N_2
REMARK    2  A    between atoms: C_11  and  C_12
REMARK    3  A    between atoms: C_12  and  N_13
REMARK    4  A    between atoms: C_14  and  C_16
REMARK                            x       y       z     vdW  Elec       q    Type
REMARK                         _______ _______ _______ _____ _____    ______ ____
ROOT
ATOM      1  N   UNL     1       1.267   9.843  18.051  0.00  0.00    +0.000 N 
ATOM      2  C   UNL     1       0.217  10.122  18.914  0.00  0.00    +0.000 C 
ATOM      3  O   UNL     1       0.241   9.884  20.115  0.00  0.00    +0.000 OA
ATOM      4  H   UNL     1       1.061  10.089  17.084  0.00  0.00    +0.000 HD
ENDROOT
BRANCH   2   5
ATOM      5  C   UNL     1      -0.870  10.869  18.231  0.00  0.00    +0.000 A 
ATOM      6  N   UNL     1      -0.712  12.210  18.067  0.00  0.00    +0.000 NA
ATOM      7  N   UNL     1      -1.969  12.671  18.215  0.00  0.00    +0.000 N 
ATOM      8  C   UNL     1      -2.806  11.703  18.702  0.00  0.00    +0.000 A 
ATOM      9  C   UNL     1      -2.258  10.589  18.108  0.00  0.00    +0.000 A 
ATOM     10  C   UNL     1      -3.163   9.730  17.285  0.00  0.00    +0.000 C 
ATOM     11  O   UNL     1      -4.463  10.387  16.956  0.00  0.00    +0.000 OA
ATOM     12  C   UNL     1      -5.017  11.172  17.952  0.00  0.00    +0.000 A 
ATOM     13  C   UNL     1      -6.396  11.336  18.022  0.00  0.00    +0.000 A 
ATOM     14  C   UNL     1      -6.960  12.005  19.120  0.00  0.00    +0.000 A 
ATOM     15  C   UNL     1      -6.148  12.521  20.137  0.00  0.00    +0.000 A 
ATOM     16  C   UNL     1      -4.765  12.451  20.015  0.00  0.00    +0.000 A 
ATOM     17  C   UNL     1      -4.218  11.828  18.894  0.00  0.00    +0.000 A 
ATOM     18  H   UNL     1      -2.202  13.616  17.927  0.00  0.00    +0.000 HD
ENDBRANCH   2   5
BRANCH   1  19
ATOM     19  C   UNL     1       2.513   9.167  18.376  0.00  0.00    +0.000 C 
BRANCH  19  30
ATOM     20  C   UNL     1       1.967   7.044  20.320  0.00  0.00    +0.000 C 
ATOM     21  N   UNL     1       2.224   6.668  18.947  0.00  0.00    +0.000 N 
ATOM     22  C   UNL     1       2.326   5.294  18.671  0.00  0.00    +0.000 C 
ATOM     23  O   UNL     1       1.731   4.440  19.317  0.00  0.00    +0.000 OA
ATOM     24  C   UNL     1       3.308   4.981  17.654  0.00  0.00    +0.000 A 
ATOM     25  C   UNL     1       3.708   3.743  17.167  0.00  0.00    +0.000 A 
ATOM     26  C   UNL     1       4.825   3.958  16.328  0.00  0.00    +0.000 A 
ATOM     27  C   UNL     1       5.067   5.315  16.294  0.00  0.00    +0.000 A 
ATOM     28  N   UNL     1       4.124   5.926  17.077  0.00  0.00    +0.000 N 
ATOM     29  C   UNL     1       4.037   7.349  17.388  0.00  0.00    +0.000 C 
ATOM     30  C   UNL     1       2.634   7.682  17.917  0.00  0.00    +0.000 C 
ENDBRANCH  19  30
ENDBRANCH   1  19
TORSDOF 3
ENDMDL
MODEL 3
REMARK VINA RESULT:      -8.1      3.152      3.940
REMARK  Name = 
REMARK  4 active torsions:
REMARK  status: ('A' for Active; 'I' for Inactive)
REMARK    1  A    between atoms: C_1  and  N_2
REMARK    2  A    between atoms: C_11  and  C_12
REMARK    3  A    between atoms: C_12  and  N_13
REMARK    4  A    between atoms: C_14  and  C_16
REMARK                            x       y       z     vdW  Elec       q    Type
REMARK                         _______ _______ _______ _____ _____    ______ ____
ROOT
ATOM      1  N   UNL     1       1.894   7.651  19.490  0.00  0.00    +0.000 N 
ATOM      2  C   UNL     1       1.377   8.544  20.418  0.00  0.00    +0.000 C 
ATOM      3  O   UNL     1       1.504   8.418  21.628  0.00  0.00    +0.000 OA
ATOM      4  H   UNL     1       1.672   7.905  18.529  0.00  0.00    +0.000 HD
ENDROOT
BRANCH   2   5
ATOM      5  C   UNL     1       0.781   9.735  19.758  0.00  0.00    +0.000 A 
ATOM      6  N   UNL     1       0.512   9.655  18.427  0.00  0.00    +0.000 NA
ATOM      7  N   UNL     1       0.779  10.905  18.001  0.00  0.00    +0.000 N 
ATOM      8  C   UNL     1       1.425  11.637  18.961  0.00  0.00    +0.000 A 
ATOM      9  C   UNL     1       0.844  11.114  20.095  0.00  0.00    +0.000 A 
ATOM     10  C   UNL     1       0.193  12.072  21.039  0.00  0.00    +0.000 C 
ATOM     11  O   UNL     1      -0.020  13.429  20.453  0.00  0.00    +0.000 OA
ATOM     12  C   UNL     1       0.982  13.895  19.619  0.00  0.00    +0.000 A 
ATOM     13  C   UNL     1       1.205  15.262  19.499  0.00  0.00    +0.000 A 
ATOM     14  C   UNL     1       2.317  15.721  18.775  0.00  0.00    +0.000 A 
ATOM     15  C   UNL     1       3.194  14.819  18.162  0.00  0.00    +0.000 A 
ATOM     16  C   UNL     1       2.911  13.458  18.192  0.00  0.00    +0.000 A 
ATOM     17  C   UNL     1       1.776  13.020  18.872  0.00  0.00    +0.000 A 
ATOM     18  H   UNL     1       0.460  11.209  17.087  0.00  0.00    +0.000 HD
ENDBRANCH   2   5
BRANCH   1  19
ATOM     19  C   UNL     1       2.586   6.402  19.767  0.00  0.00    +0.000 C 
BRANCH  19  30
ATOM     20  C   UNL     1       3.207   3.550  20.028  0.00  0.00    +0.000 C 
ATOM     21  N   UNL     1       3.341   4.165  18.726  0.00  0.00    +0.000 N 
ATOM     22  C   UNL     1       3.892   3.375  17.702  0.00  0.00    +0.000 C 
ATOM     23  O   UNL     1       3.775   2.157  17.666  0.00  0.00    +0.000 OA
ATOM     24  C   UNL     1       4.727   4.121  16.785  0.00  0.00    +0.000 A 
ATOM     25  C   UNL     1       5.464   3.669  15.697  0.00  0.00    +0.000 A 
ATOM     26  C   UNL     1       6.260   4.747  15.245  0.00  0.00    +0.000 A 
ATOM     27  C   UNL     1       5.975   5.838  16.040  0.00  0.00    +0.000 A 
ATOM     28  N   UNL     1       5.025   5.454  16.948  0.00  0.00    +0.000 N 
ATOM     29  C   UNL     1       4.475   6.265  18.030  0.00  0.00    +0.000 C 
ATOM     30  C   UNL     1       3.163   5.644  18.532  0.00  0.00    +0.000 C 
ENDBRANCH  19  30
ENDBRANCH   1  19
TORSDOF 3
ENDMDL
MODEL 4
REMARK VINA RESULT:      -8.0      6.950     10.390
REMARK  Name = 
REMARK  4 active torsions:
REMARK  status: ('A' for Active; 'I' for Inactive)
REMARK    1  A    between atoms: C_1  and  N_2
REMARK    2  A    between atoms: C_11  and  C_12
REMARK    3  A    between atoms: C_12  and  N_13
REMARK    4  A    between atoms: C_14  and  C_16
REMARK                            x       y       z     vdW  Elec       q    Type
REMARK                         _______ _______ _______ _____ _____    ______ ____
ROOT
ATOM      1  N   UNL     1       9.061   9.208  19.233  0.00  0.00    +0.000 N 
ATOM      2  C   UNL     1       8.226   9.148  18.127  0.00  0.00    +0.000 C 
ATOM      3  O   UNL     1       7.892  10.127  17.473  0.00  0.00    +0.000 OA
ATOM      4  H   UNL     1       9.213   8.298  19.665  0.00  0.00    +0.000 HD
ENDROOT
BRANCH   2   5
ATOM      5  C   UNL     1       7.910   7.745  17.755  0.00  0.00    +0.000 A 
ATOM      6  N   UNL     1       7.862   7.435  16.431  0.00  0.00    +0.000 NA
ATOM      7  N   UNL     1       6.871   6.524  16.381  0.00  0.00    +0.000 N 
ATOM      8  C   UNL     1       6.175   6.473  17.559  0.00  0.00    +0.000 A 
ATOM      9  C   UNL     1       7.189   6.737  18.451  0.00  0.00    +0.000 A 
ATOM     10  C   UNL     1       7.415   5.750  19.550  0.00  0.00    +0.000 C 
ATOM     11  O   UNL     1       6.716   4.448  19.329  0.00  0.00    +0.000 OA
ATOM     12  C   UNL     1       5.461   4.523  18.750  0.00  0.00    +0.000 A 
ATOM     13  C   UNL     1       4.512   3.544  19.020  0.00  0.00    +0.000 A 
ATOM     14  C   UNL     1       3.197   3.706  18.554  0.00  0.00    +0.000 A 
ATOM     15  C   UNL     1       2.836   4.834  17.810  0.00  0.00    +0.000 A 
ATOM     16  C   UNL     1       3.809   5.760  17.449  0.00  0.00    +0.000 A 
ATOM     17  C   UNL     1       5.121   5.561  17.876  0.00  0.00    +0.000 A 
ATOM     18  H   UNL     1       6.752   5.947  15.555  0.00  0.00    +0.000 HD
ENDBRANCH   2   5
BRANCH   1  19
ATOM     19  C   UNL     1       9.611  10.403  19.854  0.00  0.00    +0.000 C 
BRANCH  19  30
ATOM     20  C   UNL     1      11.814  11.584  18.325  0.00  0.00    +0.000 C 
ATOM     21  N   UNL     1      10.515  12.215  18.254  0.00  0.00    +0.000 N 
ATOM     22  C   UNL     1      10.435  13.433  17.559  0.00  0.00    +0.000 C 
ATOM     23  O   UNL     1      11.176  13.716  16.626  0.00  0.00    +0.000 OA
ATOM     24  C   UNL     1       9.499  14.371  18.143  0.00  0.00    +0.000 A 
ATOM     25  C   UNL     1       9.199  15.672  17.760  0.00  0.00    +0.000 A 
ATOM     26  C   UNL     1       8.370  16.229  18.760  0.00  0.00    +0.000 A 
ATOM     27  C   UNL     1       8.155  15.256  19.715  0.00  0.00    +0.000 A 
ATOM     28  N   UNL     1       8.820  14.128  19.315  0.00  0.00    +0.000 N 
ATOM     29  C   UNL     1       8.928  12.872  20.051  0.00  0.00    +0.000 C 
ATOM     30  C   UNL     1       9.366  11.747  19.102  0.00  0.00    +0.000 C 
ENDBRANCH  19  30
ENDBRANCH   1  19
TORSDOF 3
ENDMDL
MODEL 5
REMARK VINA RESULT:      -8.0      2.763      3.867
REMARK  Name = 
REMARK  4 active torsions:
REMARK  status: ('A' for Active; 'I' for Inactive)
REMARK    1  A    between atoms: C_1  and  N_2
REMARK    2  A    between atoms: C_11  and  C_12
REMARK    3  A    between atoms: C_12  and  N_13
REMARK    4  A    between atoms: C_14  and  C_16
REMARK                            x       y       z     vdW  Elec       q    Type
REMARK                         _______ _______ _______ _____ _____    ______ ____
ROOT
ATOM      1  N   UNL     1       2.141   8.260  18.622  0.00  0.00    +0.000 N 
ATOM      2  C   UNL     1       1.369   9.219  19.262  0.00  0.00    +0.000 C 
ATOM      3  O   UNL     1       0.874   9.065  20.371  0.00  0.00    +0.000 OA
ATOM      4  H   UNL     1       2.451   8.554  17.697  0.00  0.00    +0.000 HD
ENDROOT
BRANCH   2   5
ATOM      5  C   UNL     1       1.340  10.495  18.503  0.00  0.00    +0.000 A 
ATOM      6  N   UNL     1       2.302  10.696  17.562  0.00  0.00    +0.000 NA
ATOM      7  N   UNL     1       2.532  12.020  17.658  0.00  0.00    +0.000 N 
ATOM      8  C   UNL     1       1.939  12.554  18.771  0.00  0.00    +0.000 A 
ATOM      9  C   UNL     1       0.810  11.769  18.843  0.00  0.00    +0.000 A 
ATOM     10  C   UNL     1      -0.512  12.466  18.872  0.00  0.00    +0.000 C 
ATOM     11  O   UNL     1      -0.431  13.906  18.487  0.00  0.00    +0.000 OA
ATOM     12  C   UNL     1       0.691  14.590  18.925  0.00  0.00    +0.000 A 
ATOM     13  C   UNL     1       0.623  15.959  19.157  0.00  0.00    +0.000 A 
ATOM     14  C   UNL     1       1.715  16.618  19.745  0.00  0.00    +0.000 A 
ATOM     15  C   UNL     1       2.875  15.914  20.087  0.00  0.00    +0.000 A 
ATOM     16  C   UNL     1       2.984  14.567  19.758  0.00  0.00    +0.000 A 
ATOM     17  C   UNL     1       1.911  13.938  19.129  0.00  0.00    +0.000 A 
ATOM     18  H   UNL     1       3.045  12.501  16.926  0.00  0.00    +0.000 HD
ENDBRANCH   2   5
BRANCH   1  19
ATOM     19  C   UNL     1       2.431   6.913  19.088  0.00  0.00    +0.000 C 
BRANCH  19  30
ATOM     20  C   UNL     1       3.179   4.214  19.947  0.00  0.00    +0.000 C 
ATOM     21  N   UNL     1       3.310   4.548  18.546  0.00  0.00    +0.000 N 
ATOM     22  C   UNL     1       3.917   3.591  17.716  0.00  0.00    +0.000 C 
ATOM     23  O   UNL     1       3.858   2.387  17.936  0.00  0.00    +0.000 OA
ATOM     24  C   UNL     1       4.734   4.169  16.670  0.00  0.00    +0.000 A 
ATOM     25  C   UNL     1       5.512   3.537  15.709  0.00  0.00    +0.000 A 
ATOM     26  C   UNL     1       6.265   4.535  15.048  0.00  0.00    +0.000 A 
ATOM     27  C   UNL     1       5.914   5.752  15.593  0.00  0.00    +0.000 A 
ATOM     28  N   UNL     1       4.966   5.520  16.553  0.00  0.00    +0.000 N 
ATOM     29  C   UNL     1       4.358   6.510  17.436  0.00  0.00    +0.000 C 
ATOM     30  C   UNL     1       3.067   5.943  18.045  0.00  0.00    +0.000 C 
ENDBRANCH  19  30
ENDBRANCH   1  19
TORSDOF 3
ENDMDL
MODEL 6
REMARK VINA RESULT:      -8.0      2.880      3.961
REMARK  Name = 
REMARK  4 active torsions:
REMARK  status: ('A' for Active; 'I' for Inactive)
REMARK    1  A    between atoms: C_1  and  N_2
REMARK    2  A    between atoms: C_11  and  C_12
REMARK    3  A    between atoms: C_12  and  N_13
REMARK    4  A    between atoms: C_14  and  C_16
REMARK                            x       y       z     vdW  Elec       q    Type
REMARK                         _______ _______ _______ _____ _____    ______ ____
ROOT
ATOM      1  N   UNL     1       1.837   8.421  18.419  0.00  0.00    +0.000 N 
ATOM      2  C   UNL     1       1.536   9.768  18.276  0.00  0.00    +0.000 C 
ATOM      3  O   UNL     1       2.159  10.531  17.551  0.00  0.00    +0.000 OA
ATOM      4  H   UNL     1       1.225   7.946  19.080  0.00  0.00    +0.000 HD
ENDROOT
BRANCH   2   5
ATOM      5  C   UNL     1       0.286  10.128  18.994  0.00  0.00    +0.000 A 
ATOM      6  N   UNL     1      -0.775  10.543  18.251  0.00  0.00    +0.000 NA
ATOM      7  N   UNL     1      -1.340  11.474  19.044  0.00  0.00    +0.000 N 
ATOM      8  C   UNL     1      -0.525  11.801  20.094  0.00  0.00    +0.000 A 
ATOM      9  C   UNL     1       0.074  10.583  20.324  0.00  0.00    +0.000 A 
ATOM     10  C   UNL     1      -0.021  10.017  21.703  0.00  0.00    +0.000 C 
ATOM     11  O   UNL     1      -1.036  10.703  22.556  0.00  0.00    +0.000 OA
ATOM     12  C   UNL     1      -1.142  12.074  22.391  0.00  0.00    +0.000 A 
ATOM     13  C   UNL     1      -1.564  12.871  23.450  0.00  0.00    +0.000 A 
ATOM     14  C   UNL     1      -1.522  14.269  23.324  0.00  0.00    +0.000 A 
ATOM     15  C   UNL     1      -1.075  14.868  22.141  0.00  0.00    +0.000 A 
ATOM     16  C   UNL     1      -0.755  14.072  21.046  0.00  0.00    +0.000 A 
ATOM     17  C   UNL     1      -0.849  12.687  21.169  0.00  0.00    +0.000 A 
ATOM     18  H   UNL     1      -2.280  11.805  18.851  0.00  0.00    +0.000 HD
ENDBRANCH   2   5
BRANCH   1  19
ATOM     19  C   UNL     1       2.956   7.704  17.825  0.00  0.00    +0.000 C 
BRANCH  19  30
ATOM     20  C   UNL     1       5.639   6.591  17.445  0.00  0.00    +0.000 C 
ATOM     21  N   UNL     1       4.710   5.869  18.286  0.00  0.00    +0.000 N 
ATOM     22  C   UNL     1       5.120   4.609  18.754  0.00  0.00    +0.000 C 
ATOM     23  O   UNL     1       6.294   4.324  18.952  0.00  0.00    +0.000 OA
ATOM     24  C   UNL     1       4.043   3.645  18.835  0.00  0.00    +0.000 A 
ATOM     25  C   UNL     1       4.084   2.307  19.203  0.00  0.00    +0.000 A 
ATOM     26  C   UNL     1       2.811   1.753  18.935  0.00  0.00    +0.000 A 
ATOM     27  C   UNL     1       2.012   2.763  18.441  0.00  0.00    +0.000 A 
ATOM     28  N   UNL     1       2.760   3.909  18.413  0.00  0.00    +0.000 N 
ATOM     29  C   UNL     1       2.344   5.210  17.898  0.00  0.00    +0.000 C 
ATOM     30  C   UNL     1       3.280   6.305  18.432  0.00  0.00    +0.000 C 
ENDBRANCH  19  30
ENDBRANCH   1  19
TORSDOF 3
ENDMDL
MODEL 7
REMARK VINA RESULT:      -7.9      3.253      4.254
REMARK  Name = 
REMARK  4 active torsions:
REMARK  status: ('A' for Active; 'I' for Inactive)
REMARK    1  A    between atoms: C_1  and  N_2
REMARK    2  A    between atoms: C_11  and  C_12
REMARK    3  A    between atoms: C_12  and  N_13
REMARK    4  A    between atoms: C_14  and  C_16
REMARK                            x       y       z     vdW  Elec       q    Type
REMARK                         _______ _______ _______ _____ _____    ______ ____
ROOT
ATOM      1  N   UNL     1       1.861   8.572  19.309  0.00  0.00    +0.000 N 
ATOM      2  C   UNL     1       0.934   9.602  19.376  0.00  0.00    +0.000 C 
ATOM      3  O   UNL     1       0.135   9.857  18.484  0.00  0.00    +0.000 OA
ATOM      4  H   UNL     1       2.458   8.523  20.133  0.00  0.00    +0.000 HD
ENDROOT
BRANCH   2   5
ATOM      5  C   UNL     1       0.937  10.257  20.709  0.00  0.00    +0.000 A 
ATOM      6  N   UNL     1       0.971   9.457  21.809  0.00  0.00    +0.000 NA
ATOM      7  N   UNL     1       0.205  10.134  22.685  0.00  0.00    +0.000 N 
ATOM      8  C   UNL     1      -0.474  11.155  22.076  0.00  0.00    +0.000 A 
ATOM      9  C   UNL     1       0.449  11.526  21.124  0.00  0.00    +0.000 A 
ATOM     10  C   UNL     1       0.876  12.958  21.099  0.00  0.00    +0.000 C 
ATOM     11  O   UNL     1       0.482  13.714  22.325  0.00  0.00    +0.000 OA
ATOM     12  C   UNL     1      -0.753  13.398  22.864  0.00  0.00    +0.000 A 
ATOM     13  C   UNL     1      -1.466  14.357  23.575  0.00  0.00    +0.000 A 
ATOM     14  C   UNL     1      -2.780  14.080  23.986  0.00  0.00    +0.000 A 
ATOM     15  C   UNL     1      -3.374  12.846  23.700  0.00  0.00    +0.000 A 
ATOM     16  C   UNL     1      -2.625  11.849  23.083  0.00  0.00    +0.000 A 
ATOM     17  C   UNL     1      -1.305  12.121  22.725  0.00  0.00    +0.000 A 
ATOM     18  H   UNL     1       0.223   9.892  23.671  0.00  0.00    +0.000 HD
ENDBRANCH   2   5
BRANCH   1  19
ATOM     19  C   UNL     1       2.109   7.686  18.183  0.00  0.00    +0.000 C 
BRANCH  19  30
ATOM     20  C   UNL     1       4.748   6.933  17.158  0.00  0.00    +0.000 C 
ATOM     21  N   UNL     1       4.075   6.020  18.056  0.00  0.00    +0.000 N 
ATOM     22  C   UNL     1       4.681   4.770  18.267  0.00  0.00    +0.000 C 
ATOM     23  O   UNL     1       5.892   4.599  18.200  0.00  0.00    +0.000 OA
ATOM     24  C   UNL     1       3.732   3.688  18.422  0.00  0.00    +0.000 A 
ATOM     25  C   UNL     1       3.966   2.330  18.594  0.00  0.00    +0.000 A 
ATOM     26  C   UNL     1       2.719   1.669  18.501  0.00  0.00    +0.000 A 
ATOM     27  C   UNL     1       1.750   2.631  18.305  0.00  0.00    +0.000 A 
ATOM     28  N   UNL     1       2.373   3.851  18.288  0.00  0.00    +0.000 N 
ATOM     29  C   UNL     1       1.748   5.146  18.039  0.00  0.00    +0.000 C 
ATOM     30  C   UNL     1       2.671   6.273  18.526  0.00  0.00    +0.000 C 
ENDBRANCH  19  30
ENDBRANCH   1  19
TORSDOF 3
ENDMDL
MODEL 8
REMARK VINA RESULT:      -7.9      1.720      2.932
REMARK  Name = 
REMARK  4 active torsions:
REMARK  status: ('A' for Active; 'I' for Inactive)
REMARK    1  A    between atoms: C_1  and  N_2
REMARK    2  A    between atoms: C_11  and  C_12
REMARK    3  A    between atoms: C_12  and  N_13
REMARK    4  A    between atoms: C_14  and  C_16
REMARK                            x       y       z     vdW  Elec       q    Type
REMARK                         _______ _______ _______ _____ _____    ______ ____
ROOT
ATOM      1  N   UNL     1       2.868   8.205  17.539  0.00  0.00    +0.000 N 
ATOM      2  C   UNL     1       2.025   8.604  18.566  0.00  0.00    +0.000 C 
ATOM      3  O   UNL     1       2.036   8.110  19.686  0.00  0.00    +0.000 OA
ATOM      4  H   UNL     1       2.703   8.711  16.671  0.00  0.00    +0.000 HD
ENDROOT
BRANCH   2   5
ATOM      5  C   UNL     1       1.216   9.789  18.181  0.00  0.00    +0.000 A 
ATOM      6  N   UNL     1       1.822  11.006  18.207  0.00  0.00    +0.000 NA
ATOM      7  N   UNL     1       0.827  11.818  18.614  0.00  0.00    +0.000 N 
ATOM      8  C   UNL     1      -0.251  11.105  19.065  0.00  0.00    +0.000 A 
ATOM      9  C   UNL     1      -0.187  10.014  18.228  0.00  0.00    +0.000 A 
ATOM     10  C   UNL     1      -1.405   9.686  17.428  0.00  0.00    +0.000 C 
ATOM     11  O   UNL     1      -2.413  10.788  17.407  0.00  0.00    +0.000 OA
ATOM     12  C   UNL     1      -2.563  11.497  18.587  0.00  0.00    +0.000 A 
ATOM     13  C   UNL     1      -3.784  12.090  18.889  0.00  0.00    +0.000 A 
ATOM     14  C   UNL     1      -3.975  12.675  20.152  0.00  0.00    +0.000 A 
ATOM     15  C   UNL     1      -2.948  12.679  21.102  0.00  0.00    +0.000 A 
ATOM     16  C   UNL     1      -1.695  12.180  20.761  0.00  0.00    +0.000 A 
ATOM     17  C   UNL     1      -1.505  11.649  19.487  0.00  0.00    +0.000 A 
ATOM     18  H   UNL     1       0.920  12.824  18.517  0.00  0.00    +0.000 HD
ENDBRANCH   2   5
BRANCH   1  19
ATOM     19  C   UNL     1       3.830   7.114  17.567  0.00  0.00    +0.000 C 
BRANCH  19  30
ATOM     20  C   UNL     1       5.797   4.973  17.933  0.00  0.00    +0.000 C 
ATOM     21  N   UNL     1       4.532   4.867  18.625  0.00  0.00    +0.000 N 
ATOM     22  C   UNL     1       4.283   3.671  19.320  0.00  0.00    +0.000 C 
ATOM     23  O   UNL     1       5.175   2.990  19.809  0.00  0.00    +0.000 OA
ATOM     24  C   UNL     1       2.898   3.254  19.272  0.00  0.00    +0.000 A 
ATOM     25  C   UNL     1       2.303   2.114  19.797  0.00  0.00    +0.000 A 
ATOM     26  C   UNL     1       0.973   2.070  19.320  0.00  0.00    +0.000 A 
ATOM     27  C   UNL     1       0.772   3.192  18.542  0.00  0.00    +0.000 A 
ATOM     28  N   UNL     1       1.935   3.914  18.545  0.00  0.00    +0.000 N 
ATOM     29  C   UNL     1       2.202   5.140  17.799  0.00  0.00    +0.000 C 
ATOM     30  C   UNL     1       3.424   5.856  18.394  0.00  0.00    +0.000 C 
ENDBRANCH  19  30
ENDBRANCH   1  19
TORSDOF 3
ENDMDL
MODEL 9
REMARK VINA RESULT:      -7.8      3.319      4.261
REMARK  Name = 
REMARK  4 active torsions:
REMARK  status: ('A' for Active; 'I' for Inactive)
REMARK    1  A    between atoms: C_1  and  N_2
REMARK    2  A    between atoms: C_11  and  C_12
REMARK    3  A    between atoms: C_12  and  N_13
REMARK    4  A    between atoms: C_14  and  C_16
REMARK                            x       y       z     vdW  Elec       q    Type
REMARK                         _______ _______ _______ _____ _____    ______ ____
ROOT
ATOM      1  N   UNL     1       1.793   8.589  18.692  0.00  0.00    +0.000 N 
ATOM      2  C   UNL     1       1.416   8.596  20.028  0.00  0.00    +0.000 C 
ATOM      3  O   UNL     1       2.025   8.005  20.909  0.00  0.00    +0.000 OA
ATOM      4  H   UNL     1       1.157   9.118  18.098  0.00  0.00    +0.000 HD
ENDROOT
BRANCH   2   5
ATOM      5  C   UNL     1       0.279   9.520  20.271  0.00  0.00    +0.000 A 
ATOM      6  N   UNL     1      -0.317  10.091  19.190  0.00  0.00    +0.000 NA
ATOM      7  N   UNL     1      -0.640  11.316  19.649  0.00  0.00    +0.000 N 
ATOM      8  C   UNL     1      -0.043  11.575  20.854  0.00  0.00    +0.000 A 
ATOM      9  C   UNL     1      -0.051  10.313  21.404  0.00  0.00    +0.000 A 
ATOM     10  C   UNL     1      -0.694  10.148  22.743  0.00  0.00    +0.000 C 
ATOM     11  O   UNL     1      -1.528  11.319  23.147  0.00  0.00    +0.000 OA
ATOM     12  C   UNL     1      -1.038  12.565  22.793  0.00  0.00    +0.000 A 
ATOM     13  C   UNL     1      -1.352  13.679  23.563  0.00  0.00    +0.000 A 
ATOM     14  C   UNL     1      -0.731  14.908  23.289  0.00  0.00    +0.000 A 
ATOM     15  C   UNL     1       0.189  15.027  22.242  0.00  0.00    +0.000 A 
ATOM     16  C   UNL     1       0.422  13.941  21.405  0.00  0.00    +0.000 A 
ATOM     17  C   UNL     1      -0.240  12.741  21.659  0.00  0.00    +0.000 A 
ATOM     18  H   UNL     1      -1.295  11.896  19.134  0.00  0.00    +0.000 HD
ENDBRANCH   2   5
BRANCH   1  19
ATOM     19  C   UNL     1       2.888   7.842  18.093  0.00  0.00    +0.000 C 
BRANCH  19  30
ATOM     20  C   UNL     1       5.462   6.533  17.601  0.00  0.00    +0.000 C 
ATOM     21  N   UNL     1       4.490   5.846  18.423  0.00  0.00    +0.000 N 
ATOM     22  C   UNL     1       4.801   4.534  18.817  0.00  0.00    +0.000 C 
ATOM     23  O   UNL     1       5.951   4.143  18.977  0.00  0.00    +0.000 OA
ATOM     24  C   UNL     1       3.649   3.659  18.872  0.00  0.00    +0.000 A 
ATOM     25  C   UNL     1       3.585   2.304  19.169  0.00  0.00    +0.000 A 
ATOM     26  C   UNL     1       2.265   1.872  18.900  0.00  0.00    +0.000 A 
ATOM     27  C   UNL     1       1.545   2.969  18.474  0.00  0.00    +0.000 A 
ATOM     28  N   UNL     1       2.386   4.050  18.490  0.00  0.00    +0.000 N 
ATOM     29  C   UNL     1       2.072   5.406  18.051  0.00  0.00    +0.000 C 
ATOM     30  C   UNL     1       3.104   6.391  18.621  0.00  0.00    +0.000 C 
ENDBRANCH  19  30
ENDBRANCH   1  19
TORSDOF 3
ENDMDL
