MODEL 1
REMARK VINA RESULT:      -7.4      0.000      0.000
REMARK  Name = 
REMARK  3 active torsions:
REMARK  status: ('A' for Active; 'I' for Inactive)
REMARK    1  A    between atoms: C_9  and  C_10
REMARK    2  A    between atoms: C_10  and  N_11
REMARK    3  A    between atoms: N_17  and  C_18
REMARK                            x       y       z     vdW  Elec       q    Type
REMARK                         _______ _______ _______ _____ _____    ______ ____
ROOT
ATOM      1  O   UNL     1       0.480   6.901  20.968  0.00  0.00    +0.000 OA
ATOM      2  C   UNL     1       1.208   7.223  20.034  0.00  0.00    +0.000 A 
ATOM      3  C   UNL     1       1.326   8.600  19.643  0.00  0.00    +0.000 A 
ATOM      4  C   UNL     1       0.729   9.738  20.246  0.00  0.00    +0.000 A 
ATOM      5  C   UNL     1       0.984  10.879  19.506  0.00  0.00    +0.000 A 
ATOM      6  S   UNL     1       2.057  10.583  18.214  0.00  0.00    +0.000 S 
ATOM      7  C   UNL     1       2.142   8.916  18.591  0.00  0.00    +0.000 A 
ATOM      8  N   UNL     1       2.910   8.049  17.897  0.00  0.00    +0.000 NA
ATOM      9  C   UNL     1       2.843   6.791  18.255  0.00  0.00    +0.000 A 
ATOM     10  N   UNL     1       2.021   6.336  19.296  0.00  0.00    +0.000 N 
ATOM     11  C   UNL     1       0.426  12.233  19.817  0.00  0.00    +0.000 C 
ATOM     12  C   UNL     1      -0.732  12.108  20.827  0.00  0.00    +0.000 C 
ATOM     13  C   UNL     1      -0.370  11.172  21.988  0.00  0.00    +0.000 C 
ATOM     14  C   UNL     1      -0.114   9.747  21.485  0.00  0.00    +0.000 C 
ENDROOT
BRANCH  10  15
ATOM     15  C   UNL     1       2.066   5.014  19.821  0.00  0.00    +0.000 A 
ATOM     16  C   UNL     1       1.300   4.006  19.211  0.00  0.00    +0.000 A 
ATOM     17  C   UNL     1       1.072   2.794  19.863  0.00  0.00    +0.000 A 
ATOM     18  C   UNL     1       1.599   2.585  21.135  0.00  0.00    +0.000 A 
ATOM     19  C   UNL     1       2.362   3.580  21.749  0.00  0.00    +0.000 A 
ATOM     20  C   UNL     1       2.603   4.792  21.094  0.00  0.00    +0.000 A 
ENDBRANCH  10  15
BRANCH   9  21
ATOM     21  C   UNL     1       3.692   5.755  17.449  0.00  0.00    +0.000 C 
BRANCH  21  22
ATOM     22  N   UNL     1       5.087   5.880  17.850  0.00  0.00    +0.000 NA
ATOM     23  C   UNL     1       6.038   6.343  16.840  0.00  0.00    +0.000 C 
ATOM     24  C   UNL     1       7.225   7.011  17.571  0.00  0.00    +0.000 C 
ATOM     25  N   UNL     1       7.898   6.118  18.534  0.00  0.00    +0.000 NA
ATOM     26  C   UNL     1       6.903   5.484  19.426  0.00  0.00    +0.000 C 
ATOM     27  C   UNL     1       5.693   4.852  18.687  0.00  0.00    +0.000 C 
ATOM     28  H   UNL     1       8.525   6.685  19.106  0.00  0.00    +0.000 HD
ENDBRANCH  21  22
ENDBRANCH   9  21
TORSDOF 3
ENDMDL
MODEL 2
REMARK VINA RESULT:      -7.1      1.581      1.814
REMARK  Name = 
REMARK  3 active torsions:
REMARK  status: ('A' for Active; 'I' for Inactive)
REMARK    1  A    between atoms: C_9  and  C_10
REMARK    2  A    between atoms: C_10  and  N_11
REMARK    3  A    between atoms: N_17  and  C_18
REMARK                            x       y       z     vdW  Elec       q    Type
REMARK                         _______ _______ _______ _____ _____    ______ ____
ROOT
ATOM      1  O   UNL     1       1.686   5.927  20.171  0.00  0.00    +0.000 OA
ATOM      2  C   UNL     1       2.136   6.684  19.316  0.00  0.00    +0.000 A 
ATOM      3  C   UNL     1       1.853   8.091  19.365  0.00  0.00    +0.000 A 
ATOM      4  C   UNL     1       1.123   8.805  20.351  0.00  0.00    +0.000 A 
ATOM      5  C   UNL     1       0.963  10.129  19.982  0.00  0.00    +0.000 A 
ATOM      6  S   UNL     1       1.823  10.511  18.561  0.00  0.00    +0.000 S 
ATOM      7  C   UNL     1       2.367   8.899  18.387  0.00  0.00    +0.000 A 
ATOM      8  N   UNL     1       3.180   8.506  17.383  0.00  0.00    +0.000 NA
ATOM      9  C   UNL     1       3.478   7.232  17.334  0.00  0.00    +0.000 A 
ATOM     10  N   UNL     1       2.989   6.298  18.259  0.00  0.00    +0.000 N 
ATOM     11  C   UNL     1       0.166  11.134  20.756  0.00  0.00    +0.000 C 
ATOM     12  C   UNL     1      -0.727  10.418  21.789  0.00  0.00    +0.000 C 
ATOM     13  C   UNL     1       0.050   9.339  22.555  0.00  0.00    +0.000 C 
ATOM     14  C   UNL     1       0.540   8.238  21.609  0.00  0.00    +0.000 C 
ENDROOT
BRANCH  10  15
ATOM     15  C   UNL     1       3.440   4.950  18.337  0.00  0.00    +0.000 A 
ATOM     16  C   UNL     1       2.793   3.964  17.573  0.00  0.00    +0.000 A 
ATOM     17  C   UNL     1       2.989   2.611  17.847  0.00  0.00    +0.000 A 
ATOM     18  C   UNL     1       3.825   2.232  18.894  0.00  0.00    +0.000 A 
ATOM     19  C   UNL     1       4.474   3.205  19.658  0.00  0.00    +0.000 A 
ATOM     20  C   UNL     1       4.288   4.563  19.380  0.00  0.00    +0.000 A 
ENDBRANCH  10  15
BRANCH   9  21
ATOM     21  C   UNL     1       4.387   6.738  16.164  0.00  0.00    +0.000 C 
BRANCH  21  22
ATOM     22  N   UNL     1       5.606   6.169  16.725  0.00  0.00    +0.000 NA
ATOM     23  C   UNL     1       6.560   7.094  17.336  0.00  0.00    +0.000 C 
ATOM     24  C   UNL     1       7.377   6.313  18.389  0.00  0.00    +0.000 C 
ATOM     25  N   UNL     1       8.086   5.144  17.832  0.00  0.00    +0.000 NA
ATOM     26  C   UNL     1       7.156   4.315  17.033  0.00  0.00    +0.000 C 
ATOM     27  C   UNL     1       6.308   5.114  16.007  0.00  0.00    +0.000 C 
ATOM     28  H   UNL     1       8.428   4.580  18.611  0.00  0.00    +0.000 HD
ENDBRANCH  21  22
ENDBRANCH   9  21
TORSDOF 3
ENDMDL
MODEL 3
REMARK VINA RESULT:      -7.0      1.342      1.709
REMARK  Name = 
REMARK  3 active torsions:
REMARK  status: ('A' for Active; 'I' for Inactive)
REMARK    1  A    between atoms: C_9  and  C_10
REMARK    2  A    between atoms: C_10  and  N_11
REMARK    3  A    between atoms: N_17  and  C_18
REMARK                            x       y       z     vdW  Elec       q    Type
REMARK                         _______ _______ _______ _____ _____    ______ ____
ROOT
ATOM      1  O   UNL     1       1.227   5.846  20.844  0.00  0.00    +0.000 OA
ATOM      2  C   UNL     1       1.744   6.434  19.899  0.00  0.00    +0.000 A 
ATOM      3  C   UNL     1       1.629   7.861  19.778  0.00  0.00    +0.000 A 
ATOM      4  C   UNL     1       1.010   8.771  20.674  0.00  0.00    +0.000 A 
ATOM      5  C   UNL     1       0.998  10.050  20.147  0.00  0.00    +0.000 A 
ATOM      6  S   UNL     1       1.867  10.153  18.684  0.00  0.00    +0.000 S 
ATOM      7  C   UNL     1       2.214   8.478  18.705  0.00  0.00    +0.000 A 
ATOM      8  N   UNL     1       2.953   7.872  17.750  0.00  0.00    +0.000 NA
ATOM      9  C   UNL     1       3.098   6.575  17.856  0.00  0.00    +0.000 A 
ATOM     10  N   UNL     1       2.522   5.825  18.892  0.00  0.00    +0.000 N 
ATOM     11  C   UNL     1       0.342  11.229  20.797  0.00  0.00    +0.000 C 
ATOM     12  C   UNL     1      -0.606  10.755  21.916  0.00  0.00    +0.000 C 
ATOM     13  C   UNL     1       0.055   9.691  22.804  0.00  0.00    +0.000 C 
ATOM     14  C   UNL     1       0.391   8.434  21.996  0.00  0.00    +0.000 C 
ENDROOT
BRANCH  10  15
ATOM     15  C   UNL     1       2.813   4.452  19.131  0.00  0.00    +0.000 A 
ATOM     16  C   UNL     1       3.995   4.107  19.809  0.00  0.00    +0.000 A 
ATOM     17  C   UNL     1       4.467   2.795  19.790  0.00  0.00    +0.000 A 
ATOM     18  C   UNL     1       3.768   1.819  19.085  0.00  0.00    +0.000 A 
ATOM     19  C   UNL     1       2.591   2.152  18.410  0.00  0.00    +0.000 A 
ATOM     20  C   UNL     1       2.108   3.464  18.435  0.00  0.00    +0.000 A 
ENDBRANCH  10  15
BRANCH   9  21
ATOM     21  C   UNL     1       3.917   5.838  16.749  0.00  0.00    +0.000 C 
BRANCH  21  22
ATOM     22  N   UNL     1       5.317   5.793  17.153  0.00  0.00    +0.000 NA
ATOM     23  C   UNL     1       6.119   6.995  16.929  0.00  0.00    +0.000 C 
ATOM     24  C   UNL     1       7.275   6.996  17.955  0.00  0.00    +0.000 C 
ATOM     25  N   UNL     1       8.127   5.793  17.880  0.00  0.00    +0.000 NA
ATOM     26  C   UNL     1       7.291   4.572  17.894  0.00  0.00    +0.000 C 
ATOM     27  C   UNL     1       6.106   4.598  16.891  0.00  0.00    +0.000 C 
ATOM     28  H   UNL     1       8.727   5.778  18.705  0.00  0.00    +0.000 HD
ENDBRANCH  21  22
ENDBRANCH   9  21
TORSDOF 3
ENDMDL
MODEL 4
REMARK VINA RESULT:      -7.0      2.126      4.301
REMARK  Name = 
REMARK  3 active torsions:
REMARK  status: ('A' for Active; 'I' for Inactive)
REMARK    1  A    between atoms: C_9  and  C_10
REMARK    2  A    between atoms: C_10  and  N_11
REMARK    3  A    between atoms: N_17  and  C_18
REMARK                            x       y       z     vdW  Elec       q    Type
REMARK                         _______ _______ _______ _____ _____    ______ ____
ROOT
ATOM      1  O   UNL     1       2.718   8.639  17.215  0.00  0.00    +0.000 OA
ATOM      2  C   UNL     1       2.597   8.022  18.269  0.00  0.00    +0.000 A 
ATOM      3  C   UNL     1       1.666   8.464  19.270  0.00  0.00    +0.000 A 
ATOM      4  C   UNL     1       0.759   9.553  19.205  0.00  0.00    +0.000 A 
ATOM      5  C   UNL     1       0.117   9.733  20.417  0.00  0.00    +0.000 A 
ATOM      6  S   UNL     1       0.494   8.503  21.535  0.00  0.00    +0.000 S 
ATOM      7  C   UNL     1       1.567   7.752  20.435  0.00  0.00    +0.000 A 
ATOM      8  N   UNL     1       2.236   6.615  20.727  0.00  0.00    +0.000 NA
ATOM      9  C   UNL     1       3.067   6.175  19.817  0.00  0.00    +0.000 A 
ATOM     10  N   UNL     1       3.281   6.831  18.595  0.00  0.00    +0.000 N 
ATOM     11  C   UNL     1      -0.837  10.849  20.713  0.00  0.00    +0.000 C 
ATOM     12  C   UNL     1      -0.720  11.944  19.635  0.00  0.00    +0.000 C 
ATOM     13  C   UNL     1      -0.697  11.345  18.222  0.00  0.00    +0.000 C 
ATOM     14  C   UNL     1       0.530  10.450  18.026  0.00  0.00    +0.000 C 
ENDROOT
BRANCH  10  15
ATOM     15  C   UNL     1       4.037   6.280  17.522  0.00  0.00    +0.000 A 
ATOM     16  C   UNL     1       3.631   5.063  16.949  0.00  0.00    +0.000 A 
ATOM     17  C   UNL     1       4.495   4.343  16.125  0.00  0.00    +0.000 A 
ATOM     18  C   UNL     1       5.777   4.828  15.877  0.00  0.00    +0.000 A 
ATOM     19  C   UNL     1       6.188   6.037  16.440  0.00  0.00    +0.000 A 
ATOM     20  C   UNL     1       5.321   6.768  17.258  0.00  0.00    +0.000 A 
ENDBRANCH  10  15
BRANCH   9  21
ATOM     21  C   UNL     1       3.884   4.881  20.136  0.00  0.00    +0.000 C 
BRANCH  21  22
ATOM     22  N   UNL     1       3.135   3.725  19.659  0.00  0.00    +0.000 NA
ATOM     23  C   UNL     1       1.807   3.503  20.228  0.00  0.00    +0.000 C 
ATOM     24  C   UNL     1       0.970   2.712  19.197  0.00  0.00    +0.000 C 
ATOM     25  N   UNL     1       1.581   1.425  18.809  0.00  0.00    +0.000 NA
ATOM     26  C   UNL     1       2.998   1.625  18.432  0.00  0.00    +0.000 C 
ATOM     27  C   UNL     1       3.820   2.456  19.453  0.00  0.00    +0.000 C 
ATOM     28  H   UNL     1       1.081   1.070  17.994  0.00  0.00    +0.000 HD
ENDBRANCH  21  22
ENDBRANCH   9  21
TORSDOF 3
ENDMDL
MODEL 5
REMARK VINA RESULT:      -6.7      2.014      4.272
REMARK  Name = 
REMARK  3 active torsions:
REMARK  status: ('A' for Active; 'I' for Inactive)
REMARK    1  A    between atoms: C_9  and  C_10
REMARK    2  A    between atoms: C_10  and  N_11
REMARK    3  A    between atoms: N_17  and  C_18
REMARK                            x       y       z     vdW  Elec       q    Type
REMARK                         _______ _______ _______ _____ _____    ______ ____
ROOT
ATOM      1  O   UNL     1       3.103   8.154  18.136  0.00  0.00    +0.000 OA
ATOM      2  C   UNL     1       2.571   7.653  19.122  0.00  0.00    +0.000 A 
ATOM      3  C   UNL     1       1.522   8.346  19.817  0.00  0.00    +0.000 A 
ATOM      4  C   UNL     1       0.923   9.590  19.486  0.00  0.00    +0.000 A 
ATOM      5  C   UNL     1       0.032   9.984  20.469  0.00  0.00    +0.000 A 
ATOM      6  S   UNL     1      -0.182   8.786  21.663  0.00  0.00    +0.000 S 
ATOM      7  C   UNL     1       0.961   7.756  20.917  0.00  0.00    +0.000 A 
ATOM      8  N   UNL     1       1.264   6.531  21.398  0.00  0.00    +0.000 NA
ATOM      9  C   UNL     1       2.196   5.866  20.763  0.00  0.00    +0.000 A 
ATOM     10  N   UNL     1       2.868   6.375  19.642  0.00  0.00    +0.000 N 
ATOM     11  C   UNL     1      -0.703  11.289  20.472  0.00  0.00    +0.000 C 
ATOM     12  C   UNL     1      -0.066  12.256  19.455  0.00  0.00    +0.000 C 
ATOM     13  C   UNL     1       0.209  11.564  18.113  0.00  0.00    +0.000 C 
ATOM     14  C   UNL     1       1.221  10.426  18.279  0.00  0.00    +0.000 C 
ENDROOT
BRANCH  10  15
ATOM     15  C   UNL     1       3.749   5.606  18.830  0.00  0.00    +0.000 A 
ATOM     16  C   UNL     1       5.108   5.524  19.176  0.00  0.00    +0.000 A 
ATOM     17  C   UNL     1       6.048   5.053  18.260  0.00  0.00    +0.000 A 
ATOM     18  C   UNL     1       5.638   4.671  16.985  0.00  0.00    +0.000 A 
ATOM     19  C   UNL     1       4.289   4.747  16.632  0.00  0.00    +0.000 A 
ATOM     20  C   UNL     1       3.342   5.208  17.552  0.00  0.00    +0.000 A 
ENDBRANCH  10  15
BRANCH   9  21
ATOM     21  C   UNL     1       2.596   4.460  21.315  0.00  0.00    +0.000 C 
BRANCH  21  22
ATOM     22  N   UNL     1       2.358   3.464  20.277  0.00  0.00    +0.000 NA
ATOM     23  C   UNL     1       0.979   3.023  20.073  0.00  0.00    +0.000 C 
ATOM     24  C   UNL     1       0.844   2.536  18.613  0.00  0.00    +0.000 C 
ATOM     25  N   UNL     1       1.783   1.450  18.268  0.00  0.00    +0.000 NA
ATOM     26  C   UNL     1       3.159   1.816  18.671  0.00  0.00    +0.000 C 
ATOM     27  C   UNL     1       3.278   2.345  20.126  0.00  0.00    +0.000 C 
ATOM     28  H   UNL     1       1.769   1.330  17.254  0.00  0.00    +0.000 HD
ENDBRANCH  21  22
ENDBRANCH   9  21
TORSDOF 3
ENDMDL
MODEL 6
REMARK VINA RESULT:      -6.7      0.470      1.023
REMARK  Name = 
REMARK  3 active torsions:
REMARK  status: ('A' for Active; 'I' for Inactive)
REMARK    1  A    between atoms: C_9  and  C_10
REMARK    2  A    between atoms: C_10  and  N_11
REMARK    3  A    between atoms: N_17  and  C_18
REMARK                            x       y       z     vdW  Elec       q    Type
REMARK                         _______ _______ _______ _____ _____    ______ ____
ROOT
ATOM      1  O   UNL     1       0.249   7.316  21.286  0.00  0.00    +0.000 OA
ATOM      2  C   UNL     1       0.989   7.465  20.318  0.00  0.00    +0.000 A 
ATOM      3  C   UNL     1       1.231   8.774  19.779  0.00  0.00    +0.000 A 
ATOM      4  C   UNL     1       0.754  10.022  20.258  0.00  0.00    +0.000 A 
ATOM      5  C   UNL     1       1.104  11.047  19.396  0.00  0.00    +0.000 A 
ATOM      6  S   UNL     1       2.124  10.512  18.139  0.00  0.00    +0.000 S 
ATOM      7  C   UNL     1       2.057   8.895  18.694  0.00  0.00    +0.000 A 
ATOM      8  N   UNL     1       2.728   7.888  18.095  0.00  0.00    +0.000 NA
ATOM      9  C   UNL     1       2.548   6.689  18.588  0.00  0.00    +0.000 A 
ATOM     10  N   UNL     1       1.703   6.430  19.677  0.00  0.00    +0.000 N 
ATOM     11  C   UNL     1       0.682  12.474  19.562  0.00  0.00    +0.000 C 
ATOM     12  C   UNL     1      -0.466  12.570  20.586  0.00  0.00    +0.000 C 
ATOM     13  C   UNL     1      -0.177  11.734  21.839  0.00  0.00    +0.000 C 
ATOM     14  C   UNL     1      -0.065  10.246  21.493  0.00  0.00    +0.000 C 
ENDROOT
BRANCH  10  15
ATOM     15  C   UNL     1       1.631   5.173  20.342  0.00  0.00    +0.000 A 
ATOM     16  C   UNL     1       2.629   4.828  21.270  0.00  0.00    +0.000 A 
ATOM     17  C   UNL     1       2.770   3.511  21.704  0.00  0.00    +0.000 A 
ATOM     18  C   UNL     1       1.923   2.525  21.205  0.00  0.00    +0.000 A 
ATOM     19  C   UNL     1       0.928   2.858  20.284  0.00  0.00    +0.000 A 
ATOM     20  C   UNL     1       0.775   4.180  19.855  0.00  0.00    +0.000 A 
ENDBRANCH  10  15
BRANCH   9  21
ATOM     21  C   UNL     1       3.282   5.496  17.895  0.00  0.00    +0.000 C 
BRANCH  21  22
ATOM     22  N   UNL     1       4.720   5.688  18.031  0.00  0.00    +0.000 NA
ATOM     23  C   UNL     1       5.469   6.033  16.824  0.00  0.00    +0.000 C 
ATOM     24  C   UNL     1       6.739   6.803  17.253  0.00  0.00    +0.000 C 
ATOM     25  N   UNL     1       7.596   6.046  18.186  0.00  0.00    +0.000 NA
ATOM     26  C   UNL     1       6.789   5.515  19.307  0.00  0.00    +0.000 C 
ATOM     27  C   UNL     1       5.493   4.780  18.869  0.00  0.00    +0.000 C 
ATOM     28  H   UNL     1       8.291   6.688  18.570  0.00  0.00    +0.000 HD
ENDBRANCH  21  22
ENDBRANCH   9  21
TORSDOF 3
ENDMDL
MODEL 7
REMARK VINA RESULT:      -6.7      0.840      1.025
REMARK  Name = 
REMARK  3 active torsions:
REMARK  status: ('A' for Active; 'I' for Inactive)
REMARK    1  A    between atoms: C_9  and  C_10
REMARK    2  A    between atoms: C_10  and  N_11
REMARK    3  A    between atoms: N_17  and  C_18
REMARK                            x       y       z     vdW  Elec       q    Type
REMARK                         _______ _______ _______ _____ _____    ______ ____
ROOT
ATOM      1  O   UNL     1       0.674   6.819  21.052  0.00  0.00    +0.000 OA
ATOM      2  C   UNL     1       1.332   6.992  20.031  0.00  0.00    +0.000 A 
ATOM      3  C   UNL     1       1.511   8.312  19.495  0.00  0.00    +0.000 A 
ATOM      4  C   UNL     1       1.057   9.546  20.029  0.00  0.00    +0.000 A 
ATOM      5  C   UNL     1       1.322  10.588  19.158  0.00  0.00    +0.000 A 
ATOM      6  S   UNL     1       2.245  10.087  17.816  0.00  0.00    +0.000 S 
ATOM      7  C   UNL     1       2.246   8.462  18.350  0.00  0.00    +0.000 A 
ATOM      8  N   UNL     1       2.882   7.474  17.683  0.00  0.00    +0.000 NA
ATOM      9  C   UNL     1       2.759   6.265  18.170  0.00  0.00    +0.000 A 
ATOM     10  N   UNL     1       2.008   5.978  19.319  0.00  0.00    +0.000 N 
ATOM     11  C   UNL     1       0.893  12.006  19.378  0.00  0.00    +0.000 C 
ATOM     12  C   UNL     1      -0.170  12.070  20.492  0.00  0.00    +0.000 C 
ATOM     13  C   UNL     1       0.231  11.221  21.705  0.00  0.00    +0.000 C 
ATOM     14  C   UNL     1       0.336   9.739  21.328  0.00  0.00    +0.000 C 
ENDROOT
BRANCH  10  15
ATOM     15  C   UNL     1       2.007   4.711  19.969  0.00  0.00    +0.000 A 
ATOM     16  C   UNL     1       1.110   3.718  19.539  0.00  0.00    +0.000 A 
ATOM     17  C   UNL     1       0.860   2.596  20.328  0.00  0.00    +0.000 A 
ATOM     18  C   UNL     1       1.495   2.464  21.561  0.00  0.00    +0.000 A 
ATOM     19  C   UNL     1       2.388   3.444  21.996  0.00  0.00    +0.000 A 
ATOM     20  C   UNL     1       2.651   4.565  21.203  0.00  0.00    +0.000 A 
ENDBRANCH  10  15
BRANCH   9  21
ATOM     21  C   UNL     1       3.452   5.093  17.403  0.00  0.00    +0.000 C 
BRANCH  21  22
ATOM     22  N   UNL     1       4.813   5.493  17.068  0.00  0.00    +0.000 NA
ATOM     23  C   UNL     1       5.505   4.720  16.038  0.00  0.00    +0.000 C 
ATOM     24  C   UNL     1       6.571   5.633  15.390  0.00  0.00    +0.000 C 
ATOM     25  N   UNL     1       7.543   6.178  16.359  0.00  0.00    +0.000 NA
ATOM     26  C   UNL     1       6.835   6.778  17.511  0.00  0.00    +0.000 C 
ATOM     27  C   UNL     1       5.736   5.870  18.129  0.00  0.00    +0.000 C 
ATOM     28  H   UNL     1       8.075   6.914  15.893  0.00  0.00    +0.000 HD
ENDBRANCH  21  22
ENDBRANCH   9  21
TORSDOF 3
ENDMDL
MODEL 8
REMARK VINA RESULT:      -6.6      5.732      8.435
REMARK  Name = 
REMARK  3 active torsions:
REMARK  status: ('A' for Active; 'I' for Inactive)
REMARK    1  A    between atoms: C_9  and  C_10
REMARK    2  A    between atoms: C_10  and  N_11
REMARK    3  A    between atoms: N_17  and  C_18
REMARK                            x       y       z     vdW  Elec       q    Type
REMARK                         _______ _______ _______ _____ _____    ______ ____
ROOT
ATOM      1  O   UNL     1       1.730  12.365  20.878  0.00  0.00    +0.000 OA
ATOM      2  C   UNL     1       0.713  12.937  20.496  0.00  0.00    +0.000 A 
ATOM      3  C   UNL     1       0.803  14.141  19.718  0.00  0.00    +0.000 A 
ATOM      4  C   UNL     1       1.970  14.793  19.240  0.00  0.00    +0.000 A 
ATOM      5  C   UNL     1       1.649  15.994  18.632  0.00  0.00    +0.000 A 
ATOM      6  S   UNL     1      -0.035  16.223  18.505  0.00  0.00    +0.000 S 
ATOM      7  C   UNL     1      -0.355  14.752  19.319  0.00  0.00    +0.000 A 
ATOM      8  N   UNL     1      -1.607  14.299  19.543  0.00  0.00    +0.000 NA
ATOM      9  C   UNL     1      -1.714  13.186  20.224  0.00  0.00    +0.000 A 
ATOM     10  N   UNL     1      -0.604  12.482  20.715  0.00  0.00    +0.000 N 
ATOM     11  C   UNL     1       2.654  16.969  18.099  0.00  0.00    +0.000 C 
ATOM     12  C   UNL     1       4.057  16.630  18.641  0.00  0.00    +0.000 C 
ATOM     13  C   UNL     1       4.355  15.128  18.537  0.00  0.00    +0.000 C 
ATOM     14  C   UNL     1       3.381  14.314  19.395  0.00  0.00    +0.000 C 
ENDROOT
BRANCH  10  15
ATOM     15  C   UNL     1      -0.683  11.184  21.297  0.00  0.00    +0.000 A 
ATOM     16  C   UNL     1      -0.758  11.061  22.694  0.00  0.00    +0.000 A 
ATOM     17  C   UNL     1      -0.526   9.833  23.313  0.00  0.00    +0.000 A 
ATOM     18  C   UNL     1      -0.205   8.721  22.539  0.00  0.00    +0.000 A 
ATOM     19  C   UNL     1      -0.130   8.833  21.150  0.00  0.00    +0.000 A 
ATOM     20  C   UNL     1      -0.373  10.060  20.525  0.00  0.00    +0.000 A 
ENDBRANCH  10  15
BRANCH   9  21
ATOM     21  C   UNL     1      -3.150  12.652  20.533  0.00  0.00    +0.000 C 
BRANCH  21  22
ATOM     22  N   UNL     1      -3.781  12.256  19.280  0.00  0.00    +0.000 NA
ATOM     23  C   UNL     1      -5.235  12.099  19.281  0.00  0.00    +0.000 C 
ATOM     24  C   UNL     1      -5.742  12.333  17.841  0.00  0.00    +0.000 C 
ATOM     25  N   UNL     1      -5.132  11.425  16.849  0.00  0.00    +0.000 NA
ATOM     26  C   UNL     1      -3.659  11.428  16.992  0.00  0.00    +0.000 C 
ATOM     27  C   UNL     1      -3.159  11.234  18.449  0.00  0.00    +0.000 C 
ATOM     28  H   UNL     1      -5.363  11.773  15.917  0.00  0.00    +0.000 HD
ENDBRANCH  21  22
ENDBRANCH   9  21
TORSDOF 3
ENDMDL
MODEL 9
REMARK VINA RESULT:      -6.4      4.908      9.807
REMARK  Name = 
REMARK  3 active torsions:
REMARK  status: ('A' for Active; 'I' for Inactive)
REMARK    1  A    between atoms: C_9  and  C_10
REMARK    2  A    between atoms: C_10  and  N_11
REMARK    3  A    between atoms: N_17  and  C_18
REMARK                            x       y       z     vdW  Elec       q    Type
REMARK                         _______ _______ _______ _____ _____    ______ ____
ROOT
ATOM      1  O   UNL     1      -0.210  11.273  22.651  0.00  0.00    +0.000 OA
ATOM      2  C   UNL     1      -0.902  11.611  21.696  0.00  0.00    +0.000 A 
ATOM      3  C   UNL     1      -0.714  11.004  20.408  0.00  0.00    +0.000 A 
ATOM      4  C   UNL     1       0.177   9.958  20.052  0.00  0.00    +0.000 A 
ATOM      5  C   UNL     1       0.152   9.733  18.687  0.00  0.00    +0.000 A 
ATOM      6  S   UNL     1      -1.046  10.658  17.903  0.00  0.00    +0.000 S 
ATOM      7  C   UNL     1      -1.501  11.416  19.366  0.00  0.00    +0.000 A 
ATOM      8  N   UNL     1      -2.500  12.322  19.440  0.00  0.00    +0.000 NA
ATOM      9  C   UNL     1      -2.711  12.867  20.611  0.00  0.00    +0.000 A 
ATOM     10  N   UNL     1      -1.953  12.553  21.748  0.00  0.00    +0.000 N 
ATOM     11  C   UNL     1       1.038   8.759  17.973  0.00  0.00    +0.000 C 
ATOM     12  C   UNL     1       2.199   8.329  18.892  0.00  0.00    +0.000 C 
ATOM     13  C   UNL     1       1.704   7.983  20.303  0.00  0.00    +0.000 C 
ATOM     14  C   UNL     1       1.081   9.207  20.981  0.00  0.00    +0.000 C 
ENDROOT
BRANCH  10  15
ATOM     15  C   UNL     1      -2.277  12.991  23.063  0.00  0.00    +0.000 A 
ATOM     16  C   UNL     1      -3.390  12.437  23.718  0.00  0.00    +0.000 A 
ATOM     17  C   UNL     1      -3.920  13.046  24.855  0.00  0.00    +0.000 A 
ATOM     18  C   UNL     1      -3.349  14.219  25.340  0.00  0.00    +0.000 A 
ATOM     19  C   UNL     1      -2.242  14.776  24.698  0.00  0.00    +0.000 A 
ATOM     20  C   UNL     1      -1.700  14.164  23.564  0.00  0.00    +0.000 A 
ENDBRANCH  10  15
BRANCH   9  21
ATOM     21  C   UNL     1      -3.836  13.947  20.724  0.00  0.00    +0.000 C 
BRANCH  21  22
ATOM     22  N   UNL     1      -5.075  13.388  20.198  0.00  0.00    +0.000 NA
ATOM     23  C   UNL     1      -6.033  14.319  19.604  0.00  0.00    +0.000 C 
ATOM     24  C   UNL     1      -6.886  13.539  18.578  0.00  0.00    +0.000 C 
ATOM     25  N   UNL     1      -7.595  12.384  19.163  0.00  0.00    +0.000 NA
ATOM     26  C   UNL     1      -6.655  11.550  19.945  0.00  0.00    +0.000 C 
ATOM     27  C   UNL     1      -5.772  12.348  20.943  0.00  0.00    +0.000 C 
ATOM     28  H   UNL     1      -7.962  11.817  18.398  0.00  0.00    +0.000 HD
ENDBRANCH  21  22
ENDBRANCH   9  21
TORSDOF 3
ENDMDL
