MODEL 1
REMARK VINA RESULT:      -9.1      0.000      0.000
REMARK  Name = 
REMARK  4 active torsions:
REMARK  status: ('A' for Active; 'I' for Inactive)
REMARK    1  A    between atoms: N_1  and  C_2
REMARK    2  A    between atoms: C_5  and  C_6
REMARK    3  A    between atoms: C_20  and  N_21
REMARK    4  A    between atoms: N_21  and  C_22
REMARK                            x       y       z     vdW  Elec       q    Type
REMARK                         _______ _______ _______ _____ _____    ______ ____
ROOT
ATOM      1  C   UNL     1      -0.930  11.548  18.577  0.00  0.00    +0.000 A 
ATOM      2  S   UNL     1       0.032  10.218  18.071  0.00  0.00    +0.000 S 
ATOM      3  C   UNL     1       0.495   9.656  19.684  0.00  0.00    +0.000 A 
ATOM      4  C   UNL     1       1.403   8.442  20.124  0.00  0.00    +0.000 A 
ATOM      5  C   UNL     1       1.448   8.456  21.567  0.00  0.00    +0.000 A 
ATOM      6  C   UNL     1       0.745   9.358  22.425  0.00  0.00    +0.000 A 
ATOM      7  C   UNL     1      -0.069  10.369  21.947  0.00  0.00    +0.000 A 
ATOM      8  C   UNL     1      -0.172  10.594  20.570  0.00  0.00    +0.000 A 
ATOM      9  C   UNL     1      -0.946  11.696  19.948  0.00  0.00    +0.000 A 
ENDROOT
BRANCH   4  10
ATOM     10  C   UNL     1       2.438   7.366  19.206  0.00  0.00    +0.000 A 
ATOM     11  C   UNL     1       1.845   6.372  19.975  0.00  0.00    +0.000 A 
ATOM     12  N   UNL     1       2.196   5.197  20.544  0.00  0.00    +0.000 NA
ATOM     13  C   UNL     1       2.734   4.385  19.693  0.00  0.00    +0.000 A 
ATOM     14  C   UNL     1       3.328   4.869  18.592  0.00  0.00    +0.000 A 
ATOM     15  C   UNL     1       3.916   3.793  17.867  0.00  0.00    +0.000 A 
ATOM     16  C   UNL     1       4.859   3.996  16.902  0.00  0.00    +0.000 A 
ATOM     17  C   UNL     1       5.131   5.322  16.631  0.00  0.00    +0.000 A 
ATOM     18  C   UNL     1       4.401   6.435  17.305  0.00  0.00    +0.000 A 
ATOM     19  C   UNL     1       3.367   6.337  18.409  0.00  0.00    +0.000 A 
ENDBRANCH   4  10
BRANCH   1  20
ATOM     20  N   UNL     1      -1.582  12.332  17.674  0.00  0.00    +0.000 N 
ATOM     21  H   UNL     1      -1.120  12.554  16.796  0.00  0.00    +0.000 HD
ATOM     22  H   UNL     1      -2.240  13.044  17.975  0.00  0.00    +0.000 HD
ENDBRANCH   1  20
BRANCH   9  23
ATOM     23  N   UNL     1      -1.728  12.692  20.559  0.00  0.00    +0.000 N 
ATOM     24  H   UNL     1      -1.281  13.606  20.634  0.00  0.00    +0.000 HD
BRANCH  23  25
ATOM     25  C   UNL     1      -3.010  12.747  21.194  0.00  0.00    +0.000 A 
ATOM     26  C   UNL     1      -4.172  13.161  20.531  0.00  0.00    +0.000 A 
ATOM     27  C   UNL     1      -5.378  13.386  21.223  0.00  0.00    +0.000 A 
ATOM     28  C   UNL     1      -5.441  13.200  22.598  0.00  0.00    +0.000 A 
ATOM     29  F   UNL     1      -6.574  13.512  23.248  0.00  0.00    +0.000 F 
ATOM     30  C   UNL     1      -4.334  12.708  23.276  0.00  0.00    +0.000 A 
ATOM     31 CL   UNL     1      -4.416  12.444  24.981  0.00  0.00    +0.000 Cl
ATOM     32  C   UNL     1      -3.135  12.458  22.577  0.00  0.00    +0.000 A 
ENDBRANCH  23  25
ENDBRANCH   9  23
TORSDOF 4
ENDMDL
MODEL 2
REMARK VINA RESULT:      -9.1      0.983      1.330
REMARK  Name = 
REMARK  4 active torsions:
REMARK  status: ('A' for Active; 'I' for Inactive)
REMARK    1  A    between atoms: N_1  and  C_2
REMARK    2  A    between atoms: C_5  and  C_6
REMARK    3  A    between atoms: C_20  and  N_21
REMARK    4  A    between atoms: N_21  and  C_22
REMARK                            x       y       z     vdW  Elec       q    Type
REMARK                         _______ _______ _______ _____ _____    ______ ____
ROOT
ATOM      1  C   UNL     1      -1.245  11.628  18.834  0.00  0.00    +0.000 A 
ATOM      2  S   UNL     1      -0.296  10.289  18.329  0.00  0.00    +0.000 S 
ATOM      3  C   UNL     1       0.258   9.795  19.936  0.00  0.00    +0.000 A 
ATOM      4  C   UNL     1       1.201   8.608  20.373  0.00  0.00    +0.000 A 
ATOM      5  C   UNL     1       1.322   8.679  21.811  0.00  0.00    +0.000 A 
ATOM      6  C   UNL     1       0.655   9.607  22.670  0.00  0.00    +0.000 A 
ATOM      7  C   UNL     1      -0.195  10.590  22.196  0.00  0.00    +0.000 A 
ATOM      8  C   UNL     1      -0.373  10.761  20.820  0.00  0.00    +0.000 A 
ATOM      9  C   UNL     1      -1.191  11.830  20.197  0.00  0.00    +0.000 A 
ENDROOT
BRANCH   4  10
ATOM     10  C   UNL     1       2.199   7.506  19.445  0.00  0.00    +0.000 A 
ATOM     11  C   UNL     1       1.582   6.526  20.212  0.00  0.00    +0.000 A 
ATOM     12  N   UNL     1       1.902   5.339  20.774  0.00  0.00    +0.000 NA
ATOM     13  C   UNL     1       2.411   4.516  19.915  0.00  0.00    +0.000 A 
ATOM     14  C   UNL     1       3.012   4.987  18.813  0.00  0.00    +0.000 A 
ATOM     15  C   UNL     1       3.564   3.899  18.079  0.00  0.00    +0.000 A 
ATOM     16  C   UNL     1       4.507   4.079  17.109  0.00  0.00    +0.000 A 
ATOM     17  C   UNL     1       4.816   5.397  16.843  0.00  0.00    +0.000 A 
ATOM     18  C   UNL     1       4.123   6.528  17.527  0.00  0.00    +0.000 A 
ATOM     19  C   UNL     1       3.093   6.455  18.636  0.00  0.00    +0.000 A 
ENDBRANCH   4  10
BRANCH   1  20
ATOM     20  N   UNL     1      -1.952  12.371  17.937  0.00  0.00    +0.000 N 
ATOM     21  H   UNL     1      -2.843  12.768  18.224  0.00  0.00    +0.000 HD
ATOM     22  H   UNL     1      -1.897  12.184  16.940  0.00  0.00    +0.000 HD
ENDBRANCH   1  20
BRANCH   9  23
ATOM     23  N   UNL     1      -1.951  12.841  20.810  0.00  0.00    +0.000 N 
ATOM     24  H   UNL     1      -1.673  13.794  20.572  0.00  0.00    +0.000 HD
BRANCH  23  25
ATOM     25  C   UNL     1      -3.008  12.892  21.774  0.00  0.00    +0.000 A 
ATOM     26  C   UNL     1      -2.794  12.740  23.149  0.00  0.00    +0.000 A 
ATOM     27  C   UNL     1      -3.865  12.606  24.054  0.00  0.00    +0.000 A 
ATOM     28  C   UNL     1      -5.175  12.621  23.595  0.00  0.00    +0.000 A 
ATOM     29  F   UNL     1      -6.175  12.397  24.464  0.00  0.00    +0.000 F 
ATOM     30  C   UNL     1      -5.430  12.855  22.251  0.00  0.00    +0.000 A 
ATOM     31 CL   UNL     1      -7.058  12.907  21.678  0.00  0.00    +0.000 Cl
ATOM     32  C   UNL     1      -4.356  13.016  21.350  0.00  0.00    +0.000 A 
ENDBRANCH  23  25
ENDBRANCH   9  23
TORSDOF 4
ENDMDL
MODEL 3
REMARK VINA RESULT:      -9.1      3.980      9.551
REMARK  Name = 
REMARK  4 active torsions:
REMARK  status: ('A' for Active; 'I' for Inactive)
REMARK    1  A    between atoms: N_1  and  C_2
REMARK    2  A    between atoms: C_5  and  C_6
REMARK    3  A    between atoms: C_20  and  N_21
REMARK    4  A    between atoms: N_21  and  C_22
REMARK                            x       y       z     vdW  Elec       q    Type
REMARK                         _______ _______ _______ _____ _____    ______ ____
ROOT
ATOM      1  C   UNL     1       1.294   9.594  18.722  0.00  0.00    +0.000 A 
ATOM      2  S   UNL     1       0.295  10.940  19.093  0.00  0.00    +0.000 S 
ATOM      3  C   UNL     1       0.020  10.547  20.797  0.00  0.00    +0.000 A 
ATOM      4  C   UNL     1      -0.821  11.300  21.898  0.00  0.00    +0.000 A 
ATOM      5  C   UNL     1      -0.705  10.528  23.113  0.00  0.00    +0.000 A 
ATOM      6  C   UNL     1       0.081   9.347  23.291  0.00  0.00    +0.000 A 
ATOM      7  C   UNL     1       0.827   8.782  22.273  0.00  0.00    +0.000 A 
ATOM      8  C   UNL     1       0.774   9.318  20.983  0.00  0.00    +0.000 A 
ATOM      9  C   UNL     1       1.463   8.749  19.799  0.00  0.00    +0.000 A 
ENDROOT
BRANCH   4  10
ATOM     10  C   UNL     1      -1.943  12.643  21.796  0.00  0.00    +0.000 A 
ATOM     11  C   UNL     1      -0.980  13.318  22.535  0.00  0.00    +0.000 A 
ATOM     12  N   UNL     1      -0.934  14.254  23.510  0.00  0.00    +0.000 NA
ATOM     13  C   UNL     1      -1.612  15.313  23.200  0.00  0.00    +0.000 A 
ATOM     14  C   UNL     1      -2.616  15.228  22.317  0.00  0.00    +0.000 A 
ATOM     15  C   UNL     1      -3.257  16.496  22.213  0.00  0.00    +0.000 A 
ATOM     16  C   UNL     1      -4.497  16.642  21.663  0.00  0.00    +0.000 A 
ATOM     17  C   UNL     1      -5.037  15.483  21.142  0.00  0.00    +0.000 A 
ATOM     18  C   UNL     1      -4.289  14.192  21.137  0.00  0.00    +0.000 A 
ATOM     19  C   UNL     1      -2.932  13.899  21.744  0.00  0.00    +0.000 A 
ENDBRANCH   4  10
BRANCH   1  20
ATOM     20  N   UNL     1       1.834   9.435  17.481  0.00  0.00    +0.000 N 
ATOM     21  H   UNL     1       1.447   8.724  16.867  0.00  0.00    +0.000 HD
ATOM     22  H   UNL     1       2.815   9.629  17.306  0.00  0.00    +0.000 HD
ENDBRANCH   1  20
BRANCH   9  23
ATOM     23  N   UNL     1       2.299   7.622  19.711  0.00  0.00    +0.000 N 
ATOM     24  H   UNL     1       3.294   7.812  19.836  0.00  0.00    +0.000 HD
BRANCH  23  25
ATOM     25  C   UNL     1       2.125   6.234  19.409  0.00  0.00    +0.000 A 
ATOM     26  C   UNL     1       2.066   5.740  18.100  0.00  0.00    +0.000 A 
ATOM     27  C   UNL     1       1.709   4.405  17.829  0.00  0.00    +0.000 A 
ATOM     28  C   UNL     1       1.400   3.538  18.868  0.00  0.00    +0.000 A 
ATOM     29  F   UNL     1       0.970   2.298  18.580  0.00  0.00    +0.000 F 
ATOM     30  C   UNL     1       1.530   3.967  20.182  0.00  0.00    +0.000 A 
ATOM     31 CL   UNL     1       1.179   2.884  21.481  0.00  0.00    +0.000 Cl
ATOM     32  C   UNL     1       1.915   5.296  20.453  0.00  0.00    +0.000 A 
ENDBRANCH  23  25
ENDBRANCH   9  23
TORSDOF 4
ENDMDL
MODEL 4
REMARK VINA RESULT:      -8.9      2.126      3.099
REMARK  Name = 
REMARK  4 active torsions:
REMARK  status: ('A' for Active; 'I' for Inactive)
REMARK    1  A    between atoms: N_1  and  C_2
REMARK    2  A    between atoms: C_5  and  C_6
REMARK    3  A    between atoms: C_20  and  N_21
REMARK    4  A    between atoms: N_21  and  C_22
REMARK                            x       y       z     vdW  Elec       q    Type
REMARK                         _______ _______ _______ _____ _____    ______ ____
ROOT
ATOM      1  C   UNL     1       0.108   9.549  22.194  0.00  0.00    +0.000 A 
ATOM      2  S   UNL     1       0.730   8.053  21.625  0.00  0.00    +0.000 S 
ATOM      3  C   UNL     1       1.286   8.633  20.047  0.00  0.00    +0.000 A 
ATOM      4  C   UNL     1       1.996   7.864  18.867  0.00  0.00    +0.000 A 
ATOM      5  C   UNL     1       2.215   8.827  17.813  0.00  0.00    +0.000 A 
ATOM      6  C   UNL     1       1.906  10.222  17.867  0.00  0.00    +0.000 A 
ATOM      7  C   UNL     1       1.322  10.819  18.969  0.00  0.00    +0.000 A 
ATOM      8  C   UNL     1       0.933  10.042  20.065  0.00  0.00    +0.000 A 
ATOM      9  C   UNL     1       0.226  10.559  21.262  0.00  0.00    +0.000 A 
ENDROOT
BRANCH   4  10
ATOM     10  C   UNL     1       2.292   6.157  18.595  0.00  0.00    +0.000 A 
ATOM     11  C   UNL     1       3.481   6.402  19.270  0.00  0.00    +0.000 A 
ATOM     12  N   UNL     1       4.766   5.984  19.227  0.00  0.00    +0.000 NA
ATOM     13  C   UNL     1       4.860   4.694  19.283  0.00  0.00    +0.000 A 
ATOM     14  C   UNL     1       3.831   3.933  18.886  0.00  0.00    +0.000 A 
ATOM     15  C   UNL     1       4.209   2.561  18.958  0.00  0.00    +0.000 A 
ATOM     16  C   UNL     1       3.512   1.580  18.315  0.00  0.00    +0.000 A 
ATOM     17  C   UNL     1       2.373   2.011  17.666  0.00  0.00    +0.000 A 
ATOM     18  C   UNL     1       1.920   3.431  17.721  0.00  0.00    +0.000 A 
ATOM     19  C   UNL     1       2.620   4.609  18.367  0.00  0.00    +0.000 A 
ENDBRANCH   4  10
BRANCH   1  20
ATOM     20  N   UNL     1      -0.429   9.662  23.441  0.00  0.00    +0.000 N 
ATOM     21  H   UNL     1       0.058   9.236  24.224  0.00  0.00    +0.000 HD
ATOM     22  H   UNL     1      -1.434   9.726  23.577  0.00  0.00    +0.000 HD
ENDBRANCH   1  20
BRANCH   9  23
ATOM     23  N   UNL     1      -0.171  11.873  21.565  0.00  0.00    +0.000 N 
ATOM     24  H   UNL     1       0.590  12.509  21.804  0.00  0.00    +0.000 HD
BRANCH  23  25
ATOM     25  C   UNL     1      -1.416  12.566  21.701  0.00  0.00    +0.000 A 
ATOM     26  C   UNL     1      -1.765  13.288  22.849  0.00  0.00    +0.000 A 
ATOM     27  C   UNL     1      -3.063  13.801  23.034  0.00  0.00    +0.000 A 
ATOM     28  C   UNL     1      -4.041  13.596  22.069  0.00  0.00    +0.000 A 
ATOM     29  F   UNL     1      -5.295  14.011  22.311  0.00  0.00    +0.000 F 
ATOM     30  C   UNL     1      -3.710  12.959  20.881  0.00  0.00    +0.000 A 
ATOM     31 CL   UNL     1      -4.913  12.729  19.663  0.00  0.00    +0.000 Cl
ATOM     32  C   UNL     1      -2.402  12.470  20.686  0.00  0.00    +0.000 A 
ENDBRANCH  23  25
ENDBRANCH   9  23
TORSDOF 4
ENDMDL
MODEL 5
REMARK VINA RESULT:      -8.8      1.953      2.898
REMARK  Name = 
REMARK  4 active torsions:
REMARK  status: ('A' for Active; 'I' for Inactive)
REMARK    1  A    between atoms: N_1  and  C_2
REMARK    2  A    between atoms: C_5  and  C_6
REMARK    3  A    between atoms: C_20  and  N_21
REMARK    4  A    between atoms: N_21  and  C_22
REMARK                            x       y       z     vdW  Elec       q    Type
REMARK                         _______ _______ _______ _____ _____    ______ ____
ROOT
ATOM      1  C   UNL     1       0.107   9.616  22.379  0.00  0.00    +0.000 A 
ATOM      2  S   UNL     1       0.763   8.212  21.641  0.00  0.00    +0.000 S 
ATOM      3  C   UNL     1       1.177   8.953  20.088  0.00  0.00    +0.000 A 
ATOM      4  C   UNL     1       1.841   8.328  18.801  0.00  0.00    +0.000 A 
ATOM      5  C   UNL     1       1.938   9.388  17.824  0.00  0.00    +0.000 A 
ATOM      6  C   UNL     1       1.563  10.754  18.021  0.00  0.00    +0.000 A 
ATOM      7  C   UNL     1       1.027  11.222  19.207  0.00  0.00    +0.000 A 
ATOM      8  C   UNL     1       0.756  10.334  20.253  0.00  0.00    +0.000 A 
ATOM      9  C   UNL     1       0.108  10.707  21.534  0.00  0.00    +0.000 A 
ENDROOT
BRANCH   4  10
ATOM     10  C   UNL     1       2.204   6.671  18.360  0.00  0.00    +0.000 A 
ATOM     11  C   UNL     1       3.466   7.174  18.069  0.00  0.00    +0.000 A 
ATOM     12  N   UNL     1       4.449   6.962  17.165  0.00  0.00    +0.000 NA
ATOM     13  C   UNL     1       4.801   5.718  17.113  0.00  0.00    +0.000 A 
ATOM     14  C   UNL     1       3.939   4.764  17.491  0.00  0.00    +0.000 A 
ATOM     15  C   UNL     1       4.524   3.486  17.259  0.00  0.00    +0.000 A 
ATOM     16  C   UNL     1       3.783   2.341  17.226  0.00  0.00    +0.000 A 
ATOM     17  C   UNL     1       2.445   2.512  17.519  0.00  0.00    +0.000 A 
ATOM     18  C   UNL     1       1.879   3.839  17.897  0.00  0.00    +0.000 A 
ATOM     19  C   UNL     1       2.588   5.178  17.934  0.00  0.00    +0.000 A 
ENDBRANCH   4  10
BRANCH   1  20
ATOM     20  N   UNL     1      -0.348   9.593  23.663  0.00  0.00    +0.000 N 
ATOM     21  H   UNL     1      -0.263   8.732  24.196  0.00  0.00    +0.000 HD
ATOM     22  H   UNL     1      -1.128  10.173  23.955  0.00  0.00    +0.000 HD
ENDBRANCH   1  20
BRANCH   9  23
ATOM     23  N   UNL     1      -0.332  11.966  21.977  0.00  0.00    +0.000 N 
ATOM     24  H   UNL     1       0.406  12.592  22.300  0.00  0.00    +0.000 HD
BRANCH  23  25
ATOM     25  C   UNL     1      -1.600  12.602  22.170  0.00  0.00    +0.000 A 
ATOM     26  C   UNL     1      -1.994  13.746  21.464  0.00  0.00    +0.000 A 
ATOM     27  C   UNL     1      -3.161  14.459  21.804  0.00  0.00    +0.000 A 
ATOM     28  C   UNL     1      -3.956  14.037  22.862  0.00  0.00    +0.000 A 
ATOM     29  F   UNL     1      -5.010  14.786  23.226  0.00  0.00    +0.000 F 
ATOM     30  C   UNL     1      -3.644  12.861  23.529  0.00  0.00    +0.000 A 
ATOM     31 CL   UNL     1      -4.646  12.314  24.824  0.00  0.00    +0.000 Cl
ATOM     32  C   UNL     1      -2.490  12.133  23.170  0.00  0.00    +0.000 A 
ENDBRANCH  23  25
ENDBRANCH   9  23
TORSDOF 4
ENDMDL
MODEL 6
REMARK VINA RESULT:      -8.8      1.987      2.913
REMARK  Name = 
REMARK  4 active torsions:
REMARK  status: ('A' for Active; 'I' for Inactive)
REMARK    1  A    between atoms: N_1  and  C_2
REMARK    2  A    between atoms: C_5  and  C_6
REMARK    3  A    between atoms: C_20  and  N_21
REMARK    4  A    between atoms: N_21  and  C_22
REMARK                            x       y       z     vdW  Elec       q    Type
REMARK                         _______ _______ _______ _____ _____    ______ ____
ROOT
ATOM      1  C   UNL     1       0.109   9.495  22.199  0.00  0.00    +0.000 A 
ATOM      2  S   UNL     1       0.736   8.002  21.626  0.00  0.00    +0.000 S 
ATOM      3  C   UNL     1       1.290   8.587  20.050  0.00  0.00    +0.000 A 
ATOM      4  C   UNL     1       2.002   7.824  18.868  0.00  0.00    +0.000 A 
ATOM      5  C   UNL     1       2.218   8.791  17.816  0.00  0.00    +0.000 A 
ATOM      6  C   UNL     1       1.904  10.184  17.874  0.00  0.00    +0.000 A 
ATOM      7  C   UNL     1       1.318  10.777  18.978  0.00  0.00    +0.000 A 
ATOM      8  C   UNL     1       0.933   9.996  20.072  0.00  0.00    +0.000 A 
ATOM      9  C   UNL     1       0.224  10.507  21.270  0.00  0.00    +0.000 A 
ENDROOT
BRANCH   4  10
ATOM     10  C   UNL     1       2.304   6.119  18.591  0.00  0.00    +0.000 A 
ATOM     11  C   UNL     1       3.488   6.364  19.276  0.00  0.00    +0.000 A 
ATOM     12  N   UNL     1       4.774   5.949  19.241  0.00  0.00    +0.000 NA
ATOM     13  C   UNL     1       4.870   4.659  19.292  0.00  0.00    +0.000 A 
ATOM     14  C   UNL     1       3.845   3.897  18.885  0.00  0.00    +0.000 A 
ATOM     15  C   UNL     1       4.226   2.526  18.954  0.00  0.00    +0.000 A 
ATOM     16  C   UNL     1       3.536   1.545  18.302  0.00  0.00    +0.000 A 
ATOM     17  C   UNL     1       2.401   1.977  17.647  0.00  0.00    +0.000 A 
ATOM     18  C   UNL     1       1.944   3.396  17.703  0.00  0.00    +0.000 A 
ATOM     19  C   UNL     1       2.637   4.573  18.359  0.00  0.00    +0.000 A 
ENDBRANCH   4  10
BRANCH   1  20
ATOM     20  N   UNL     1      -0.428   9.603  23.447  0.00  0.00    +0.000 N 
ATOM     21  H   UNL     1      -0.847  10.486  23.724  0.00  0.00    +0.000 HD
ATOM     22  H   UNL     1      -0.056   9.070  24.227  0.00  0.00    +0.000 HD
ENDBRANCH   1  20
BRANCH   9  23
ATOM     23  N   UNL     1      -0.177  11.819  21.576  0.00  0.00    +0.000 N 
ATOM     24  H   UNL     1       0.586  12.485  21.701  0.00  0.00    +0.000 HD
BRANCH  23  25
ATOM     25  C   UNL     1      -1.420  12.480  21.840  0.00  0.00    +0.000 A 
ATOM     26  C   UNL     1      -2.378  12.725  20.849  0.00  0.00    +0.000 A 
ATOM     27  C   UNL     1      -3.502  13.537  21.093  0.00  0.00    +0.000 A 
ATOM     28  C   UNL     1      -3.686  14.123  22.338  0.00  0.00    +0.000 A 
ATOM     29  F   UNL     1      -4.714  14.969  22.518  0.00  0.00    +0.000 F 
ATOM     30  C   UNL     1      -2.804  13.834  23.370  0.00  0.00    +0.000 A 
ATOM     31 CL   UNL     1      -3.044  14.533  24.930  0.00  0.00    +0.000 Cl
ATOM     32  C   UNL     1      -1.693  12.998  23.132  0.00  0.00    +0.000 A 
ENDBRANCH  23  25
ENDBRANCH   9  23
TORSDOF 4
ENDMDL
MODEL 7
REMARK VINA RESULT:      -8.8      2.044      3.018
REMARK  Name = 
REMARK  4 active torsions:
REMARK  status: ('A' for Active; 'I' for Inactive)
REMARK    1  A    between atoms: N_1  and  C_2
REMARK    2  A    between atoms: C_5  and  C_6
REMARK    3  A    between atoms: C_20  and  N_21
REMARK    4  A    between atoms: N_21  and  C_22
REMARK                            x       y       z     vdW  Elec       q    Type
REMARK                         _______ _______ _______ _____ _____    ______ ____
ROOT
ATOM      1  C   UNL     1      -0.120   9.877  22.215  0.00  0.00    +0.000 A 
ATOM      2  S   UNL     1       0.509   8.422  21.556  0.00  0.00    +0.000 S 
ATOM      3  C   UNL     1       1.105   9.109  20.037  0.00  0.00    +0.000 A 
ATOM      4  C   UNL     1       1.840   8.421  18.822  0.00  0.00    +0.000 A 
ATOM      5  C   UNL     1       2.088   9.456  17.845  0.00  0.00    +0.000 A 
ATOM      6  C   UNL     1       1.784  10.845  17.991  0.00  0.00    +0.000 A 
ATOM      7  C   UNL     1       1.177  11.366  19.119  0.00  0.00    +0.000 A 
ATOM      8  C   UNL     1       0.759  10.516  20.147  0.00  0.00    +0.000 A 
ATOM      9  C   UNL     1       0.025  10.950  21.361  0.00  0.00    +0.000 A 
ENDROOT
BRANCH   4  10
ATOM     10  C   UNL     1       2.134   6.737  18.436  0.00  0.00    +0.000 A 
ATOM     11  C   UNL     1       3.425   7.173  18.164  0.00  0.00    +0.000 A 
ATOM     12  N   UNL     1       4.419   6.890  17.292  0.00  0.00    +0.000 NA
ATOM     13  C   UNL     1       4.714   5.630  17.282  0.00  0.00    +0.000 A 
ATOM     14  C   UNL     1       3.799   4.728  17.664  0.00  0.00    +0.000 A 
ATOM     15  C   UNL     1       4.329   3.418  17.481  0.00  0.00    +0.000 A 
ATOM     16  C   UNL     1       3.535   2.309  17.460  0.00  0.00    +0.000 A 
ATOM     17  C   UNL     1       2.200   2.549  17.713  0.00  0.00    +0.000 A 
ATOM     18  C   UNL     1       1.688   3.912  18.040  0.00  0.00    +0.000 A 
ATOM     19  C   UNL     1       2.459   5.217  18.060  0.00  0.00    +0.000 A 
ENDBRANCH   4  10
BRANCH   1  20
ATOM     20  N   UNL     1      -0.686   9.905  23.454  0.00  0.00    +0.000 N 
ATOM     21  H   UNL     1      -0.119   9.647  24.257  0.00  0.00    +0.000 HD
ATOM     22  H   UNL     1      -1.676   9.720  23.583  0.00  0.00    +0.000 HD
ENDBRANCH   1  20
BRANCH   9  23
ATOM     23  N   UNL     1      -0.373  12.242  21.747  0.00  0.00    +0.000 N 
ATOM     24  H   UNL     1       0.364  12.947  21.716  0.00  0.00    +0.000 HD
BRANCH  23  25
ATOM     25  C   UNL     1      -1.568  12.839  22.261  0.00  0.00    +0.000 A 
ATOM     26  C   UNL     1      -1.592  13.613  23.428  0.00  0.00    +0.000 A 
ATOM     27  C   UNL     1      -2.803  14.030  24.013  0.00  0.00    +0.000 A 
ATOM     28  C   UNL     1      -4.017  13.677  23.439  0.00  0.00    +0.000 A 
ATOM     29  F   UNL     1      -5.158  14.005  24.066  0.00  0.00    +0.000 F 
ATOM     30  C   UNL     1      -4.031  12.984  22.236  0.00  0.00    +0.000 A 
ATOM     31 CL   UNL     1      -5.537  12.569  21.499  0.00  0.00    +0.000 Cl
ATOM     32  C   UNL     1      -2.817  12.590  21.637  0.00  0.00    +0.000 A 
ENDBRANCH  23  25
ENDBRANCH   9  23
TORSDOF 4
ENDMDL
MODEL 8
REMARK VINA RESULT:      -8.8      5.048     10.505
REMARK  Name = 
REMARK  4 active torsions:
REMARK  status: ('A' for Active; 'I' for Inactive)
REMARK    1  A    between atoms: N_1  and  C_2
REMARK    2  A    between atoms: C_5  and  C_6
REMARK    3  A    between atoms: C_20  and  N_21
REMARK    4  A    between atoms: N_21  and  C_22
REMARK                            x       y       z     vdW  Elec       q    Type
REMARK                         _______ _______ _______ _____ _____    ______ ____
ROOT
ATOM      1  C   UNL     1       2.539   4.760  20.387  0.00  0.00    +0.000 A 
ATOM      2  S   UNL     1       1.505   6.035  20.892  0.00  0.00    +0.000 S 
ATOM      3  C   UNL     1       1.966   7.200  19.642  0.00  0.00    +0.000 A 
ATOM      4  C   UNL     1       1.467   8.674  19.383  0.00  0.00    +0.000 A 
ATOM      5  C   UNL     1       2.188   9.162  18.231  0.00  0.00    +0.000 A 
ATOM      6  C   UNL     1       3.122   8.421  17.443  0.00  0.00    +0.000 A 
ATOM      7  C   UNL     1       3.465   7.110  17.721  0.00  0.00    +0.000 A 
ATOM      8  C   UNL     1       2.954   6.478  18.859  0.00  0.00    +0.000 A 
ATOM      9  C   UNL     1       3.316   5.109  19.302  0.00  0.00    +0.000 A 
ENDROOT
BRANCH   4  10
ATOM     10  C   UNL     1       0.464   9.752  20.334  0.00  0.00    +0.000 A 
ATOM     11  C   UNL     1      -0.039  10.143  19.099  0.00  0.00    +0.000 A 
ATOM     12  N   UNL     1      -0.487  11.274  18.509  0.00  0.00    +0.000 NA
ATOM     13  C   UNL     1      -1.413  11.852  19.204  0.00  0.00    +0.000 A 
ATOM     14  C   UNL     1      -1.484  11.642  20.526  0.00  0.00    +0.000 A 
ATOM     15  C   UNL     1      -2.520  12.452  21.073  0.00  0.00    +0.000 A 
ATOM     16  C   UNL     1      -2.613  12.710  22.410  0.00  0.00    +0.000 A 
ATOM     17  C   UNL     1      -1.680  12.058  23.189  0.00  0.00    +0.000 A 
ATOM     18  C   UNL     1      -0.690  11.104  22.609  0.00  0.00    +0.000 A 
ATOM     19  C   UNL     1      -0.467  10.764  21.150  0.00  0.00    +0.000 A 
ENDBRANCH   4  10
BRANCH   1  20
ATOM     20  N   UNL     1       2.543   3.558  21.027  0.00  0.00    +0.000 N 
ATOM     21  H   UNL     1       3.208   2.848  20.732  0.00  0.00    +0.000 HD
ATOM     22  H   UNL     1       1.693   3.173  21.427  0.00  0.00    +0.000 HD
ENDBRANCH   1  20
BRANCH   9  23
ATOM     23  N   UNL     1       4.183   4.179  18.704  0.00  0.00    +0.000 N 
ATOM     24  H   UNL     1       4.165   3.245  19.116  0.00  0.00    +0.000 HD
BRANCH  23  25
ATOM     25  C   UNL     1       5.177   4.214  17.674  0.00  0.00    +0.000 A 
ATOM     26  C   UNL     1       6.509   4.576  17.913  0.00  0.00    +0.000 A 
ATOM     27  C   UNL     1       7.419   4.784  16.858  0.00  0.00    +0.000 A 
ATOM     28  C   UNL     1       7.009   4.634  15.540  0.00  0.00    +0.000 A 
ATOM     29  F   UNL     1       7.868   4.930  14.551  0.00  0.00    +0.000 F 
ATOM     30  C   UNL     1       5.721   4.194  15.267  0.00  0.00    +0.000 A 
ATOM     31 CL   UNL     1       5.214   3.975  13.631  0.00  0.00    +0.000 Cl
ATOM     32  C   UNL     1       4.819   3.960  16.326  0.00  0.00    +0.000 A 
ENDBRANCH  23  25
ENDBRANCH   9  23
TORSDOF 4
ENDMDL
MODEL 9
REMARK VINA RESULT:      -8.8      3.922      9.570
REMARK  Name = 
REMARK  4 active torsions:
REMARK  status: ('A' for Active; 'I' for Inactive)
REMARK    1  A    between atoms: N_1  and  C_2
REMARK    2  A    between atoms: C_5  and  C_6
REMARK    3  A    between atoms: C_20  and  N_21
REMARK    4  A    between atoms: N_21  and  C_22
REMARK                            x       y       z     vdW  Elec       q    Type
REMARK                         _______ _______ _______ _____ _____    ______ ____
ROOT
ATOM      1  C   UNL     1       1.068   9.694  18.788  0.00  0.00    +0.000 A 
ATOM      2  S   UNL     1      -0.008  10.979  19.161  0.00  0.00    +0.000 S 
ATOM      3  C   UNL     1      -0.212  10.603  20.879  0.00  0.00    +0.000 A 
ATOM      4  C   UNL     1      -1.072  11.322  21.989  0.00  0.00    +0.000 A 
ATOM      5  C   UNL     1      -0.874  10.583  23.214  0.00  0.00    +0.000 A 
ATOM      6  C   UNL     1      -0.008   9.460  23.392  0.00  0.00    +0.000 A 
ATOM      7  C   UNL     1       0.748   8.924  22.364  0.00  0.00    +0.000 A 
ATOM      8  C   UNL     1       0.626   9.430  21.066  0.00  0.00    +0.000 A 
ATOM      9  C   UNL     1       1.320   8.884  19.875  0.00  0.00    +0.000 A 
ENDROOT
BRANCH   4  10
ATOM     10  C   UNL     1      -2.282  12.586  21.893  0.00  0.00    +0.000 A 
ATOM     11  C   UNL     1      -2.653  12.130  23.152  0.00  0.00    +0.000 A 
ATOM     12  N   UNL     1      -3.787  11.974  23.871  0.00  0.00    +0.000 NA
ATOM     13  C   UNL     1      -4.480  13.066  23.930  0.00  0.00    +0.000 A 
ATOM     14  C   UNL     1      -4.345  13.995  22.973  0.00  0.00    +0.000 A 
ATOM     15  C   UNL     1      -5.270  15.051  23.213  0.00  0.00    +0.000 A 
ATOM     16  C   UNL     1      -5.603  15.959  22.250  0.00  0.00    +0.000 A 
ATOM     17  C   UNL     1      -4.911  15.821  21.063  0.00  0.00    +0.000 A 
ATOM     18  C   UNL     1      -3.845  14.794  20.882  0.00  0.00    +0.000 A 
ATOM     19  C   UNL     1      -3.413  13.716  21.856  0.00  0.00    +0.000 A 
ENDBRANCH   4  10
BRANCH   1  20
ATOM     20  N   UNL     1       1.584   9.547  17.536  0.00  0.00    +0.000 N 
ATOM     21  H   UNL     1       1.799  10.379  16.994  0.00  0.00    +0.000 HD
ATOM     22  H   UNL     1       1.351   8.741  16.963  0.00  0.00    +0.000 HD
ENDBRANCH   1  20
BRANCH   9  23
ATOM     23  N   UNL     1       2.225   7.813  19.785  0.00  0.00    +0.000 N 
ATOM     24  H   UNL     1       3.204   8.062  19.931  0.00  0.00    +0.000 HD
BRANCH  23  25
ATOM     25  C   UNL     1       2.143   6.421  19.458  0.00  0.00    +0.000 A 
ATOM     26  C   UNL     1       2.197   5.942  18.143  0.00  0.00    +0.000 A 
ATOM     27  C   UNL     1       1.928   4.595  17.836  0.00  0.00    +0.000 A 
ATOM     28  C   UNL     1       1.595   3.699  18.844  0.00  0.00    +0.000 A 
ATOM     29  F   UNL     1       1.249   2.444  18.515  0.00  0.00    +0.000 F 
ATOM     30  C   UNL     1       1.615   4.117  20.167  0.00  0.00    +0.000 A 
ATOM     31 CL   UNL     1       1.233   3.001  21.428  0.00  0.00    +0.000 Cl
ATOM     32  C   UNL     1       1.912   5.461  20.476  0.00  0.00    +0.000 A 
ENDBRANCH  23  25
ENDBRANCH   9  23
TORSDOF 4
ENDMDL
