MODEL 1
REMARK VINA RESULT:      -9.2      0.000      0.000
REMARK  Name = 
REMARK  7 active torsions:
REMARK  status: ('A' for Active; 'I' for Inactive)
REMARK    1  A    between atoms: C_1  and  N_2
REMARK    2  A    between atoms: C_7  and  N_8
REMARK    3  A    between atoms: N_11  and  C_12
REMARK    4  A    between atoms: C_12  and  C_13
REMARK    5  A    between atoms: N_22  and  C_23
REMARK    6  A    between atoms: C_23  and  C_24
REMARK    7  A    between atoms: C_28  and  C_29
REMARK                            x       y       z     vdW  Elec       q    Type
REMARK                         _______ _______ _______ _____ _____    ______ ____
ROOT
ATOM      1  C   UNL     1      -1.092  12.869  22.241  0.00  0.00    +0.000 C 
ATOM      2  N   UNL     1      -0.481  11.718  21.628  0.00  0.00    +0.000 N 
ATOM      3  C   UNL     1      -0.080  10.573  22.302  0.00  0.00    +0.000 A 
ATOM      4  O   UNL     1      -0.281  10.255  23.457  0.00  0.00    +0.000 OA
ATOM      5  C   UNL     1       0.641   9.769  21.317  0.00  0.00    +0.000 A 
ATOM      6  C   UNL     1       1.186   8.500  21.445  0.00  0.00    +0.000 A 
ATOM      7  C   UNL     1       1.763   7.917  20.315  0.00  0.00    +0.000 A 
ATOM      8  C   UNL     1       1.744   8.636  19.097  0.00  0.00    +0.000 A 
ATOM      9  C   UNL     1       1.210   9.940  19.012  0.00  0.00    +0.000 A 
ATOM     10  C   UNL     1       0.652  10.517  20.138  0.00  0.00    +0.000 A 
ATOM     11  N   UNL     1       0.108  11.792  20.326  0.00  0.00    +0.000 N 
ENDROOT
BRANCH   7  12
ATOM     12  N   UNL     1       2.362   6.632  20.331  0.00  0.00    +0.000 N 
ATOM     13  C   UNL     1       2.586   5.846  19.222  0.00  0.00    +0.000 C 
ATOM     14  O   UNL     1       2.247   6.112  18.076  0.00  0.00    +0.000 OA
ATOM     15  N   UNL     1       3.206   4.652  19.526  0.00  0.00    +0.000 N 
ATOM     16  H   UNL     1       2.399   6.146  21.216  0.00  0.00    +0.000 HD
ATOM     17  H   UNL     1       3.883   4.677  20.270  0.00  0.00    +0.000 HD
BRANCH  15  18
ATOM     18  C   UNL     1       3.498   3.757  18.411  0.00  0.00    +0.000 C 
BRANCH  18  19
ATOM     19  C   UNL     1       4.802   4.071  17.732  0.00  0.00    +0.000 A 
ATOM     20  C   UNL     1       5.900   4.546  18.465  0.00  0.00    +0.000 A 
ATOM     21  C   UNL     1       7.117   4.807  17.830  0.00  0.00    +0.000 A 
ATOM     22  C   UNL     1       7.249   4.601  16.458  0.00  0.00    +0.000 A 
ATOM     23  C   UNL     1       6.168   4.124  15.720  0.00  0.00    +0.000 A 
ATOM     24  C   UNL     1       4.951   3.863  16.353  0.00  0.00    +0.000 A 
ENDBRANCH  18  19
ENDBRANCH  15  18
ENDBRANCH   7  12
BRANCH  11  25
ATOM     25  C   UNL     1      -0.602  12.498  19.259  0.00  0.00    +0.000 C 
BRANCH  25  26
ATOM     26  C   UNL     1      -1.856  11.750  18.827  0.00  0.00    +0.000 A 
ATOM     27  C   UNL     1      -1.783  10.782  17.812  0.00  0.00    +0.000 A 
ATOM     28  C   UNL     1      -2.943  10.205  17.288  0.00  0.00    +0.000 A 
ATOM     29  C   UNL     1      -4.196  10.591  17.763  0.00  0.00    +0.000 A 
ATOM     30  C   UNL     1      -4.300  11.538  18.791  0.00  0.00    +0.000 A 
ATOM     31  C   UNL     1      -3.125  12.097  19.324  0.00  0.00    +0.000 A 
BRANCH  30  32
ATOM     32  C   UNL     1      -5.648  11.992  19.299  0.00  0.00    +0.000 C 
ATOM     33  F   UNL     1      -5.633  12.389  20.603  0.00  0.00    +0.000 F 
ATOM     34  F   UNL     1      -6.155  13.040  18.595  0.00  0.00    +0.000 F 
ATOM     35  F   UNL     1      -6.585  11.003  19.227  0.00  0.00    +0.000 F 
ENDBRANCH  30  32
ENDBRANCH  25  26
ENDBRANCH  11  25
TORSDOF 6
ENDMDL
MODEL 2
REMARK VINA RESULT:      -9.1      4.956     10.254
REMARK  Name = 
REMARK  7 active torsions:
REMARK  status: ('A' for Active; 'I' for Inactive)
REMARK    1  A    between atoms: C_1  and  N_2
REMARK    2  A    between atoms: C_7  and  N_8
REMARK    3  A    between atoms: N_11  and  C_12
REMARK    4  A    between atoms: C_12  and  C_13
REMARK    5  A    between atoms: N_22  and  C_23
REMARK    6  A    between atoms: C_23  and  C_24
REMARK    7  A    between atoms: C_28  and  C_29
REMARK                            x       y       z     vdW  Elec       q    Type
REMARK                         _______ _______ _______ _____ _____    ______ ____
ROOT
ATOM      1  C   UNL     1       2.862   2.043  19.745  0.00  0.00    +0.000 C 
ATOM      2  N   UNL     1       2.741   3.469  19.581  0.00  0.00    +0.000 N 
ATOM      3  C   UNL     1       2.379   4.359  20.581  0.00  0.00    +0.000 A 
ATOM      4  O   UNL     1       2.239   4.159  21.772  0.00  0.00    +0.000 OA
ATOM      5  C   UNL     1       2.211   5.651  19.917  0.00  0.00    +0.000 A 
ATOM      6  C   UNL     1       1.925   6.893  20.465  0.00  0.00    +0.000 A 
ATOM      7  C   UNL     1       1.895   7.994  19.608  0.00  0.00    +0.000 A 
ATOM      8  C   UNL     1       2.176   7.796  18.236  0.00  0.00    +0.000 A 
ATOM      9  C   UNL     1       2.430   6.511  17.708  0.00  0.00    +0.000 A 
ATOM     10  C   UNL     1       2.446   5.421  18.559  0.00  0.00    +0.000 A 
ATOM     11  N   UNL     1       2.623   4.061  18.284  0.00  0.00    +0.000 N 
ENDROOT
BRANCH   7  12
ATOM     12  N   UNL     1       1.600   9.309  20.053  0.00  0.00    +0.000 N 
ATOM     13  C   UNL     1       0.537  10.073  19.624  0.00  0.00    +0.000 C 
ATOM     14  O   UNL     1      -0.268   9.756  18.758  0.00  0.00    +0.000 OA
ATOM     15  N   UNL     1       0.478  11.306  20.241  0.00  0.00    +0.000 N 
ATOM     16  H   UNL     1       2.339   9.821  20.513  0.00  0.00    +0.000 HD
ATOM     17  H   UNL     1       0.764  11.336  21.204  0.00  0.00    +0.000 HD
BRANCH  15  18
ATOM     18  C   UNL     1      -0.625  12.181  19.860  0.00  0.00    +0.000 C 
BRANCH  18  19
ATOM     19  C   UNL     1      -1.671  12.309  20.934  0.00  0.00    +0.000 A 
ATOM     20  C   UNL     1      -2.942  12.825  20.643  0.00  0.00    +0.000 A 
ATOM     21  C   UNL     1      -3.917  12.912  21.641  0.00  0.00    +0.000 A 
ATOM     22  C   UNL     1      -3.631  12.490  22.937  0.00  0.00    +0.000 A 
ATOM     23  C   UNL     1      -2.375  11.969  23.237  0.00  0.00    +0.000 A 
ATOM     24  C   UNL     1      -1.399  11.881  22.242  0.00  0.00    +0.000 A 
ENDBRANCH  18  19
ENDBRANCH  15  18
ENDBRANCH   7  12
BRANCH  11  25
ATOM     25  C   UNL     1       3.492   3.596  17.203  0.00  0.00    +0.000 C 
BRANCH  25  26
ATOM     26  C   UNL     1       4.688   4.517  17.005  0.00  0.00    +0.000 A 
ATOM     27  C   UNL     1       4.990   5.011  15.726  0.00  0.00    +0.000 A 
ATOM     28  C   UNL     1       6.171   5.720  15.492  0.00  0.00    +0.000 A 
ATOM     29  C   UNL     1       7.075   5.941  16.532  0.00  0.00    +0.000 A 
ATOM     30  C   UNL     1       6.790   5.480  17.824  0.00  0.00    +0.000 A 
ATOM     31  C   UNL     1       5.589   4.785  18.050  0.00  0.00    +0.000 A 
BRANCH  30  32
ATOM     32  C   UNL     1       7.769   5.682  18.956  0.00  0.00    +0.000 C 
ATOM     33  F   UNL     1       8.407   6.886  18.915  0.00  0.00    +0.000 F 
ATOM     34  F   UNL     1       7.184   5.611  20.182  0.00  0.00    +0.000 F 
ATOM     35  F   UNL     1       8.758   4.743  18.956  0.00  0.00    +0.000 F 
ENDBRANCH  30  32
ENDBRANCH  25  26
ENDBRANCH  11  25
TORSDOF 6
ENDMDL
MODEL 3
REMARK VINA RESULT:      -9.0      4.942     10.195
REMARK  Name = 
REMARK  7 active torsions:
REMARK  status: ('A' for Active; 'I' for Inactive)
REMARK    1  A    between atoms: C_1  and  N_2
REMARK    2  A    between atoms: C_7  and  N_8
REMARK    3  A    between atoms: N_11  and  C_12
REMARK    4  A    between atoms: C_12  and  C_13
REMARK    5  A    between atoms: N_22  and  C_23
REMARK    6  A    between atoms: C_23  and  C_24
REMARK    7  A    between atoms: C_28  and  C_29
REMARK                            x       y       z     vdW  Elec       q    Type
REMARK                         _______ _______ _______ _____ _____    ______ ____
ROOT
ATOM      1  C   UNL     1       2.654   1.870  19.546  0.00  0.00    +0.000 C 
ATOM      2  N   UNL     1       2.600   3.307  19.468  0.00  0.00    +0.000 N 
ATOM      3  C   UNL     1       2.255   4.150  20.515  0.00  0.00    +0.000 A 
ATOM      4  O   UNL     1       2.080   3.884  21.687  0.00  0.00    +0.000 OA
ATOM      5  C   UNL     1       2.160   5.486  19.929  0.00  0.00    +0.000 A 
ATOM      6  C   UNL     1       1.916   6.704  20.547  0.00  0.00    +0.000 A 
ATOM      7  C   UNL     1       1.954   7.856  19.760  0.00  0.00    +0.000 A 
ATOM      8  C   UNL     1       2.256   7.729  18.384  0.00  0.00    +0.000 A 
ATOM      9  C   UNL     1       2.466   6.469  17.783  0.00  0.00    +0.000 A 
ATOM     10  C   UNL     1       2.415   5.330  18.564  0.00  0.00    +0.000 A 
ATOM     11  N   UNL     1       2.538   3.983  18.209  0.00  0.00    +0.000 N 
ENDROOT
BRANCH   7  12
ATOM     12  N   UNL     1       1.707   9.153  20.279  0.00  0.00    +0.000 N 
ATOM     13  C   UNL     1       0.740  10.021  19.823  0.00  0.00    +0.000 C 
ATOM     14  O   UNL     1      -0.003   9.827  18.870  0.00  0.00    +0.000 OA
ATOM     15  N   UNL     1       0.708  11.207  20.527  0.00  0.00    +0.000 N 
ATOM     16  H   UNL     1       2.435   9.576  20.840  0.00  0.00    +0.000 HD
ATOM     17  H   UNL     1       0.906  11.148  21.511  0.00  0.00    +0.000 HD
BRANCH  15  18
ATOM     18  C   UNL     1      -0.297  12.186  20.124  0.00  0.00    +0.000 C 
BRANCH  18  19
ATOM     19  C   UNL     1      -1.454  12.269  21.082  0.00  0.00    +0.000 A 
ATOM     20  C   UNL     1      -1.286  11.967  22.441  0.00  0.00    +0.000 A 
ATOM     21  C   UNL     1      -2.360  12.075  23.329  0.00  0.00    +0.000 A 
ATOM     22  C   UNL     1      -3.610  12.481  22.869  0.00  0.00    +0.000 A 
ATOM     23  C   UNL     1      -3.788  12.790  21.522  0.00  0.00    +0.000 A 
ATOM     24  C   UNL     1      -2.716  12.682  20.633  0.00  0.00    +0.000 A 
ENDBRANCH  18  19
ENDBRANCH  15  18
ENDBRANCH   7  12
BRANCH  11  25
ATOM     25  C   UNL     1       3.409   3.545  17.118  0.00  0.00    +0.000 C 
BRANCH  25  26
ATOM     26  C   UNL     1       4.591   4.486  16.930  0.00  0.00    +0.000 A 
ATOM     27  C   UNL     1       4.870   5.018  15.661  0.00  0.00    +0.000 A 
ATOM     28  C   UNL     1       6.040   5.747  15.431  0.00  0.00    +0.000 A 
ATOM     29  C   UNL     1       6.955   5.951  16.464  0.00  0.00    +0.000 A 
ATOM     30  C   UNL     1       6.693   5.452  17.747  0.00  0.00    +0.000 A 
ATOM     31  C   UNL     1       5.503   4.737  17.970  0.00  0.00    +0.000 A 
BRANCH  30  32
ATOM     32  C   UNL     1       7.684   5.635  18.871  0.00  0.00    +0.000 C 
ATOM     33  F   UNL     1       8.688   4.713  18.867  0.00  0.00    +0.000 F 
ATOM     34  F   UNL     1       8.295   6.851  18.848  0.00  0.00    +0.000 F 
ATOM     35  F   UNL     1       7.097   5.533  20.098  0.00  0.00    +0.000 F 
ENDBRANCH  30  32
ENDBRANCH  25  26
ENDBRANCH  11  25
TORSDOF 6
ENDMDL
MODEL 4
REMARK VINA RESULT:      -9.0      0.702      1.276
REMARK  Name = 
REMARK  7 active torsions:
REMARK  status: ('A' for Active; 'I' for Inactive)
REMARK    1  A    between atoms: C_1  and  N_2
REMARK    2  A    between atoms: C_7  and  N_8
REMARK    3  A    between atoms: N_11  and  C_12
REMARK    4  A    between atoms: C_12  and  C_13
REMARK    5  A    between atoms: N_22  and  C_23
REMARK    6  A    between atoms: C_23  and  C_24
REMARK    7  A    between atoms: C_28  and  C_29
REMARK                            x       y       z     vdW  Elec       q    Type
REMARK                         _______ _______ _______ _____ _____    ______ ____
ROOT
ATOM      1  C   UNL     1      -1.461  13.443  21.447  0.00  0.00    +0.000 C 
ATOM      2  N   UNL     1      -0.795  12.235  21.030  0.00  0.00    +0.000 N 
ATOM      3  C   UNL     1      -0.348  11.236  21.883  0.00  0.00    +0.000 A 
ATOM      4  O   UNL     1      -0.540  11.103  23.075  0.00  0.00    +0.000 OA
ATOM      5  C   UNL     1       0.414  10.314  21.042  0.00  0.00    +0.000 A 
ATOM      6  C   UNL     1       1.015   9.109  21.377  0.00  0.00    +0.000 A 
ATOM      7  C   UNL     1       1.623   8.375  20.356  0.00  0.00    +0.000 A 
ATOM      8  C   UNL     1       1.578   8.883  19.037  0.00  0.00    +0.000 A 
ATOM      9  C   UNL     1       0.986  10.129  18.739  0.00  0.00    +0.000 A 
ATOM     10  C   UNL     1       0.397  10.858  19.756  0.00  0.00    +0.000 A 
ATOM     11  N   UNL     1      -0.204  12.121  19.733  0.00  0.00    +0.000 N 
ENDROOT
BRANCH   7  12
ATOM     12  N   UNL     1       2.279   7.138  20.582  0.00  0.00    +0.000 N 
ATOM     13  C   UNL     1       2.588   6.214  19.609  0.00  0.00    +0.000 C 
ATOM     14  O   UNL     1       2.289   6.295  18.425  0.00  0.00    +0.000 OA
ATOM     15  N   UNL     1       3.248   5.110  20.107  0.00  0.00    +0.000 N 
ATOM     16  H   UNL     1       2.298   6.787  21.529  0.00  0.00    +0.000 HD
ATOM     17  H   UNL     1       3.889   5.277  20.864  0.00  0.00    +0.000 HD
BRANCH  15  18
ATOM     18  C   UNL     1       3.630   4.080  19.146  0.00  0.00    +0.000 C 
BRANCH  18  19
ATOM     19  C   UNL     1       4.931   4.378  18.453  0.00  0.00    +0.000 A 
ATOM     20  C   UNL     1       5.131   4.017  17.112  0.00  0.00    +0.000 A 
ATOM     21  C   UNL     1       6.333   4.324  16.467  0.00  0.00    +0.000 A 
ATOM     22  C   UNL     1       7.346   4.989  17.155  0.00  0.00    +0.000 A 
ATOM     23  C   UNL     1       7.157   5.358  18.484  0.00  0.00    +0.000 A 
ATOM     24  C   UNL     1       5.957   5.052  19.131  0.00  0.00    +0.000 A 
ENDBRANCH  18  19
ENDBRANCH  15  18
ENDBRANCH   7  12
BRANCH  11  25
ATOM     25  C   UNL     1      -0.939  12.608  18.566  0.00  0.00    +0.000 C 
BRANCH  25  26
ATOM     26  C   UNL     1      -2.111  11.699  18.219  0.00  0.00    +0.000 A 
ATOM     27  C   UNL     1      -1.980  10.742  17.200  0.00  0.00    +0.000 A 
ATOM     28  C   UNL     1      -3.086  10.015  16.753  0.00  0.00    +0.000 A 
ATOM     29  C   UNL     1      -4.345  10.237  17.313  0.00  0.00    +0.000 A 
ATOM     30  C   UNL     1      -4.503  11.169  18.347  0.00  0.00    +0.000 A 
ATOM     31  C   UNL     1      -3.378  11.880  18.801  0.00  0.00    +0.000 A 
BRANCH  30  32
ATOM     32  C   UNL     1      -5.861  11.446  18.945  0.00  0.00    +0.000 C 
ATOM     33  F   UNL     1      -6.720  10.390  18.856  0.00  0.00    +0.000 F 
ATOM     34  F   UNL     1      -5.804  11.770  20.265  0.00  0.00    +0.000 F 
ATOM     35  F   UNL     1      -6.493  12.485  18.330  0.00  0.00    +0.000 F 
ENDBRANCH  30  32
ENDBRANCH  25  26
ENDBRANCH  11  25
TORSDOF 6
ENDMDL
MODEL 5
REMARK VINA RESULT:      -8.9      5.022     10.258
REMARK  Name = 
REMARK  7 active torsions:
REMARK  status: ('A' for Active; 'I' for Inactive)
REMARK    1  A    between atoms: C_1  and  N_2
REMARK    2  A    between atoms: C_7  and  N_8
REMARK    3  A    between atoms: N_11  and  C_12
REMARK    4  A    between atoms: C_12  and  C_13
REMARK    5  A    between atoms: N_22  and  C_23
REMARK    6  A    between atoms: C_23  and  C_24
REMARK    7  A    between atoms: C_28  and  C_29
REMARK                            x       y       z     vdW  Elec       q    Type
REMARK                         _______ _______ _______ _____ _____    ______ ____
ROOT
ATOM      1  C   UNL     1       2.923   1.805  19.212  0.00  0.00    +0.000 C 
ATOM      2  N   UNL     1       2.790   3.237  19.306  0.00  0.00    +0.000 N 
ATOM      3  C   UNL     1       2.368   3.926  20.434  0.00  0.00    +0.000 A 
ATOM      4  O   UNL     1       2.176   3.510  21.559  0.00  0.00    +0.000 OA
ATOM      5  C   UNL     1       2.213   5.317  20.010  0.00  0.00    +0.000 A 
ATOM      6  C   UNL     1       1.884   6.436  20.761  0.00  0.00    +0.000 A 
ATOM      7  C   UNL     1       1.878   7.676  20.120  0.00  0.00    +0.000 A 
ATOM      8  C   UNL     1       2.226   7.733  18.750  0.00  0.00    +0.000 A 
ATOM      9  C   UNL     1       2.523   6.569  18.010  0.00  0.00    +0.000 A 
ATOM     10  C   UNL     1       2.515   5.342  18.646  0.00  0.00    +0.000 A 
ATOM     11  N   UNL     1       2.724   4.056  18.136  0.00  0.00    +0.000 N 
ENDROOT
BRANCH   7  12
ATOM     12  N   UNL     1       1.544   8.885  20.783  0.00  0.00    +0.000 N 
ATOM     13  C   UNL     1       0.375   9.115  21.475  0.00  0.00    +0.000 C 
ATOM     14  O   UNL     1      -0.566   8.337  21.568  0.00  0.00    +0.000 OA
ATOM     15  N   UNL     1       0.325  10.372  22.040  0.00  0.00    +0.000 N 
ATOM     16  H   UNL     1       2.062   9.714  20.528  0.00  0.00    +0.000 HD
ATOM     17  H   UNL     1       1.194  10.742  22.384  0.00  0.00    +0.000 HD
BRANCH  15  18
ATOM     18  C   UNL     1      -0.872  10.702  22.807  0.00  0.00    +0.000 C 
BRANCH  18  19
ATOM     19  C   UNL     1      -1.501  12.002  22.385  0.00  0.00    +0.000 A 
ATOM     20  C   UNL     1      -1.777  13.007  23.324  0.00  0.00    +0.000 A 
ATOM     21  C   UNL     1      -2.334  14.223  22.918  0.00  0.00    +0.000 A 
ATOM     22  C   UNL     1      -2.623  14.445  21.573  0.00  0.00    +0.000 A 
ATOM     23  C   UNL     1      -2.347  13.458  20.630  0.00  0.00    +0.000 A 
ATOM     24  C   UNL     1      -1.791  12.242  21.034  0.00  0.00    +0.000 A 
ENDBRANCH  18  19
ENDBRANCH  15  18
ENDBRANCH   7  12
BRANCH  11  25
ATOM     25  C   UNL     1       3.649   3.802  17.031  0.00  0.00    +0.000 C 
BRANCH  25  26
ATOM     26  C   UNL     1       4.773   4.828  16.991  0.00  0.00    +0.000 A 
ATOM     27  C   UNL     1       4.994   5.583  15.827  0.00  0.00    +0.000 A 
ATOM     28  C   UNL     1       6.117   6.406  15.710  0.00  0.00    +0.000 A 
ATOM     29  C   UNL     1       7.042   6.485  16.751  0.00  0.00    +0.000 A 
ATOM     30  C   UNL     1       6.837   5.762  17.934  0.00  0.00    +0.000 A 
ATOM     31  C   UNL     1       5.693   4.952  18.047  0.00  0.00    +0.000 A 
BRANCH  30  32
ATOM     32  C   UNL     1       7.842   5.809  19.059  0.00  0.00    +0.000 C 
ATOM     33  F   UNL     1       7.281   5.679  20.295  0.00  0.00    +0.000 F 
ATOM     34  F   UNL     1       8.783   4.831  18.972  0.00  0.00    +0.000 F 
ATOM     35  F   UNL     1       8.526   6.988  19.090  0.00  0.00    +0.000 F 
ENDBRANCH  30  32
ENDBRANCH  25  26
ENDBRANCH  11  25
TORSDOF 6
ENDMDL
MODEL 6
REMARK VINA RESULT:      -8.8      0.999      1.405
REMARK  Name = 
REMARK  7 active torsions:
REMARK  status: ('A' for Active; 'I' for Inactive)
REMARK    1  A    between atoms: C_1  and  N_2
REMARK    2  A    between atoms: C_7  and  N_8
REMARK    3  A    between atoms: N_11  and  C_12
REMARK    4  A    between atoms: C_12  and  C_13
REMARK    5  A    between atoms: N_22  and  C_23
REMARK    6  A    between atoms: C_23  and  C_24
REMARK    7  A    between atoms: C_28  and  C_29
REMARK                            x       y       z     vdW  Elec       q    Type
REMARK                         _______ _______ _______ _____ _____    ______ ____
ROOT
ATOM      1  C   UNL     1      -0.328  12.461  21.649  0.00  0.00    +0.000 C 
ATOM      2  N   UNL     1       0.155  11.305  20.937  0.00  0.00    +0.000 N 
ATOM      3  C   UNL     1       0.596  10.131  21.529  0.00  0.00    +0.000 A 
ATOM      4  O   UNL     1       0.534   9.789  22.694  0.00  0.00    +0.000 OA
ATOM      5  C   UNL     1       1.153   9.327  20.442  0.00  0.00    +0.000 A 
ATOM      6  C   UNL     1       1.662   8.037  20.472  0.00  0.00    +0.000 A 
ATOM      7  C   UNL     1       2.065   7.465  19.264  0.00  0.00    +0.000 A 
ATOM      8  C   UNL     1       1.916   8.215  18.074  0.00  0.00    +0.000 A 
ATOM      9  C   UNL     1       1.425   9.539  18.087  0.00  0.00    +0.000 A 
ATOM     10  C   UNL     1       1.039  10.106  19.288  0.00  0.00    +0.000 A 
ATOM     11  N   UNL     1       0.573  11.393  19.572  0.00  0.00    +0.000 N 
ENDROOT
BRANCH   7  12
ATOM     12  N   UNL     1       2.613   6.159  19.174  0.00  0.00    +0.000 N 
ATOM     13  C   UNL     1       3.914   5.865  18.830  0.00  0.00    +0.000 C 
ATOM     14  O   UNL     1       4.766   6.678  18.495  0.00  0.00    +0.000 OA
ATOM     15  N   UNL     1       4.180   4.512  18.844  0.00  0.00    +0.000 N 
ATOM     16  H   UNL     1       1.965   5.387  19.105  0.00  0.00    +0.000 HD
ATOM     17  H   UNL     1       3.713   3.972  19.553  0.00  0.00    +0.000 HD
BRANCH  15  18
ATOM     18  C   UNL     1       5.540   4.104  18.507  0.00  0.00    +0.000 C 
BRANCH  18  19
ATOM     19  C   UNL     1       5.872   4.312  17.054  0.00  0.00    +0.000 A 
ATOM     20  C   UNL     1       7.124   4.811  16.667  0.00  0.00    +0.000 A 
ATOM     21  C   UNL     1       7.435   4.973  15.314  0.00  0.00    +0.000 A 
ATOM     22  C   UNL     1       6.498   4.643  14.337  0.00  0.00    +0.000 A 
ATOM     23  C   UNL     1       5.254   4.140  14.709  0.00  0.00    +0.000 A 
ATOM     24  C   UNL     1       4.941   3.978  16.060  0.00  0.00    +0.000 A 
ENDBRANCH  18  19
ENDBRANCH  15  18
ENDBRANCH   7  12
BRANCH  11  25
ATOM     25  C   UNL     1      -0.241  12.150  18.621  0.00  0.00    +0.000 C 
BRANCH  25  26
ATOM     26  C   UNL     1      -1.607  11.509  18.414  0.00  0.00    +0.000 A 
ATOM     27  C   UNL     1      -1.761  10.469  17.483  0.00  0.00    +0.000 A 
ATOM     28  C   UNL     1      -3.028   9.980  17.157  0.00  0.00    +0.000 A 
ATOM     29  C   UNL     1      -4.166  10.527  17.751  0.00  0.00    +0.000 A 
ATOM     30  C   UNL     1      -4.043  11.551  18.701  0.00  0.00    +0.000 A 
ATOM     31  C   UNL     1      -2.760  12.020  19.034  0.00  0.00    +0.000 A 
BRANCH  30  32
ATOM     32  C   UNL     1      -5.263  12.177  19.332  0.00  0.00    +0.000 C 
ATOM     33  F   UNL     1      -6.306  11.312  19.477  0.00  0.00    +0.000 F 
ATOM     34  F   UNL     1      -5.020  12.679  20.573  0.00  0.00    +0.000 F 
ATOM     35  F   UNL     1      -5.748  13.217  18.595  0.00  0.00    +0.000 F 
ENDBRANCH  30  32
ENDBRANCH  25  26
ENDBRANCH  11  25
TORSDOF 6
ENDMDL
MODEL 7
REMARK VINA RESULT:      -8.8      1.593      2.208
REMARK  Name = 
REMARK  7 active torsions:
REMARK  status: ('A' for Active; 'I' for Inactive)
REMARK    1  A    between atoms: C_1  and  N_2
REMARK    2  A    between atoms: C_7  and  N_8
REMARK    3  A    between atoms: N_11  and  C_12
REMARK    4  A    between atoms: C_12  and  C_13
REMARK    5  A    between atoms: N_22  and  C_23
REMARK    6  A    between atoms: C_23  and  C_24
REMARK    7  A    between atoms: C_28  and  C_29
REMARK                            x       y       z     vdW  Elec       q    Type
REMARK                         _______ _______ _______ _____ _____    ______ ____
ROOT
ATOM      1  C   UNL     1      -0.947  13.220  22.344  0.00  0.00    +0.000 C 
ATOM      2  N   UNL     1      -0.383  12.073  21.678  0.00  0.00    +0.000 N 
ATOM      3  C   UNL     1      -0.118  10.852  22.280  0.00  0.00    +0.000 A 
ATOM      4  O   UNL     1      -0.420  10.462  23.390  0.00  0.00    +0.000 OA
ATOM      5  C   UNL     1       0.607  10.070  21.279  0.00  0.00    +0.000 A 
ATOM      6  C   UNL     1       1.045   8.755  21.336  0.00  0.00    +0.000 A 
ATOM      7  C   UNL     1       1.651   8.217  20.200  0.00  0.00    +0.000 A 
ATOM      8  C   UNL     1       1.770   9.027  19.046  0.00  0.00    +0.000 A 
ATOM      9  C   UNL     1       1.342  10.372  19.035  0.00  0.00    +0.000 A 
ATOM     10  C   UNL     1       0.754  10.904  20.168  0.00  0.00    +0.000 A 
ATOM     11  N   UNL     1       0.296  12.200  20.426  0.00  0.00    +0.000 N 
ENDROOT
BRANCH   7  12
ATOM     12  N   UNL     1       2.150   6.890  20.147  0.00  0.00    +0.000 N 
ATOM     13  C   UNL     1       2.394   6.178  18.993  0.00  0.00    +0.000 C 
ATOM     14  O   UNL     1       2.161   6.561  17.854  0.00  0.00    +0.000 OA
ATOM     15  N   UNL     1       2.899   4.918  19.237  0.00  0.00    +0.000 N 
ATOM     16  H   UNL     1       2.085   6.334  20.989  0.00  0.00    +0.000 HD
ATOM     17  H   UNL     1       3.520   4.830  20.023  0.00  0.00    +0.000 HD
BRANCH  15  18
ATOM     18  C   UNL     1       3.203   4.093  18.072  0.00  0.00    +0.000 C 
BRANCH  18  19
ATOM     19  C   UNL     1       4.619   4.256  17.590  0.00  0.00    +0.000 A 
ATOM     20  C   UNL     1       4.932   4.154  16.226  0.00  0.00    +0.000 A 
ATOM     21  C   UNL     1       6.245   4.336  15.785  0.00  0.00    +0.000 A 
ATOM     22  C   UNL     1       7.258   4.617  16.699  0.00  0.00    +0.000 A 
ATOM     23  C   UNL     1       6.959   4.728  18.055  0.00  0.00    +0.000 A 
ATOM     24  C   UNL     1       5.647   4.546  18.498  0.00  0.00    +0.000 A 
ENDBRANCH  18  19
ENDBRANCH  15  18
ENDBRANCH   7  12
BRANCH  11  25
ATOM     25  C   UNL     1      -0.284  13.040  19.378  0.00  0.00    +0.000 C 
BRANCH  25  26
ATOM     26  C   UNL     1      -1.657  12.539  18.951  0.00  0.00    +0.000 A 
ATOM     27  C   UNL     1      -2.744  12.631  19.834  0.00  0.00    +0.000 A 
ATOM     28  C   UNL     1      -3.968  12.031  19.529  0.00  0.00    +0.000 A 
ATOM     29  C   UNL     1      -4.125  11.322  18.337  0.00  0.00    +0.000 A 
ATOM     30  C   UNL     1      -3.065  11.233  17.425  0.00  0.00    +0.000 A 
ATOM     31  C   UNL     1      -1.845  11.857  17.736  0.00  0.00    +0.000 A 
BRANCH  30  32
ATOM     32  C   UNL     1      -3.205  10.445  16.145  0.00  0.00    +0.000 C 
ATOM     33  F   UNL     1      -2.945   9.115  16.294  0.00  0.00    +0.000 F 
ATOM     34  F   UNL     1      -4.452  10.523  15.606  0.00  0.00    +0.000 F 
ATOM     35  F   UNL     1      -2.349  10.879  15.176  0.00  0.00    +0.000 F 
ENDBRANCH  30  32
ENDBRANCH  25  26
ENDBRANCH  11  25
TORSDOF 6
ENDMDL
MODEL 8
REMARK VINA RESULT:      -8.8      2.341      3.224
REMARK  Name = 
REMARK  7 active torsions:
REMARK  status: ('A' for Active; 'I' for Inactive)
REMARK    1  A    between atoms: C_1  and  N_2
REMARK    2  A    between atoms: C_7  and  N_8
REMARK    3  A    between atoms: N_11  and  C_12
REMARK    4  A    between atoms: C_12  and  C_13
REMARK    5  A    between atoms: N_22  and  C_23
REMARK    6  A    between atoms: C_23  and  C_24
REMARK    7  A    between atoms: C_28  and  C_29
REMARK                            x       y       z     vdW  Elec       q    Type
REMARK                         _______ _______ _______ _____ _____    ______ ____
ROOT
ATOM      1  C   UNL     1       0.407  13.264  18.467  0.00  0.00    +0.000 C 
ATOM      2  N   UNL     1       0.700  11.987  19.067  0.00  0.00    +0.000 N 
ATOM      3  C   UNL     1       1.480  10.996  18.490  0.00  0.00    +0.000 A 
ATOM      4  O   UNL     1       2.162  11.044  17.486  0.00  0.00    +0.000 OA
ATOM      5  C   UNL     1       1.346   9.832  19.365  0.00  0.00    +0.000 A 
ATOM      6  C   UNL     1       1.975   8.597  19.292  0.00  0.00    +0.000 A 
ATOM      7  C   UNL     1       1.727   7.675  20.309  0.00  0.00    +0.000 A 
ATOM      8  C   UNL     1       0.869   8.049  21.370  0.00  0.00    +0.000 A 
ATOM      9  C   UNL     1       0.221   9.303  21.395  0.00  0.00    +0.000 A 
ATOM     10  C   UNL     1       0.460  10.208  20.377  0.00  0.00    +0.000 A 
ATOM     11  N   UNL     1      -0.085  11.475  20.147  0.00  0.00    +0.000 N 
ENDROOT
BRANCH   7  12
ATOM     12  N   UNL     1       2.302   6.378  20.332  0.00  0.00    +0.000 N 
ATOM     13  C   UNL     1       2.559   5.604  19.223  0.00  0.00    +0.000 C 
ATOM     14  O   UNL     1       2.275   5.893  18.067  0.00  0.00    +0.000 OA
ATOM     15  N   UNL     1       3.143   4.394  19.536  0.00  0.00    +0.000 N 
ATOM     16  H   UNL     1       2.291   5.880  21.211  0.00  0.00    +0.000 HD
ATOM     17  H   UNL     1       3.788   4.396  20.307  0.00  0.00    +0.000 HD
BRANCH  15  18
ATOM     18  C   UNL     1       3.466   3.509  18.421  0.00  0.00    +0.000 C 
BRANCH  18  19
ATOM     19  C   UNL     1       4.737   3.895  17.715  0.00  0.00    +0.000 A 
ATOM     20  C   UNL     1       4.822   3.861  16.315  0.00  0.00    +0.000 A 
ATOM     21  C   UNL     1       5.997   4.248  15.666  0.00  0.00    +0.000 A 
ATOM     22  C   UNL     1       7.099   4.669  16.407  0.00  0.00    +0.000 A 
ATOM     23  C   UNL     1       7.025   4.714  17.797  0.00  0.00    +0.000 A 
ATOM     24  C   UNL     1       5.852   4.327  18.448  0.00  0.00    +0.000 A 
ENDBRANCH  18  19
ENDBRANCH  15  18
ENDBRANCH   7  12
BRANCH  11  25
ATOM     25  C   UNL     1      -0.462  12.367  21.244  0.00  0.00    +0.000 C 
BRANCH  25  26
ATOM     26  C   UNL     1      -1.973  12.424  21.429  0.00  0.00    +0.000 A 
ATOM     27  C   UNL     1      -2.816  12.485  20.308  0.00  0.00    +0.000 A 
ATOM     28  C   UNL     1      -4.188  12.704  20.454  0.00  0.00    +0.000 A 
ATOM     29  C   UNL     1      -4.741  12.874  21.724  0.00  0.00    +0.000 A 
ATOM     30  C   UNL     1      -3.928  12.796  22.863  0.00  0.00    +0.000 A 
ATOM     31  C   UNL     1      -2.552  12.556  22.703  0.00  0.00    +0.000 A 
BRANCH  30  32
ATOM     32  C   UNL     1      -4.501  13.008  24.244  0.00  0.00    +0.000 C 
ATOM     33  F   UNL     1      -3.746  13.829  25.026  0.00  0.00    +0.000 F 
ATOM     34  F   UNL     1      -5.747  13.554  24.223  0.00  0.00    +0.000 F 
ATOM     35  F   UNL     1      -4.615  11.840  24.939  0.00  0.00    +0.000 F 
ENDBRANCH  30  32
ENDBRANCH  25  26
ENDBRANCH  11  25
TORSDOF 6
ENDMDL
MODEL 9
REMARK VINA RESULT:      -8.8      2.677      4.005
REMARK  Name = 
REMARK  7 active torsions:
REMARK  status: ('A' for Active; 'I' for Inactive)
REMARK    1  A    between atoms: C_1  and  N_2
REMARK    2  A    between atoms: C_7  and  N_8
REMARK    3  A    between atoms: N_11  and  C_12
REMARK    4  A    between atoms: C_12  and  C_13
REMARK    5  A    between atoms: N_22  and  C_23
REMARK    6  A    between atoms: C_23  and  C_24
REMARK    7  A    between atoms: C_28  and  C_29
REMARK                            x       y       z     vdW  Elec       q    Type
REMARK                         _______ _______ _______ _____ _____    ______ ____
ROOT
ATOM      1  C   UNL     1      -4.862  11.720  18.407  0.00  0.00    +0.000 C 
ATOM      2  N   UNL     1      -3.454  11.417  18.431  0.00  0.00    +0.000 N 
ATOM      3  C   UNL     1      -2.821  10.500  17.605  0.00  0.00    +0.000 A 
ATOM      4  O   UNL     1      -3.263   9.901  16.644  0.00  0.00    +0.000 OA
ATOM      5  C   UNL     1      -1.452  10.396  18.108  0.00  0.00    +0.000 A 
ATOM      6  C   UNL     1      -0.380   9.675  17.603  0.00  0.00    +0.000 A 
ATOM      7  C   UNL     1       0.856   9.811  18.236  0.00  0.00    +0.000 A 
ATOM      8  C   UNL     1       0.960  10.687  19.342  0.00  0.00    +0.000 A 
ATOM      9  C   UNL     1      -0.161  11.379  19.849  0.00  0.00    +0.000 A 
ATOM     10  C   UNL     1      -1.386  11.231  19.226  0.00  0.00    +0.000 A 
ATOM     11  N   UNL     1      -2.638  11.760  19.555  0.00  0.00    +0.000 N 
ENDROOT
BRANCH   7  12
ATOM     12  N   UNL     1       2.018   9.113  17.817  0.00  0.00    +0.000 N 
ATOM     13  C   UNL     1       2.461   7.919  18.341  0.00  0.00    +0.000 C 
ATOM     14  O   UNL     1       1.954   7.319  19.281  0.00  0.00    +0.000 OA
ATOM     15  N   UNL     1       3.606   7.455  17.729  0.00  0.00    +0.000 N 
ATOM     16  H   UNL     1       2.706   9.630  17.287  0.00  0.00    +0.000 HD
ATOM     17  H   UNL     1       3.688   7.631  16.742  0.00  0.00    +0.000 HD
BRANCH  15  18
ATOM     18  C   UNL     1       4.143   6.185  18.209  0.00  0.00    +0.000 C 
BRANCH  18  19
ATOM     19  C   UNL     1       5.097   5.546  17.238  0.00  0.00    +0.000 A 
ATOM     20  C   UNL     1       4.834   4.278  16.699  0.00  0.00    +0.000 A 
ATOM     21  C   UNL     1       5.711   3.704  15.775  0.00  0.00    +0.000 A 
ATOM     22  C   UNL     1       6.860   4.388  15.384  0.00  0.00    +0.000 A 
ATOM     23  C   UNL     1       7.129   5.651  15.906  0.00  0.00    +0.000 A 
ATOM     24  C   UNL     1       6.253   6.226  16.830  0.00  0.00    +0.000 A 
ENDBRANCH  18  19
ENDBRANCH  15  18
ENDBRANCH   7  12
BRANCH  11  25
ATOM     25  C   UNL     1      -2.785  13.079  20.170  0.00  0.00    +0.000 C 
BRANCH  25  26
ATOM     26  C   UNL     1      -3.320  12.981  21.593  0.00  0.00    +0.000 A 
ATOM     27  C   UNL     1      -2.528  12.412  22.603  0.00  0.00    +0.000 A 
ATOM     28  C   UNL     1      -3.057  12.162  23.872  0.00  0.00    +0.000 A 
ATOM     29  C   UNL     1      -4.389  12.469  24.151  0.00  0.00    +0.000 A 
ATOM     30  C   UNL     1      -5.198  13.058  23.169  0.00  0.00    +0.000 A 
ATOM     31  C   UNL     1      -4.648  13.323  21.903  0.00  0.00    +0.000 A 
BRANCH  30  32
ATOM     32  C   UNL     1      -6.650  13.369  23.441  0.00  0.00    +0.000 C 
ATOM     33  F   UNL     1      -7.417  13.412  22.315  0.00  0.00    +0.000 F 
ATOM     34  F   UNL     1      -7.242  12.461  24.263  0.00  0.00    +0.000 F 
ATOM     35  F   UNL     1      -6.813  14.582  24.043  0.00  0.00    +0.000 F 
ENDBRANCH  30  32
ENDBRANCH  25  26
ENDBRANCH  11  25
TORSDOF 6
ENDMDL
