MODEL 1
REMARK VINA RESULT:      -7.5      0.000      0.000
REMARK  Name = 
REMARK  1 active torsions:
REMARK  status: ('A' for Active; 'I' for Inactive)
REMARK    1  A    between atoms: C_13  and  N_14
REMARK                            x       y       z     vdW  Elec       q    Type
REMARK                         _______ _______ _______ _____ _____    ______ ____
ROOT
ATOM      1  O   UNL     1       7.902   5.155  18.943  0.00  0.00    +0.000 OA
ATOM      2  C   UNL     1       6.732   5.153  18.605  0.00  0.00    +0.000 C 
ATOM      3  C   UNL     1       5.477   5.122  19.441  0.00  0.00    +0.000 C 
ATOM      4  N   UNL     1       4.358   4.450  18.508  0.00  0.00    +0.000 NA
ATOM      5  C   UNL     1       3.090   5.294  18.489  0.00  0.00    +0.000 C 
ATOM      6  C   UNL     1       2.369   5.218  19.831  0.00  0.00    +0.000 C 
ATOM      7  C   UNL     1       2.085   3.778  20.239  0.00  0.00    +0.000 C 
ATOM      8  C   UNL     1       3.359   2.943  20.249  0.00  0.00    +0.000 C 
ATOM      9  C   UNL     1       4.103   3.012  18.914  0.00  0.00    +0.000 C 
ATOM     10  C   UNL     1       5.042   4.510  17.176  0.00  0.00    +0.000 A 
ATOM     11  C   UNL     1       4.508   4.129  15.952  0.00  0.00    +0.000 A 
ATOM     12  C   UNL     1       5.303   4.273  14.797  0.00  0.00    +0.000 A 
ATOM     13  C   UNL     1       6.613   4.804  14.880  0.00  0.00    +0.000 A 
ATOM     14  C   UNL     1       7.157   5.162  16.113  0.00  0.00    +0.000 A 
ATOM     15  C   UNL     1       6.349   4.986  17.225  0.00  0.00    +0.000 A 
ENDROOT
BRANCH  13  16
ATOM     16  N   UNL     1       7.419   4.967  13.662  0.00  0.00    +0.000 N 
ATOM     17  O   UNL     1       8.375   5.758  13.720  0.00  0.00    +0.000 OA
ATOM     18  O   UNL     1       7.099   4.309  12.666  0.00  0.00    +0.000 OA
ENDBRANCH  13  16
TORSDOF 1
ENDMDL
MODEL 2
REMARK VINA RESULT:      -7.5      1.789      2.308
REMARK  Name = 
REMARK  1 active torsions:
REMARK  status: ('A' for Active; 'I' for Inactive)
REMARK    1  A    between atoms: C_13  and  N_14
REMARK                            x       y       z     vdW  Elec       q    Type
REMARK                         _______ _______ _______ _____ _____    ______ ____
ROOT
ATOM      1  O   UNL     1       3.665   7.759  17.820  0.00  0.00    +0.000 OA
ATOM      2  C   UNL     1       3.357   6.581  17.815  0.00  0.00    +0.000 C 
ATOM      3  C   UNL     1       2.307   5.847  18.610  0.00  0.00    +0.000 C 
ATOM      4  N   UNL     1       2.825   4.331  18.705  0.00  0.00    +0.000 NA
ATOM      5  C   UNL     1       1.724   3.357  18.302  0.00  0.00    +0.000 C 
ATOM      6  C   UNL     1       0.629   3.309  19.363  0.00  0.00    +0.000 C 
ATOM      7  C   UNL     1       1.192   2.989  20.741  0.00  0.00    +0.000 C 
ATOM      8  C   UNL     1       2.294   3.966  21.130  0.00  0.00    +0.000 C 
ATOM      9  C   UNL     1       3.400   4.036  20.076  0.00  0.00    +0.000 C 
ATOM     10  C   UNL     1       3.907   4.348  17.669  0.00  0.00    +0.000 A 
ATOM     11  C   UNL     1       4.673   3.267  17.252  0.00  0.00    +0.000 A 
ATOM     12  C   UNL     1       5.641   3.476  16.249  0.00  0.00    +0.000 A 
ATOM     13  C   UNL     1       5.823   4.756  15.672  0.00  0.00    +0.000 A 
ATOM     14  C   UNL     1       5.071   5.845  16.110  0.00  0.00    +0.000 A 
ATOM     15  C   UNL     1       4.145   5.601  17.111  0.00  0.00    +0.000 A 
ENDROOT
BRANCH  13  16
ATOM     16  N   UNL     1       6.823   4.949  14.612  0.00  0.00    +0.000 N 
ATOM     17  O   UNL     1       7.785   5.690  14.873  0.00  0.00    +0.000 OA
ATOM     18  O   UNL     1       6.647   4.364  13.538  0.00  0.00    +0.000 OA
ENDBRANCH  13  16
TORSDOF 1
ENDMDL
MODEL 3
REMARK VINA RESULT:      -7.4      0.944      1.024
REMARK  Name = 
REMARK  1 active torsions:
REMARK  status: ('A' for Active; 'I' for Inactive)
REMARK    1  A    between atoms: C_13  and  N_14
REMARK                            x       y       z     vdW  Elec       q    Type
REMARK                         _______ _______ _______ _____ _____    ______ ____
ROOT
ATOM      1  O   UNL     1       6.896   5.341  19.730  0.00  0.00    +0.000 OA
ATOM      2  C   UNL     1       5.776   5.166  19.284  0.00  0.00    +0.000 C 
ATOM      3  C   UNL     1       4.457   5.016  19.998  0.00  0.00    +0.000 C 
ATOM      4  N   UNL     1       3.533   4.152  19.011  0.00  0.00    +0.000 NA
ATOM      5  C   UNL     1       2.177   4.820  18.816  0.00  0.00    +0.000 C 
ATOM      6  C   UNL     1       1.338   4.722  20.087  0.00  0.00    +0.000 C 
ATOM      7  C   UNL     1       1.197   3.281  20.561  0.00  0.00    +0.000 C 
ATOM      8  C   UNL     1       2.558   2.623  20.746  0.00  0.00    +0.000 C 
ATOM      9  C   UNL     1       3.420   2.717  19.486  0.00  0.00    +0.000 C 
ATOM     10  C   UNL     1       4.335   4.230  17.748  0.00  0.00    +0.000 A 
ATOM     11  C   UNL     1       3.981   3.717  16.507  0.00  0.00    +0.000 A 
ATOM     12  C   UNL     1       4.865   3.903  15.425  0.00  0.00    +0.000 A 
ATOM     13  C   UNL     1       6.083   4.605  15.596  0.00  0.00    +0.000 A 
ATOM     14  C   UNL     1       6.448   5.098  16.848  0.00  0.00    +0.000 A 
ATOM     15  C   UNL     1       5.560   4.876  17.888  0.00  0.00    +0.000 A 
ENDROOT
BRANCH  13  16
ATOM     16  N   UNL     1       6.982   4.807  14.450  0.00  0.00    +0.000 N 
ATOM     17  O   UNL     1       7.915   5.611  14.602  0.00  0.00    +0.000 OA
ATOM     18  O   UNL     1       6.755   4.166  13.419  0.00  0.00    +0.000 OA
ENDBRANCH  13  16
TORSDOF 1
ENDMDL
MODEL 4
REMARK VINA RESULT:      -7.2      2.195      3.037
REMARK  Name = 
REMARK  1 active torsions:
REMARK  status: ('A' for Active; 'I' for Inactive)
REMARK    1  A    between atoms: C_13  and  N_14
REMARK                            x       y       z     vdW  Elec       q    Type
REMARK                         _______ _______ _______ _____ _____    ______ ____
ROOT
ATOM      1  O   UNL     1       2.637   7.889  18.107  0.00  0.00    +0.000 OA
ATOM      2  C   UNL     1       2.741   6.676  18.112  0.00  0.00    +0.000 C 
ATOM      3  C   UNL     1       1.790   5.620  18.618  0.00  0.00    +0.000 C 
ATOM      4  N   UNL     1       2.711   4.360  18.991  0.00  0.00    +0.000 NA
ATOM      5  C   UNL     1       2.163   3.084  18.364  0.00  0.00    +0.000 C 
ATOM      6  C   UNL     1       0.869   2.656  19.050  0.00  0.00    +0.000 C 
ATOM      7  C   UNL     1       1.049   2.514  20.556  0.00  0.00    +0.000 C 
ATOM      8  C   UNL     1       1.602   3.793  21.170  0.00  0.00    +0.000 C 
ATOM      9  C   UNL     1       2.896   4.246  20.492  0.00  0.00    +0.000 C 
ATOM     10  C   UNL     1       3.995   4.755  18.328  0.00  0.00    +0.000 A 
ATOM     11  C   UNL     1       5.156   3.997  18.252  0.00  0.00    +0.000 A 
ATOM     12  C   UNL     1       6.266   4.533  17.569  0.00  0.00    +0.000 A 
ATOM     13  C   UNL     1       6.197   5.812  16.965  0.00  0.00    +0.000 A 
ATOM     14  C   UNL     1       5.040   6.582  17.065  0.00  0.00    +0.000 A 
ATOM     15  C   UNL     1       3.978   6.025  17.761  0.00  0.00    +0.000 A 
ENDROOT
BRANCH  13  16
ATOM     16  N   UNL     1       7.359   6.346  16.239  0.00  0.00    +0.000 N 
ATOM     17  O   UNL     1       7.897   7.362  16.707  0.00  0.00    +0.000 OA
ATOM     18  O   UNL     1       7.726   5.751  15.220  0.00  0.00    +0.000 OA
ENDBRANCH  13  16
TORSDOF 1
ENDMDL
MODEL 5
REMARK VINA RESULT:      -7.1      2.499      3.641
REMARK  Name = 
REMARK  1 active torsions:
REMARK  status: ('A' for Active; 'I' for Inactive)
REMARK    1  A    between atoms: C_13  and  N_14
REMARK                            x       y       z     vdW  Elec       q    Type
REMARK                         _______ _______ _______ _____ _____    ______ ____
ROOT
ATOM      1  O   UNL     1       2.391   7.708  17.798  0.00  0.00    +0.000 OA
ATOM      2  C   UNL     1       2.692   6.538  17.953  0.00  0.00    +0.000 C 
ATOM      3  C   UNL     1       1.826   5.344  18.265  0.00  0.00    +0.000 C 
ATOM      4  N   UNL     1       2.790   4.301  19.012  0.00  0.00    +0.000 NA
ATOM      5  C   UNL     1       2.682   2.917  18.383  0.00  0.00    +0.000 C 
ATOM      6  C   UNL     1       1.333   2.280  18.704  0.00  0.00    +0.000 C 
ATOM      7  C   UNL     1       1.071   2.242  20.204  0.00  0.00    +0.000 C 
ATOM      8  C   UNL     1       1.187   3.629  20.823  0.00  0.00    +0.000 C 
ATOM      9  C   UNL     1       2.529   4.291  20.506  0.00  0.00    +0.000 C 
ATOM     10  C   UNL     1       4.129   4.904  18.713  0.00  0.00    +0.000 A 
ATOM     11  C   UNL     1       5.369   4.379  19.051  0.00  0.00    +0.000 A 
ATOM     12  C   UNL     1       6.526   5.088  18.669  0.00  0.00    +0.000 A 
ATOM     13  C   UNL     1       6.427   6.302  17.947  0.00  0.00    +0.000 A 
ATOM     14  C   UNL     1       5.181   6.840  17.630  0.00  0.00    +0.000 A 
ATOM     15  C   UNL     1       4.069   6.122  18.042  0.00  0.00    +0.000 A 
ENDROOT
BRANCH  13  16
ATOM     16  N   UNL     1       7.646   7.015  17.539  0.00  0.00    +0.000 N 
ATOM     17  O   UNL     1       7.980   6.923  16.346  0.00  0.00    +0.000 OA
ATOM     18  O   UNL     1       8.254   7.659  18.400  0.00  0.00    +0.000 OA
ENDBRANCH  13  16
TORSDOF 1
ENDMDL
MODEL 6
REMARK VINA RESULT:      -6.7      3.123      6.140
REMARK  Name = 
REMARK  1 active torsions:
REMARK  status: ('A' for Active; 'I' for Inactive)
REMARK    1  A    between atoms: C_13  and  N_14
REMARK                            x       y       z     vdW  Elec       q    Type
REMARK                         _______ _______ _______ _____ _____    ______ ____
ROOT
ATOM      1  O   UNL     1       2.647   7.162  18.181  0.00  0.00    +0.000 OA
ATOM      2  C   UNL     1       3.564   6.369  18.064  0.00  0.00    +0.000 C 
ATOM      3  C   UNL     1       4.762   6.397  17.150  0.00  0.00    +0.000 C 
ATOM      4  N   UNL     1       5.182   4.861  16.949  0.00  0.00    +0.000 NA
ATOM      5  C   UNL     1       6.672   4.670  17.203  0.00  0.00    +0.000 C 
ATOM      6  C   UNL     1       7.497   5.298  16.084  0.00  0.00    +0.000 C 
ATOM      7  C   UNL     1       7.083   4.773  14.715  0.00  0.00    +0.000 C 
ATOM      8  C   UNL     1       5.592   4.965  14.475  0.00  0.00    +0.000 C 
ATOM      9  C   UNL     1       4.745   4.350  15.591  0.00  0.00    +0.000 C 
ATOM     10  C   UNL     1       4.383   4.216  18.040  0.00  0.00    +0.000 A 
ATOM     11  C   UNL     1       4.403   2.875  18.401  0.00  0.00    +0.000 A 
ATOM     12  C   UNL     1       3.587   2.453  19.470  0.00  0.00    +0.000 A 
ATOM     13  C   UNL     1       2.772   3.377  20.168  0.00  0.00    +0.000 A 
ATOM     14  C   UNL     1       2.733   4.718  19.788  0.00  0.00    +0.000 A 
ATOM     15  C   UNL     1       3.536   5.086  18.720  0.00  0.00    +0.000 A 
ENDROOT
BRANCH  13  16
ATOM     16  N   UNL     1       1.944   2.922  21.294  0.00  0.00    +0.000 N 
ATOM     17  O   UNL     1       0.715   2.901  21.117  0.00  0.00    +0.000 OA
ATOM     18  O   UNL     1       2.518   2.589  22.336  0.00  0.00    +0.000 OA
ENDBRANCH  13  16
TORSDOF 1
ENDMDL
MODEL 7
REMARK VINA RESULT:      -6.7      2.030      3.261
REMARK  Name = 
REMARK  1 active torsions:
REMARK  status: ('A' for Active; 'I' for Inactive)
REMARK    1  A    between atoms: C_13  and  N_14
REMARK                            x       y       z     vdW  Elec       q    Type
REMARK                         _______ _______ _______ _____ _____    ______ ____
ROOT
ATOM      1  O   UNL     1       2.602   3.218  15.905  0.00  0.00    +0.000 OA
ATOM      2  C   UNL     1       3.051   3.237  17.037  0.00  0.00    +0.000 C 
ATOM      3  C   UNL     1       2.471   2.702  18.322  0.00  0.00    +0.000 C 
ATOM      4  N   UNL     1       3.118   3.595  19.488  0.00  0.00    +0.000 NA
ATOM      5  C   UNL     1       3.697   2.714  20.588  0.00  0.00    +0.000 C 
ATOM      6  C   UNL     1       2.583   2.040  21.384  0.00  0.00    +0.000 C 
ATOM      7  C   UNL     1       1.590   3.056  21.935  0.00  0.00    +0.000 C 
ATOM      8  C   UNL     1       1.023   3.933  20.827  0.00  0.00    +0.000 C 
ATOM      9  C   UNL     1       2.123   4.613  20.010  0.00  0.00    +0.000 C 
ATOM     10  C   UNL     1       4.220   4.273  18.731  0.00  0.00    +0.000 A 
ATOM     11  C   UNL     1       5.182   5.128  19.255  0.00  0.00    +0.000 A 
ATOM     12  C   UNL     1       6.154   5.660  18.384  0.00  0.00    +0.000 A 
ATOM     13  C   UNL     1       6.157   5.324  17.008  0.00  0.00    +0.000 A 
ATOM     14  C   UNL     1       5.176   4.486  16.480  0.00  0.00    +0.000 A 
ATOM     15  C   UNL     1       4.228   4.000  17.367  0.00  0.00    +0.000 A 
ENDROOT
BRANCH  13  16
ATOM     16  N   UNL     1       7.192   5.873  16.121  0.00  0.00    +0.000 N 
ATOM     17  O   UNL     1       7.733   6.933  16.475  0.00  0.00    +0.000 OA
ATOM     18  O   UNL     1       7.458   5.248  15.088  0.00  0.00    +0.000 OA
ENDBRANCH  13  16
TORSDOF 1
ENDMDL
MODEL 8
REMARK VINA RESULT:      -6.6      1.503      1.781
REMARK  Name = 
REMARK  1 active torsions:
REMARK  status: ('A' for Active; 'I' for Inactive)
REMARK    1  A    between atoms: C_13  and  N_14
REMARK                            x       y       z     vdW  Elec       q    Type
REMARK                         _______ _______ _______ _____ _____    ______ ____
ROOT
ATOM      1  O   UNL     1       5.429   7.516  17.562  0.00  0.00    +0.000 OA
ATOM      2  C   UNL     1       4.838   6.480  17.313  0.00  0.00    +0.000 C 
ATOM      3  C   UNL     1       3.708   5.804  18.047  0.00  0.00    +0.000 C 
ATOM      4  N   UNL     1       3.839   4.245  17.690  0.00  0.00    +0.000 NA
ATOM      5  C   UNL     1       2.502   3.682  17.224  0.00  0.00    +0.000 C 
ATOM      6  C   UNL     1       1.520   3.587  18.388  0.00  0.00    +0.000 C 
ATOM      7  C   UNL     1       2.097   2.788  19.549  0.00  0.00    +0.000 C 
ATOM      8  C   UNL     1       3.435   3.357  20.003  0.00  0.00    +0.000 C 
ATOM      9  C   UNL     1       4.434   3.469  18.849  0.00  0.00    +0.000 C 
ATOM     10  C   UNL     1       4.804   4.308  16.545  0.00  0.00    +0.000 A 
ATOM     11  C   UNL     1       5.240   3.242  15.769  0.00  0.00    +0.000 A 
ATOM     12  C   UNL     1       6.144   3.500  14.719  0.00  0.00    +0.000 A 
ATOM     13  C   UNL     1       6.590   4.818  14.454  0.00  0.00    +0.000 A 
ATOM     14  C   UNL     1       6.171   5.882  15.250  0.00  0.00    +0.000 A 
ATOM     15  C   UNL     1       5.298   5.582  16.284  0.00  0.00    +0.000 A 
ENDROOT
BRANCH  13  16
ATOM     16  N   UNL     1       7.517   5.069  13.341  0.00  0.00    +0.000 N 
ATOM     17  O   UNL     1       7.284   4.483  12.271  0.00  0.00    +0.000 OA
ATOM     18  O   UNL     1       8.458   5.845  13.537  0.00  0.00    +0.000 OA
ENDBRANCH  13  16
TORSDOF 1
ENDMDL
MODEL 9
REMARK VINA RESULT:      -6.2      2.857      5.886
REMARK  Name = 
REMARK  1 active torsions:
REMARK  status: ('A' for Active; 'I' for Inactive)
REMARK    1  A    between atoms: C_13  and  N_14
REMARK                            x       y       z     vdW  Elec       q    Type
REMARK                         _______ _______ _______ _____ _____    ______ ____
ROOT
ATOM      1  O   UNL     1       6.693   5.182  20.022  0.00  0.00    +0.000 OA
ATOM      2  C   UNL     1       6.195   4.683  19.029  0.00  0.00    +0.000 C 
ATOM      3  C   UNL     1       6.658   4.701  17.594  0.00  0.00    +0.000 C 
ATOM      4  N   UNL     1       5.328   4.522  16.714  0.00  0.00    +0.000 NA
ATOM      5  C   UNL     1       5.509   3.419  15.678  0.00  0.00    +0.000 C 
ATOM      6  C   UNL     1       6.473   3.860  14.581  0.00  0.00    +0.000 C 
ATOM      7  C   UNL     1       6.037   5.172  13.941  0.00  0.00    +0.000 C 
ATOM      8  C   UNL     1       5.855   6.265  14.986  0.00  0.00    +0.000 C 
ATOM      9  C   UNL     1       4.898   5.841  16.102  0.00  0.00    +0.000 C 
ATOM     10  C   UNL     1       4.358   4.088  17.771  0.00  0.00    +0.000 A 
ATOM     11  C   UNL     1       3.036   3.709  17.578  0.00  0.00    +0.000 A 
ATOM     12  C   UNL     1       2.279   3.315  18.700  0.00  0.00    +0.000 A 
ATOM     13  C   UNL     1       2.855   3.296  19.993  0.00  0.00    +0.000 A 
ATOM     14  C   UNL     1       4.174   3.701  20.188  0.00  0.00    +0.000 A 
ATOM     15  C   UNL     1       4.877   4.099  19.062  0.00  0.00    +0.000 A 
ENDROOT
BRANCH  13  16
ATOM     16  N   UNL     1       2.055   2.862  21.147  0.00  0.00    +0.000 N 
ATOM     17  O   UNL     1       0.820   2.887  21.018  0.00  0.00    +0.000 OA
ATOM     18  O   UNL     1       2.657   2.499  22.164  0.00  0.00    +0.000 OA
ENDBRANCH  13  16
TORSDOF 1
ENDMDL
