MODEL 1
REMARK VINA RESULT:      -8.7      0.000      0.000
REMARK  Name = 
REMARK  8 active torsions:
REMARK  status: ('A' for Active; 'I' for Inactive)
REMARK    1  A    between atoms: C_2  and  O_3
REMARK    2  A    between atoms: C_2  and  C_4
REMARK    3  A    between atoms: C_4  and  C_5
REMARK    4  A    between atoms: C_5  and  C_6
REMARK    5  A    between atoms: C_6  and  C_7
REMARK    6  A    between atoms: C_7  and  C_8
REMARK    7  A    between atoms: C_9  and  C_10
REMARK    8  A    between atoms: C_9  and  C_16
REMARK                            x       y       z     vdW  Elec       q    Type
REMARK                         _______ _______ _______ _____ _____    ______ ____
ROOT
ATOM      1  C   UNL     1       3.117   4.679  17.801  0.00  0.00    +0.000 C 
ATOM      2  C   UNL     1       3.673   5.847  18.195  0.00  0.00    +0.000 C 
ENDROOT
BRANCH   2   3
ATOM      3  C   UNL     1       2.815   7.001  18.541  0.00  0.00    +0.000 A 
ATOM      4  C   UNL     1       2.505   7.966  17.580  0.00  0.00    +0.000 A 
ATOM      5  C   UNL     1       1.701   9.060  17.915  0.00  0.00    +0.000 A 
ATOM      6  C   UNL     1       1.186   9.200  19.213  0.00  0.00    +0.000 A 
ATOM      7  C   UNL     1       0.376  10.292  19.566  0.00  0.00    +0.000 A 
ATOM      8  C   UNL     1      -0.144  10.407  20.857  0.00  0.00    +0.000 A 
ATOM      9  C   UNL     1       0.141   9.433  21.811  0.00  0.00    +0.000 A 
ATOM     10  C   UNL     1       0.953   8.349  21.479  0.00  0.00    +0.000 A 
ATOM     11  C   UNL     1       1.484   8.218  20.185  0.00  0.00    +0.000 A 
ATOM     12  C   UNL     1       2.304   7.132  19.838  0.00  0.00    +0.000 A 
ENDBRANCH   2   3
BRANCH   2  13
ATOM     13  C   UNL     1       5.146   5.923  18.268  0.00  0.00    +0.000 A 
ATOM     14  C   UNL     1       5.881   6.685  17.358  0.00  0.00    +0.000 A 
ATOM     15  C   UNL     1       7.267   6.767  17.491  0.00  0.00    +0.000 A 
ATOM     16  C   UNL     1       7.871   6.077  18.530  0.00  0.00    +0.000 A 
ATOM     17  N   UNL     1       7.196   5.323  19.423  0.00  0.00    +0.000 NA
ATOM     18  C   UNL     1       5.850   5.269  19.274  0.00  0.00    +0.000 A 
ENDBRANCH   2  13
BRANCH   1  19
ATOM     19  C   UNL     1       1.633   4.427  17.683  0.00  0.00    +0.000 C 
BRANCH  19  20
ATOM     20  C   UNL     1       1.053   3.583  18.826  0.00  0.00    +0.000 C 
BRANCH  20  21
ATOM     21  C   UNL     1       1.965   2.383  19.105  0.00  0.00    +0.000 C 
BRANCH  21  22
ATOM     22  C   UNL     1       2.934   2.632  20.259  0.00  0.00    +0.000 C 
BRANCH  22  24
ATOM     23  O   UNL     1       1.453   2.520  22.186  0.00  0.00    +0.000 OA
ATOM     24  C   UNL     1       2.212   3.161  21.480  0.00  0.00    +0.000 C 
BRANCH  24  25
ATOM     25  O   UNL     1       2.500   4.460  21.726  0.00  0.00    +0.000 OA
ATOM     26  H   UNL     1       2.266   4.751  22.627  0.00  0.00    +0.000 HD
ENDBRANCH  24  25
ENDBRANCH  22  24
ENDBRANCH  21  22
ENDBRANCH  20  21
ENDBRANCH  19  20
ENDBRANCH   1  19
TORSDOF 8
ENDMDL
MODEL 2
REMARK VINA RESULT:      -8.5      0.847      1.689
REMARK  Name = 
REMARK  8 active torsions:
REMARK  status: ('A' for Active; 'I' for Inactive)
REMARK    1  A    between atoms: C_2  and  O_3
REMARK    2  A    between atoms: C_2  and  C_4
REMARK    3  A    between atoms: C_4  and  C_5
REMARK    4  A    between atoms: C_5  and  C_6
REMARK    5  A    between atoms: C_6  and  C_7
REMARK    6  A    between atoms: C_7  and  C_8
REMARK    7  A    between atoms: C_9  and  C_10
REMARK    8  A    between atoms: C_9  and  C_16
REMARK                            x       y       z     vdW  Elec       q    Type
REMARK                         _______ _______ _______ _____ _____    ______ ____
ROOT
ATOM      1  C   UNL     1       3.142   4.677  17.622  0.00  0.00    +0.000 C 
ATOM      2  C   UNL     1       3.677   5.742  18.261  0.00  0.00    +0.000 C 
ENDROOT
BRANCH   2   3
ATOM      3  C   UNL     1       2.798   6.740  18.908  0.00  0.00    +0.000 A 
ATOM      4  C   UNL     1       2.365   6.557  20.224  0.00  0.00    +0.000 A 
ATOM      5  C   UNL     1       1.527   7.499  20.827  0.00  0.00    +0.000 A 
ATOM      6  C   UNL     1       1.117   8.645  20.128  0.00  0.00    +0.000 A 
ATOM      7  C   UNL     1       0.276   9.602  20.720  0.00  0.00    +0.000 A 
ATOM      8  C   UNL     1      -0.108  10.746  20.016  0.00  0.00    +0.000 A 
ATOM      9  C   UNL     1       0.342  10.946  18.714  0.00  0.00    +0.000 A 
ATOM     10  C   UNL     1       1.169   9.999  18.109  0.00  0.00    +0.000 A 
ATOM     11  C   UNL     1       1.564   8.843  18.802  0.00  0.00    +0.000 A 
ATOM     12  C   UNL     1       2.395   7.882  18.204  0.00  0.00    +0.000 A 
ENDBRANCH   2   3
BRANCH   2  13
ATOM     13  C   UNL     1       5.148   5.866  18.289  0.00  0.00    +0.000 A 
ATOM     14  C   UNL     1       5.828   6.670  17.373  0.00  0.00    +0.000 A 
ATOM     15  C   UNL     1       7.214   6.795  17.464  0.00  0.00    +0.000 A 
ATOM     16  C   UNL     1       7.873   6.106  18.470  0.00  0.00    +0.000 A 
ATOM     17  N   UNL     1       7.252   5.312  19.368  0.00  0.00    +0.000 NA
ATOM     18  C   UNL     1       5.905   5.216  19.259  0.00  0.00    +0.000 A 
ENDBRANCH   2  13
BRANCH   1  19
ATOM     19  C   UNL     1       1.664   4.393  17.508  0.00  0.00    +0.000 C 
BRANCH  19  20
ATOM     20  C   UNL     1       1.223   3.101  18.209  0.00  0.00    +0.000 C 
BRANCH  20  21
ATOM     21  C   UNL     1       0.734   3.417  19.627  0.00  0.00    +0.000 C 
BRANCH  21  22
ATOM     22  C   UNL     1       1.225   2.406  20.661  0.00  0.00    +0.000 C 
BRANCH  22  24
ATOM     23  O   UNL     1       3.642   2.684  20.695  0.00  0.00    +0.000 OA
ATOM     24  C   UNL     1       2.561   2.818  21.242  0.00  0.00    +0.000 C 
BRANCH  24  25
ATOM     25  O   UNL     1       2.440   3.371  22.471  0.00  0.00    +0.000 OA
ATOM     26  H   UNL     1       2.245   4.326  22.455  0.00  0.00    +0.000 HD
ENDBRANCH  24  25
ENDBRANCH  22  24
ENDBRANCH  21  22
ENDBRANCH  20  21
ENDBRANCH  19  20
ENDBRANCH   1  19
TORSDOF 8
ENDMDL
MODEL 3
REMARK VINA RESULT:      -8.4      0.858      1.168
REMARK  Name = 
REMARK  8 active torsions:
REMARK  status: ('A' for Active; 'I' for Inactive)
REMARK    1  A    between atoms: C_2  and  O_3
REMARK    2  A    between atoms: C_2  and  C_4
REMARK    3  A    between atoms: C_4  and  C_5
REMARK    4  A    between atoms: C_5  and  C_6
REMARK    5  A    between atoms: C_6  and  C_7
REMARK    6  A    between atoms: C_7  and  C_8
REMARK    7  A    between atoms: C_9  and  C_10
REMARK    8  A    between atoms: C_9  and  C_16
REMARK                            x       y       z     vdW  Elec       q    Type
REMARK                         _______ _______ _______ _____ _____    ______ ____
ROOT
ATOM      1  C   UNL     1       3.026   4.834  17.922  0.00  0.00    +0.000 C 
ATOM      2  C   UNL     1       3.560   6.044  18.200  0.00  0.00    +0.000 C 
ENDROOT
BRANCH   2   3
ATOM      3  C   UNL     1       2.685   7.176  18.575  0.00  0.00    +0.000 A 
ATOM      4  C   UNL     1       2.290   8.114  17.618  0.00  0.00    +0.000 A 
ATOM      5  C   UNL     1       1.471   9.187  17.981  0.00  0.00    +0.000 A 
ATOM      6  C   UNL     1       1.024   9.333  19.303  0.00  0.00    +0.000 A 
ATOM      7  C   UNL     1       0.200  10.405  19.684  0.00  0.00    +0.000 A 
ATOM      8  C   UNL     1      -0.250  10.526  21.000  0.00  0.00    +0.000 A 
ATOM      9  C   UNL     1       0.119   9.579  21.951  0.00  0.00    +0.000 A 
ATOM     10  C   UNL     1       0.947   8.515  21.591  0.00  0.00    +0.000 A 
ATOM     11  C   UNL     1       1.409   8.379  20.272  0.00  0.00    +0.000 A 
ATOM     12  C   UNL     1       2.243   7.313  19.897  0.00  0.00    +0.000 A 
ENDBRANCH   2   3
BRANCH   2  13
ATOM     13  C   UNL     1       5.027   6.189  18.118  0.00  0.00    +0.000 A 
ATOM     14  C   UNL     1       5.873   5.573  19.042  0.00  0.00    +0.000 A 
ATOM     15  C   UNL     1       7.255   5.698  18.899  0.00  0.00    +0.000 A 
ATOM     16  C   UNL     1       7.743   6.441  17.837  0.00  0.00    +0.000 A 
ATOM     17  N   UNL     1       6.958   7.059  16.929  0.00  0.00    +0.000 NA
ATOM     18  C   UNL     1       5.620   6.913  17.088  0.00  0.00    +0.000 A 
ENDBRANCH   2  13
BRANCH   1  19
ATOM     19  C   UNL     1       1.552   4.511  17.969  0.00  0.00    +0.000 C 
BRANCH  19  20
ATOM     20  C   UNL     1       1.246   3.008  18.037  0.00  0.00    +0.000 C 
BRANCH  20  21
ATOM     21  C   UNL     1       1.051   2.580  19.496  0.00  0.00    +0.000 C 
BRANCH  21  22
ATOM     22  C   UNL     1       0.993   3.766  20.458  0.00  0.00    +0.000 C 
BRANCH  22  24
ATOM     23  O   UNL     1       2.426   2.699  22.109  0.00  0.00    +0.000 OA
ATOM     24  C   UNL     1       2.101   3.695  21.487  0.00  0.00    +0.000 C 
BRANCH  24  25
ATOM     25  O   UNL     1       2.722   4.885  21.657  0.00  0.00    +0.000 OA
ATOM     26  H   UNL     1       2.184   5.653  21.387  0.00  0.00    +0.000 HD
ENDBRANCH  24  25
ENDBRANCH  22  24
ENDBRANCH  21  22
ENDBRANCH  20  21
ENDBRANCH  19  20
ENDBRANCH   1  19
TORSDOF 8
ENDMDL
MODEL 4
REMARK VINA RESULT:      -8.4      1.368      2.038
REMARK  Name = 
REMARK  8 active torsions:
REMARK  status: ('A' for Active; 'I' for Inactive)
REMARK    1  A    between atoms: C_2  and  O_3
REMARK    2  A    between atoms: C_2  and  C_4
REMARK    3  A    between atoms: C_4  and  C_5
REMARK    4  A    between atoms: C_5  and  C_6
REMARK    5  A    between atoms: C_6  and  C_7
REMARK    6  A    between atoms: C_7  and  C_8
REMARK    7  A    between atoms: C_9  and  C_10
REMARK    8  A    between atoms: C_9  and  C_16
REMARK                            x       y       z     vdW  Elec       q    Type
REMARK                         _______ _______ _______ _____ _____    ______ ____
ROOT
ATOM      1  C   UNL     1       3.037   4.700  17.620  0.00  0.00    +0.000 C 
ATOM      2  C   UNL     1       3.593   5.757  18.255  0.00  0.00    +0.000 C 
ENDROOT
BRANCH   2   3
ATOM      3  C   UNL     1       2.734   6.768  18.909  0.00  0.00    +0.000 A 
ATOM      4  C   UNL     1       2.298   6.585  20.224  0.00  0.00    +0.000 A 
ATOM      5  C   UNL     1       1.479   7.540  20.833  0.00  0.00    +0.000 A 
ATOM      6  C   UNL     1       1.091   8.698  20.141  0.00  0.00    +0.000 A 
ATOM      7  C   UNL     1       0.268   9.667  20.740  0.00  0.00    +0.000 A 
ATOM      8  C   UNL     1      -0.094  10.823  20.043  0.00  0.00    +0.000 A 
ATOM      9  C   UNL     1       0.360  11.022  18.743  0.00  0.00    +0.000 A 
ATOM     10  C   UNL     1       1.168  10.063  18.131  0.00  0.00    +0.000 A 
ATOM     11  C   UNL     1       1.541   8.895  18.816  0.00  0.00    +0.000 A 
ATOM     12  C   UNL     1       2.352   7.922  18.212  0.00  0.00    +0.000 A 
ENDBRANCH   2   3
BRANCH   2  13
ATOM     13  C   UNL     1       5.065   5.860  18.271  0.00  0.00    +0.000 A 
ATOM     14  C   UNL     1       5.753   6.622  17.325  0.00  0.00    +0.000 A 
ATOM     15  C   UNL     1       7.141   6.730  17.405  0.00  0.00    +0.000 A 
ATOM     16  C   UNL     1       7.795   6.064  18.429  0.00  0.00    +0.000 A 
ATOM     17  N   UNL     1       7.168   5.311  19.357  0.00  0.00    +0.000 NA
ATOM     18  C   UNL     1       5.818   5.231  19.258  0.00  0.00    +0.000 A 
ENDBRANCH   2  13
BRANCH   1  19
ATOM     19  C   UNL     1       1.554   4.438  17.518  0.00  0.00    +0.000 C 
BRANCH  19  20
ATOM     20  C   UNL     1       1.002   3.544  18.637  0.00  0.00    +0.000 C 
BRANCH  20  21
ATOM     21  C   UNL     1       1.878   2.296  18.789  0.00  0.00    +0.000 C 
BRANCH  21  22
ATOM     22  C   UNL     1       2.744   2.330  20.048  0.00  0.00    +0.000 C 
BRANCH  22  24
ATOM     23  O   UNL     1       5.106   1.989  20.521  0.00  0.00    +0.000 OA
ATOM     24  C   UNL     1       4.165   1.902  19.750  0.00  0.00    +0.000 C 
BRANCH  24  25
ATOM     25  O   UNL     1       4.300   1.393  18.504  0.00  0.00    +0.000 OA
ATOM     26  H   UNL     1       3.502   1.487  17.952  0.00  0.00    +0.000 HD
ENDBRANCH  24  25
ENDBRANCH  22  24
ENDBRANCH  21  22
ENDBRANCH  20  21
ENDBRANCH  19  20
ENDBRANCH   1  19
TORSDOF 8
ENDMDL
MODEL 5
REMARK VINA RESULT:      -8.4      0.973      1.194
REMARK  Name = 
REMARK  8 active torsions:
REMARK  status: ('A' for Active; 'I' for Inactive)
REMARK    1  A    between atoms: C_2  and  O_3
REMARK    2  A    between atoms: C_2  and  C_4
REMARK    3  A    between atoms: C_4  and  C_5
REMARK    4  A    between atoms: C_5  and  C_6
REMARK    5  A    between atoms: C_6  and  C_7
REMARK    6  A    between atoms: C_7  and  C_8
REMARK    7  A    between atoms: C_9  and  C_10
REMARK    8  A    between atoms: C_9  and  C_16
REMARK                            x       y       z     vdW  Elec       q    Type
REMARK                         _______ _______ _______ _____ _____    ______ ____
ROOT
ATOM      1  C   UNL     1       3.013   4.077  17.816  0.00  0.00    +0.000 C 
ATOM      2  C   UNL     1       3.718   5.193  18.108  0.00  0.00    +0.000 C 
ENDROOT
BRANCH   2   3
ATOM      3  C   UNL     1       3.016   6.461  18.404  0.00  0.00    +0.000 A 
ATOM      4  C   UNL     1       2.901   7.452  17.426  0.00  0.00    +0.000 A 
ATOM      5  C   UNL     1       2.245   8.652  17.714  0.00  0.00    +0.000 A 
ATOM      6  C   UNL     1       1.684   8.877  18.982  0.00  0.00    +0.000 A 
ATOM      7  C   UNL     1       1.022  10.077  19.287  0.00  0.00    +0.000 A 
ATOM      8  C   UNL     1       0.453  10.276  20.547  0.00  0.00    +0.000 A 
ATOM      9  C   UNL     1       0.542   9.281  21.516  0.00  0.00    +0.000 A 
ATOM     10  C   UNL     1       1.208   8.088  21.231  0.00  0.00    +0.000 A 
ATOM     11  C   UNL     1       1.785   7.871  19.970  0.00  0.00    +0.000 A 
ATOM     12  C   UNL     1       2.458   6.676  19.670  0.00  0.00    +0.000 A 
ENDBRANCH   2   3
BRANCH   2  13
ATOM     13  C   UNL     1       5.191   5.097  18.122  0.00  0.00    +0.000 A 
ATOM     14  C   UNL     1       5.914   4.828  16.959  0.00  0.00    +0.000 A 
ATOM     15  C   UNL     1       7.307   4.793  17.007  0.00  0.00    +0.000 A 
ATOM     16  C   UNL     1       7.930   5.024  18.223  0.00  0.00    +0.000 A 
ATOM     17  N   UNL     1       7.266   5.278  19.371  0.00  0.00    +0.000 NA
ATOM     18  C   UNL     1       5.914   5.314  19.291  0.00  0.00    +0.000 A 
ENDBRANCH   2  13
BRANCH   1  19
ATOM     19  C   UNL     1       1.506   3.997  17.769  0.00  0.00    +0.000 C 
BRANCH  19  20
ATOM     20  C   UNL     1       0.917   2.860  18.615  0.00  0.00    +0.000 C 
BRANCH  20  21
ATOM     21  C   UNL     1       0.333   3.423  19.915  0.00  0.00    +0.000 C 
BRANCH  21  22
ATOM     22  C   UNL     1       1.406   3.936  20.873  0.00  0.00    +0.000 C 
BRANCH  22  24
ATOM     23  O   UNL     1       3.368   2.506  21.025  0.00  0.00    +0.000 OA
ATOM     24  C   UNL     1       2.251   2.802  21.412  0.00  0.00    +0.000 C 
BRANCH  24  25
ATOM     25  O   UNL     1       1.629   2.122  22.403  0.00  0.00    +0.000 OA
ATOM     26  H   UNL     1       1.016   1.433  22.083  0.00  0.00    +0.000 HD
ENDBRANCH  24  25
ENDBRANCH  22  24
ENDBRANCH  21  22
ENDBRANCH  20  21
ENDBRANCH  19  20
ENDBRANCH   1  19
TORSDOF 8
ENDMDL
MODEL 6
REMARK VINA RESULT:      -8.3      1.082      1.287
REMARK  Name = 
REMARK  8 active torsions:
REMARK  status: ('A' for Active; 'I' for Inactive)
REMARK    1  A    between atoms: C_2  and  O_3
REMARK    2  A    between atoms: C_2  and  C_4
REMARK    3  A    between atoms: C_4  and  C_5
REMARK    4  A    between atoms: C_5  and  C_6
REMARK    5  A    between atoms: C_6  and  C_7
REMARK    6  A    between atoms: C_7  and  C_8
REMARK    7  A    between atoms: C_9  and  C_10
REMARK    8  A    between atoms: C_9  and  C_16
REMARK                            x       y       z     vdW  Elec       q    Type
REMARK                         _______ _______ _______ _____ _____    ______ ____
ROOT
ATOM      1  C   UNL     1       3.171   4.137  17.745  0.00  0.00    +0.000 C 
ATOM      2  C   UNL     1       3.836   5.267  18.077  0.00  0.00    +0.000 C 
ENDROOT
BRANCH   2   3
ATOM      3  C   UNL     1       3.090   6.506  18.385  0.00  0.00    +0.000 A 
ATOM      4  C   UNL     1       2.958   7.512  17.425  0.00  0.00    +0.000 A 
ATOM      5  C   UNL     1       2.260   8.685  17.726  0.00  0.00    +0.000 A 
ATOM      6  C   UNL     1       1.672   8.867  18.988  0.00  0.00    +0.000 A 
ATOM      7  C   UNL     1       0.967  10.039  19.306  0.00  0.00    +0.000 A 
ATOM      8  C   UNL     1       0.373  10.196  20.560  0.00  0.00    +0.000 A 
ATOM      9  C   UNL     1       0.479   9.184  21.511  0.00  0.00    +0.000 A 
ATOM     10  C   UNL     1       1.187   8.019  21.214  0.00  0.00    +0.000 A 
ATOM     11  C   UNL     1       1.790   7.846  19.958  0.00  0.00    +0.000 A 
ATOM     12  C   UNL     1       2.506   6.678  19.646  0.00  0.00    +0.000 A 
ENDBRANCH   2   3
BRANCH   2  13
ATOM     13  C   UNL     1       5.311   5.216  18.119  0.00  0.00    +0.000 A 
ATOM     14  C   UNL     1       6.021   5.618  19.251  0.00  0.00    +0.000 A 
ATOM     15  C   UNL     1       7.411   5.509  19.266  0.00  0.00    +0.000 A 
ATOM     16  C   UNL     1       8.044   5.006  18.140  0.00  0.00    +0.000 A 
ATOM     17  N   UNL     1       7.394   4.616  17.024  0.00  0.00    +0.000 NA
ATOM     18  C   UNL     1       6.043   4.725  17.042  0.00  0.00    +0.000 A 
ENDBRANCH   2  13
BRANCH   1  19
ATOM     19  C   UNL     1       1.669   4.013  17.665  0.00  0.00    +0.000 C 
BRANCH  19  20
ATOM     20  C   UNL     1       1.096   2.857  18.496  0.00  0.00    +0.000 C 
BRANCH  20  21
ATOM     21  C   UNL     1       0.396   3.406  19.744  0.00  0.00    +0.000 C 
BRANCH  21  22
ATOM     22  C   UNL     1       1.378   3.926  20.792  0.00  0.00    +0.000 C 
BRANCH  22  24
ATOM     23  O   UNL     1       1.498   2.144  22.444  0.00  0.00    +0.000 OA
ATOM     24  C   UNL     1       2.025   2.789  21.554  0.00  0.00    +0.000 C 
BRANCH  24  25
ATOM     25  O   UNL     1       3.288   2.543  21.138  0.00  0.00    +0.000 OA
ATOM     26  H   UNL     1       3.902   2.310  21.860  0.00  0.00    +0.000 HD
ENDBRANCH  24  25
ENDBRANCH  22  24
ENDBRANCH  21  22
ENDBRANCH  20  21
ENDBRANCH  19  20
ENDBRANCH   1  19
TORSDOF 8
ENDMDL
MODEL 7
REMARK VINA RESULT:      -8.3      1.037      1.922
REMARK  Name = 
REMARK  8 active torsions:
REMARK  status: ('A' for Active; 'I' for Inactive)
REMARK    1  A    between atoms: C_2  and  O_3
REMARK    2  A    between atoms: C_2  and  C_4
REMARK    3  A    between atoms: C_4  and  C_5
REMARK    4  A    between atoms: C_5  and  C_6
REMARK    5  A    between atoms: C_6  and  C_7
REMARK    6  A    between atoms: C_7  and  C_8
REMARK    7  A    between atoms: C_9  and  C_10
REMARK    8  A    between atoms: C_9  and  C_16
REMARK                            x       y       z     vdW  Elec       q    Type
REMARK                         _______ _______ _______ _____ _____    ______ ____
ROOT
ATOM      1  C   UNL     1       3.215   4.725  17.712  0.00  0.00    +0.000 C 
ATOM      2  C   UNL     1       3.692   5.877  18.237  0.00  0.00    +0.000 C 
ENDROOT
BRANCH   2   3
ATOM      3  C   UNL     1       2.774   6.832  18.893  0.00  0.00    +0.000 A 
ATOM      4  C   UNL     1       2.393   6.649  20.225  0.00  0.00    +0.000 A 
ATOM      5  C   UNL     1       1.517   7.550  20.837  0.00  0.00    +0.000 A 
ATOM      6  C   UNL     1       1.017   8.655  20.132  0.00  0.00    +0.000 A 
ATOM      7  C   UNL     1       0.137   9.570  20.732  0.00  0.00    +0.000 A 
ATOM      8  C   UNL     1      -0.338  10.675  20.021  0.00  0.00    +0.000 A 
ATOM      9  C   UNL     1       0.060  10.877  18.703  0.00  0.00    +0.000 A 
ATOM     10  C   UNL     1       0.924   9.970  18.089  0.00  0.00    +0.000 A 
ATOM     11  C   UNL     1       1.410   8.854  18.789  0.00  0.00    +0.000 A 
ATOM     12  C   UNL     1       2.280   7.933  18.182  0.00  0.00    +0.000 A 
ENDBRANCH   2   3
BRANCH   2  13
ATOM     13  C   UNL     1       5.142   6.138  18.132  0.00  0.00    +0.000 A 
ATOM     14  C   UNL     1       6.050   5.575  19.030  0.00  0.00    +0.000 A 
ATOM     15  C   UNL     1       7.415   5.810  18.866  0.00  0.00    +0.000 A 
ATOM     16  C   UNL     1       7.823   6.607  17.809  0.00  0.00    +0.000 A 
ATOM     17  N   UNL     1       6.976   7.177  16.925  0.00  0.00    +0.000 NA
ATOM     18  C   UNL     1       5.657   6.924  17.105  0.00  0.00    +0.000 A 
ENDBRANCH   2  13
BRANCH   1  19
ATOM     19  C   UNL     1       1.768   4.299  17.743  0.00  0.00    +0.000 C 
BRANCH  19  20
ATOM     20  C   UNL     1       1.569   2.778  17.805  0.00  0.00    +0.000 C 
BRANCH  20  21
ATOM     21  C   UNL     1       0.727   2.411  19.032  0.00  0.00    +0.000 C 
BRANCH  21  22
ATOM     22  C   UNL     1       0.870   3.419  20.171  0.00  0.00    +0.000 C 
BRANCH  22  24
ATOM     23  O   UNL     1       1.500   2.496  22.332  0.00  0.00    +0.000 OA
ATOM     24  C   UNL     1       1.823   2.918  21.235  0.00  0.00    +0.000 C 
BRANCH  24  25
ATOM     25  O   UNL     1       3.116   2.982  20.840  0.00  0.00    +0.000 OA
ATOM     26  H   UNL     1       3.234   3.320  19.933  0.00  0.00    +0.000 HD
ENDBRANCH  24  25
ENDBRANCH  22  24
ENDBRANCH  21  22
ENDBRANCH  20  21
ENDBRANCH  19  20
ENDBRANCH   1  19
TORSDOF 8
ENDMDL
MODEL 8
REMARK VINA RESULT:      -8.2      1.221      1.542
REMARK  Name = 
REMARK  8 active torsions:
REMARK  status: ('A' for Active; 'I' for Inactive)
REMARK    1  A    between atoms: C_2  and  O_3
REMARK    2  A    between atoms: C_2  and  C_4
REMARK    3  A    between atoms: C_4  and  C_5
REMARK    4  A    between atoms: C_5  and  C_6
REMARK    5  A    between atoms: C_6  and  C_7
REMARK    6  A    between atoms: C_7  and  C_8
REMARK    7  A    between atoms: C_9  and  C_10
REMARK    8  A    between atoms: C_9  and  C_16
REMARK                            x       y       z     vdW  Elec       q    Type
REMARK                         _______ _______ _______ _____ _____    ______ ____
ROOT
ATOM      1  C   UNL     1       3.046   4.960  17.698  0.00  0.00    +0.000 C 
ATOM      2  C   UNL     1       3.575   6.143  18.085  0.00  0.00    +0.000 C 
ENDROOT
BRANCH   2   3
ATOM      3  C   UNL     1       2.693   7.240  18.541  0.00  0.00    +0.000 A 
ATOM      4  C   UNL     1       2.274   8.230  17.648  0.00  0.00    +0.000 A 
ATOM      5  C   UNL     1       1.449   9.269  18.087  0.00  0.00    +0.000 A 
ATOM      6  C   UNL     1       1.020   9.329  19.422  0.00  0.00    +0.000 A 
ATOM      7  C   UNL     1       0.190  10.366  19.879  0.00  0.00    +0.000 A 
ATOM      8  C   UNL     1      -0.243  10.400  21.206  0.00  0.00    +0.000 A 
ATOM      9  C   UNL     1       0.149   9.401  22.092  0.00  0.00    +0.000 A 
ATOM     10  C   UNL     1       0.984   8.371  21.656  0.00  0.00    +0.000 A 
ATOM     11  C   UNL     1       1.428   8.321  20.325  0.00  0.00    +0.000 A 
ATOM     12  C   UNL     1       2.269   7.291  19.874  0.00  0.00    +0.000 A 
ENDBRANCH   2   3
BRANCH   2  13
ATOM     13  C   UNL     1       5.043   6.294  18.037  0.00  0.00    +0.000 A 
ATOM     14  C   UNL     1       5.874   5.628  18.940  0.00  0.00    +0.000 A 
ATOM     15  C   UNL     1       7.257   5.762  18.830  0.00  0.00    +0.000 A 
ATOM     16  C   UNL     1       7.763   6.565  17.820  0.00  0.00    +0.000 A 
ATOM     17  N   UNL     1       6.993   7.231  16.934  0.00  0.00    +0.000 NA
ATOM     18  C   UNL     1       5.653   7.076  17.060  0.00  0.00    +0.000 A 
ENDBRANCH   2  13
BRANCH   1  19
ATOM     19  C   UNL     1       1.572   4.635  17.695  0.00  0.00    +0.000 C 
BRANCH  19  20
ATOM     20  C   UNL     1       1.249   3.209  18.159  0.00  0.00    +0.000 C 
BRANCH  20  21
ATOM     21  C   UNL     1       2.392   2.262  17.777  0.00  0.00    +0.000 C 
BRANCH  21  22
ATOM     22  C   UNL     1       2.943   1.486  18.972  0.00  0.00    +0.000 C 
BRANCH  22  24
ATOM     23  O   UNL     1       3.317   3.108  20.746  0.00  0.00    +0.000 OA
ATOM     24  C   UNL     1       3.764   2.378  19.878  0.00  0.00    +0.000 C 
BRANCH  24  25
ATOM     25  O   UNL     1       5.090   2.287  19.627  0.00  0.00    +0.000 OA
ATOM     26  H   UNL     1       5.327   2.451  18.695  0.00  0.00    +0.000 HD
ENDBRANCH  24  25
ENDBRANCH  22  24
ENDBRANCH  21  22
ENDBRANCH  20  21
ENDBRANCH  19  20
ENDBRANCH   1  19
TORSDOF 8
ENDMDL
MODEL 9
REMARK VINA RESULT:      -8.0      2.532      5.753
REMARK  Name = 
REMARK  8 active torsions:
REMARK  status: ('A' for Active; 'I' for Inactive)
REMARK    1  A    between atoms: C_2  and  O_3
REMARK    2  A    between atoms: C_2  and  C_4
REMARK    3  A    between atoms: C_4  and  C_5
REMARK    4  A    between atoms: C_5  and  C_6
REMARK    5  A    between atoms: C_6  and  C_7
REMARK    6  A    between atoms: C_7  and  C_8
REMARK    7  A    between atoms: C_9  and  C_10
REMARK    8  A    between atoms: C_9  and  C_16
REMARK                            x       y       z     vdW  Elec       q    Type
REMARK                         _______ _______ _______ _____ _____    ______ ____
ROOT
ATOM      1  C   UNL     1       1.802   5.763  20.372  0.00  0.00    +0.000 C 
ATOM      2  C   UNL     1       2.515   6.534  19.521  0.00  0.00    +0.000 C 
ENDROOT
BRANCH   2   3
ATOM      3  C   UNL     1       3.717   5.991  18.852  0.00  0.00    +0.000 A 
ATOM      4  C   UNL     1       4.832   5.608  19.600  0.00  0.00    +0.000 A 
ATOM      5  C   UNL     1       5.969   5.104  18.962  0.00  0.00    +0.000 A 
ATOM      6  C   UNL     1       6.004   4.964  17.565  0.00  0.00    +0.000 A 
ATOM      7  C   UNL     1       7.138   4.459  16.908  0.00  0.00    +0.000 A 
ATOM      8  C   UNL     1       7.150   4.309  15.520  0.00  0.00    +0.000 A 
ATOM      9  C   UNL     1       6.030   4.664  14.772  0.00  0.00    +0.000 A 
ATOM     10  C   UNL     1       4.901   5.178  15.410  0.00  0.00    +0.000 A 
ATOM     11  C   UNL     1       4.873   5.336  16.805  0.00  0.00    +0.000 A 
ATOM     12  C   UNL     1       3.743   5.853  17.458  0.00  0.00    +0.000 A 
ENDBRANCH   2   3
BRANCH   2  13
ATOM     13  C   UNL     1       2.053   7.917  19.288  0.00  0.00    +0.000 A 
ATOM     14  C   UNL     1       2.245   8.552  18.059  0.00  0.00    +0.000 A 
ATOM     15  C   UNL     1       1.751   9.842  17.867  0.00  0.00    +0.000 A 
ATOM     16  C   UNL     1       1.086  10.456  18.916  0.00  0.00    +0.000 A 
ATOM     17  N   UNL     1       0.888   9.879  20.120  0.00  0.00    +0.000 NA
ATOM     18  C   UNL     1       1.372   8.623  20.275  0.00  0.00    +0.000 A 
ENDBRANCH   2  13
BRANCH   1  19
ATOM     19  C   UNL     1       2.128   4.329  20.714  0.00  0.00    +0.000 C 
BRANCH  19  20
ATOM     20  C   UNL     1       0.976   3.350  20.452  0.00  0.00    +0.000 C 
BRANCH  20  21
ATOM     21  C   UNL     1       1.477   2.161  19.625  0.00  0.00    +0.000 C 
BRANCH  21  22
ATOM     22  C   UNL     1       2.333   2.587  18.434  0.00  0.00    +0.000 C 
BRANCH  22  24
ATOM     23  O   UNL     1       4.341   1.924  19.638  0.00  0.00    +0.000 OA
ATOM     24  C   UNL     1       3.761   2.105  18.581  0.00  0.00    +0.000 C 
BRANCH  24  25
ATOM     25  O   UNL     1       4.355   1.883  17.386  0.00  0.00    +0.000 OA
ATOM     26  H   UNL     1       3.914   1.200  16.848  0.00  0.00    +0.000 HD
ENDBRANCH  24  25
ENDBRANCH  22  24
ENDBRANCH  21  22
ENDBRANCH  20  21
ENDBRANCH  19  20
ENDBRANCH   1  19
TORSDOF 8
ENDMDL
