MODEL 1
REMARK VINA RESULT:      -7.7      0.000      0.000
REMARK  Name = 
REMARK  6 active torsions:
REMARK  status: ('A' for Active; 'I' for Inactive)
REMARK    1  A    between atoms: C_1  and  C_2
REMARK    2  A    between atoms: N_6  and  C_7
REMARK    3  A    between atoms: C_7  and  C_8
REMARK    4  A    between atoms: N_10  and  C_11
REMARK    5  A    between atoms: C_16  and  C_17
REMARK    6  A    between atoms: C_22  and  C_23
REMARK                            x       y       z     vdW  Elec       q    Type
REMARK                         _______ _______ _______ _____ _____    ______ ____
ROOT
ATOM      1  C   UNL     1       8.772   5.209  20.637  0.00  0.00    +0.000 C 
ATOM      2  C   UNL     1       7.746   5.619  19.618  0.00  0.00    +0.000 A 
ATOM      3  C   UNL     1       8.042   6.502  18.665  0.00  0.00    +0.000 A 
ATOM      4  C   UNL     1       6.988   6.880  17.721  0.00  0.00    +0.000 A 
ATOM      5  O   UNL     1       7.253   7.666  16.815  0.00  0.00    +0.000 OA
ATOM      6  N   UNL     1       5.741   6.326  17.945  0.00  0.00    +0.000 N 
ATOM      7  C   UNL     1       5.548   5.383  18.952  0.00  0.00    +0.000 A 
ATOM      8  N   UNL     1       4.317   4.792  19.137  0.00  0.00    +0.000 N 
ATOM      9  C   UNL     1       3.149   5.572  19.536  0.00  0.00    +0.000 C 
ATOM     10  C   UNL     1       2.319   4.827  20.571  0.00  0.00    +0.000 C 
ATOM     11  C   UNL     1       1.915   3.451  20.039  0.00  0.00    +0.000 C 
ATOM     12  C   UNL     1       1.022   2.720  21.038  0.00  0.00    +0.000 C 
ATOM     13  C   UNL     1       3.184   2.653  19.723  0.00  0.00    +0.000 C 
ATOM     14  C   UNL     1       4.100   3.396  18.747  0.00  0.00    +0.000 C 
ATOM     15  N   UNL     1       6.516   5.032  19.752  0.00  0.00    +0.000 NA
ENDROOT
BRANCH   6  16
ATOM     16  C   UNL     1       4.730   6.610  16.932  0.00  0.00    +0.000 C 
BRANCH  16  17
ATOM     17  C   UNL     1       5.084   6.283  15.472  0.00  0.00    +0.000 C 
ATOM     18  O   UNL     1       4.977   7.175  14.630  0.00  0.00    +0.000 OA
ATOM     19  N   UNL     1       5.497   4.984  15.220  0.00  0.00    +0.000 N 
ATOM     20  H   UNL     1       5.541   4.373  16.025  0.00  0.00    +0.000 HD
BRANCH  19  21
ATOM     21  C   UNL     1       5.772   4.391  13.959  0.00  0.00    +0.000 A 
ATOM     22  C   UNL     1       4.852   3.564  13.297  0.00  0.00    +0.000 A 
ATOM     23  C   UNL     1       5.174   2.927  12.094  0.00  0.00    +0.000 A 
ATOM     24  C   UNL     1       6.424   3.112  11.521  0.00  0.00    +0.000 A 
ATOM     25  C   UNL     1       7.342   3.954  12.141  0.00  0.00    +0.000 A 
ATOM     26  C   UNL     1       7.030   4.608  13.350  0.00  0.00    +0.000 A 
ATOM     27  C   UNL     1       8.077   5.507  13.953  0.00  0.00    +0.000 C 
ENDBRANCH  19  21
ENDBRANCH  16  17
ENDBRANCH   6  16
TORSDOF 3
ENDMDL
MODEL 2
REMARK VINA RESULT:      -7.4      1.093      1.111
REMARK  Name = 
REMARK  6 active torsions:
REMARK  status: ('A' for Active; 'I' for Inactive)
REMARK    1  A    between atoms: C_1  and  C_2
REMARK    2  A    between atoms: N_6  and  C_7
REMARK    3  A    between atoms: C_7  and  C_8
REMARK    4  A    between atoms: N_10  and  C_11
REMARK    5  A    between atoms: C_16  and  C_17
REMARK    6  A    between atoms: C_22  and  C_23
REMARK                            x       y       z     vdW  Elec       q    Type
REMARK                         _______ _______ _______ _____ _____    ______ ____
ROOT
ATOM      1  C   UNL     1       8.745   5.506  20.755  0.00  0.00    +0.000 C 
ATOM      2  C   UNL     1       7.777   5.554  19.608  0.00  0.00    +0.000 A 
ATOM      3  C   UNL     1       8.106   6.143  18.458  0.00  0.00    +0.000 A 
ATOM      4  C   UNL     1       7.105   6.181  17.389  0.00  0.00    +0.000 A 
ATOM      5  O   UNL     1       7.403   6.688  16.311  0.00  0.00    +0.000 OA
ATOM      6  N   UNL     1       5.865   5.651  17.696  0.00  0.00    +0.000 N 
ATOM      7  C   UNL     1       5.637   5.026  18.920  0.00  0.00    +0.000 A 
ATOM      8  N   UNL     1       4.417   4.450  19.200  0.00  0.00    +0.000 N 
ATOM      9  C   UNL     1       3.200   5.250  19.293  0.00  0.00    +0.000 C 
ATOM     10  C   UNL     1       2.328   4.790  20.453  0.00  0.00    +0.000 C 
ATOM     11  C   UNL     1       2.006   3.301  20.318  0.00  0.00    +0.000 C 
ATOM     12  C   UNL     1       1.074   2.840  21.436  0.00  0.00    +0.000 C 
ATOM     13  C   UNL     1       3.320   2.512  20.315  0.00  0.00    +0.000 C 
ATOM     14  C   UNL     1       4.273   2.991  19.217  0.00  0.00    +0.000 C 
ATOM     15  N   UNL     1       6.561   4.968  19.838  0.00  0.00    +0.000 NA
ENDROOT
BRANCH   6  16
ATOM     16  C   UNL     1       4.914   5.582  16.590  0.00  0.00    +0.000 C 
BRANCH  16  17
ATOM     17  C   UNL     1       5.115   4.461  15.558  0.00  0.00    +0.000 C 
ATOM     18  O   UNL     1       5.042   3.293  15.941  0.00  0.00    +0.000 OA
ATOM     19  N   UNL     1       5.372   4.866  14.258  0.00  0.00    +0.000 N 
ATOM     20  H   UNL     1       5.390   5.865  14.104  0.00  0.00    +0.000 HD
BRANCH  19  21
ATOM     21  C   UNL     1       5.705   4.048  13.144  0.00  0.00    +0.000 A 
ATOM     22  C   UNL     1       4.797   3.145  12.573  0.00  0.00    +0.000 A 
ATOM     23  C   UNL     1       5.170   2.293  11.528  0.00  0.00    +0.000 A 
ATOM     24  C   UNL     1       6.462   2.336  11.023  0.00  0.00    +0.000 A 
ATOM     25  C   UNL     1       7.371   3.248  11.550  0.00  0.00    +0.000 A 
ATOM     26  C   UNL     1       7.008   4.116  12.599  0.00  0.00    +0.000 A 
ATOM     27  C   UNL     1       8.050   5.076  13.108  0.00  0.00    +0.000 C 
ENDBRANCH  19  21
ENDBRANCH  16  17
ENDBRANCH   6  16
TORSDOF 3
ENDMDL
MODEL 3
REMARK VINA RESULT:      -7.3      4.345      7.572
REMARK  Name = 
REMARK  6 active torsions:
REMARK  status: ('A' for Active; 'I' for Inactive)
REMARK    1  A    between atoms: C_1  and  C_2
REMARK    2  A    between atoms: N_6  and  C_7
REMARK    3  A    between atoms: C_7  and  C_8
REMARK    4  A    between atoms: N_10  and  C_11
REMARK    5  A    between atoms: C_16  and  C_17
REMARK    6  A    between atoms: C_22  and  C_23
REMARK                            x       y       z     vdW  Elec       q    Type
REMARK                         _______ _______ _______ _____ _____    ______ ____
ROOT
ATOM      1  C   UNL     1       2.054   2.403  20.646  0.00  0.00    +0.000 C 
ATOM      2  C   UNL     1       2.280   3.854  20.328  0.00  0.00    +0.000 A 
ATOM      3  C   UNL     1       1.519   4.801  20.877  0.00  0.00    +0.000 A 
ATOM      4  C   UNL     1       1.772   6.194  20.503  0.00  0.00    +0.000 A 
ATOM      5  O   UNL     1       1.104   7.083  21.026  0.00  0.00    +0.000 OA
ATOM      6  N   UNL     1       2.752   6.401  19.549  0.00  0.00    +0.000 N 
ATOM      7  C   UNL     1       3.514   5.340  19.064  0.00  0.00    +0.000 A 
ATOM      8  N   UNL     1       4.526   5.558  18.155  0.00  0.00    +0.000 N 
ATOM      9  C   UNL     1       4.251   6.073  16.817  0.00  0.00    +0.000 C 
ATOM     10  C   UNL     1       5.097   5.362  15.771  0.00  0.00    +0.000 C 
ATOM     11  C   UNL     1       6.582   5.480  16.118  0.00  0.00    +0.000 C 
ATOM     12  C   UNL     1       7.447   4.832  15.040  0.00  0.00    +0.000 C 
ATOM     13  C   UNL     1       6.818   4.843  17.491  0.00  0.00    +0.000 C 
ATOM     14  C   UNL     1       5.928   5.465  18.572  0.00  0.00    +0.000 C 
ATOM     15  N   UNL     1       3.295   4.113  19.448  0.00  0.00    +0.000 NA
ENDROOT
BRANCH   6  16
ATOM     16  C   UNL     1       3.082   7.796  19.272  0.00  0.00    +0.000 C 
BRANCH  16  17
ATOM     17  C   UNL     1       2.058   8.616  18.470  0.00  0.00    +0.000 C 
ATOM     18  O   UNL     1       2.186   8.675  17.247  0.00  0.00    +0.000 OA
ATOM     19  N   UNL     1       1.062   9.237  19.206  0.00  0.00    +0.000 N 
ATOM     20  H   UNL     1       1.091   9.081  20.204  0.00  0.00    +0.000 HD
BRANCH  19  21
ATOM     21  C   UNL     1       0.068  10.136  18.734  0.00  0.00    +0.000 A 
ATOM     22  C   UNL     1      -0.986   9.728  17.905  0.00  0.00    +0.000 A 
ATOM     23  C   UNL     1      -1.908  10.645  17.387  0.00  0.00    +0.000 A 
ATOM     24  C   UNL     1      -1.799  11.993  17.700  0.00  0.00    +0.000 A 
ATOM     25  C   UNL     1      -0.782  12.417  18.549  0.00  0.00    +0.000 A 
ATOM     26  C   UNL     1       0.151  11.505  19.082  0.00  0.00    +0.000 A 
ATOM     27  C   UNL     1       1.218  12.045  19.996  0.00  0.00    +0.000 C 
ENDBRANCH  19  21
ENDBRANCH  16  17
ENDBRANCH   6  16
TORSDOF 3
ENDMDL
MODEL 4
REMARK VINA RESULT:      -7.1      3.936      7.933
REMARK  Name = 
REMARK  6 active torsions:
REMARK  status: ('A' for Active; 'I' for Inactive)
REMARK    1  A    between atoms: C_1  and  C_2
REMARK    2  A    between atoms: N_6  and  C_7
REMARK    3  A    between atoms: C_7  and  C_8
REMARK    4  A    between atoms: N_10  and  C_11
REMARK    5  A    between atoms: C_16  and  C_17
REMARK    6  A    between atoms: C_22  and  C_23
REMARK                            x       y       z     vdW  Elec       q    Type
REMARK                         _______ _______ _______ _____ _____    ______ ____
ROOT
ATOM      1  C   UNL     1       1.708   1.339  18.737  0.00  0.00    +0.000 C 
ATOM      2  C   UNL     1       2.065   2.776  18.989  0.00  0.00    +0.000 A 
ATOM      3  C   UNL     1       1.351   3.521  19.834  0.00  0.00    +0.000 A 
ATOM      4  C   UNL     1       1.734   4.923  20.012  0.00  0.00    +0.000 A 
ATOM      5  O   UNL     1       1.109   5.615  20.813  0.00  0.00    +0.000 OA
ATOM      6  N   UNL     1       2.780   5.374  19.228  0.00  0.00    +0.000 N 
ATOM      7  C   UNL     1       3.483   4.501  18.402  0.00  0.00    +0.000 A 
ATOM      8  N   UNL     1       4.559   4.943  17.663  0.00  0.00    +0.000 N 
ATOM      9  C   UNL     1       4.403   5.940  16.609  0.00  0.00    +0.000 C 
ATOM     10  C   UNL     1       5.249   5.589  15.393  0.00  0.00    +0.000 C 
ATOM     11  C   UNL     1       6.716   5.429  15.795  0.00  0.00    +0.000 C 
ATOM     12  C   UNL     1       7.588   5.147  14.574  0.00  0.00    +0.000 C 
ATOM     13  C   UNL     1       6.822   4.310  16.836  0.00  0.00    +0.000 C 
ATOM     14  C   UNL     1       5.923   4.570  18.049  0.00  0.00    +0.000 C 
ATOM     15  N   UNL     1       3.146   3.245  18.294  0.00  0.00    +0.000 NA
ENDROOT
BRANCH   6  16
ATOM     16  C   UNL     1       3.234   6.735  19.500  0.00  0.00    +0.000 C 
BRANCH  16  17
ATOM     17  C   UNL     1       2.288   7.884  19.113  0.00  0.00    +0.000 C 
ATOM     18  O   UNL     1       2.311   8.294  17.953  0.00  0.00    +0.000 OA
ATOM     19  N   UNL     1       1.478   8.375  20.125  0.00  0.00    +0.000 N 
ATOM     20  H   UNL     1       1.573   7.921  21.023  0.00  0.00    +0.000 HD
BRANCH  19  21
ATOM     21  C   UNL     1       0.604   9.494  20.070  0.00  0.00    +0.000 A 
ATOM     22  C   UNL     1       0.260  10.124  18.865  0.00  0.00    +0.000 A 
ATOM     23  C   UNL     1      -0.538  11.273  18.842  0.00  0.00    +0.000 A 
ATOM     24  C   UNL     1      -1.019  11.811  20.028  0.00  0.00    +0.000 A 
ATOM     25  C   UNL     1      -0.718  11.184  21.234  0.00  0.00    +0.000 A 
ATOM     26  C   UNL     1       0.079  10.023  21.272  0.00  0.00    +0.000 A 
ATOM     27  C   UNL     1       0.352   9.403  22.617  0.00  0.00    +0.000 C 
ENDBRANCH  19  21
ENDBRANCH  16  17
ENDBRANCH   6  16
TORSDOF 3
ENDMDL
MODEL 5
REMARK VINA RESULT:      -7.0      8.574     11.056
REMARK  Name = 
REMARK  6 active torsions:
REMARK  status: ('A' for Active; 'I' for Inactive)
REMARK    1  A    between atoms: C_1  and  C_2
REMARK    2  A    between atoms: N_6  and  C_7
REMARK    3  A    between atoms: C_7  and  C_8
REMARK    4  A    between atoms: N_10  and  C_11
REMARK    5  A    between atoms: C_16  and  C_17
REMARK    6  A    between atoms: C_22  and  C_23
REMARK                            x       y       z     vdW  Elec       q    Type
REMARK                         _______ _______ _______ _____ _____    ______ ____
ROOT
ATOM      1  C   UNL     1      -6.298  10.724  18.486  0.00  0.00    +0.000 C 
ATOM      2  C   UNL     1      -4.889  11.244  18.503  0.00  0.00    +0.000 A 
ATOM      3  C   UNL     1      -4.055  10.995  17.492  0.00  0.00    +0.000 A 
ATOM      4  C   UNL     1      -2.685  11.505  17.584  0.00  0.00    +0.000 A 
ATOM      5  O   UNL     1      -1.914  11.315  16.647  0.00  0.00    +0.000 OA
ATOM      6  N   UNL     1      -2.355  12.157  18.759  0.00  0.00    +0.000 N 
ATOM      7  C   UNL     1      -3.315  12.395  19.739  0.00  0.00    +0.000 A 
ATOM      8  N   UNL     1      -2.995  13.092  20.884  0.00  0.00    +0.000 N 
ATOM      9  C   UNL     1      -2.027  12.575  21.846  0.00  0.00    +0.000 C 
ATOM     10  C   UNL     1      -2.494  12.815  23.275  0.00  0.00    +0.000 C 
ATOM     11  C   UNL     1      -2.765  14.303  23.504  0.00  0.00    +0.000 C 
ATOM     12  C   UNL     1      -3.165  14.569  24.953  0.00  0.00    +0.000 C 
ATOM     13  C   UNL     1      -3.850  14.761  22.523  0.00  0.00    +0.000 C 
ATOM     14  C   UNL     1      -3.469  14.467  21.070  0.00  0.00    +0.000 C 
ATOM     15  N   UNL     1      -4.540  11.966  19.612  0.00  0.00    +0.000 NA
ENDROOT
BRANCH   6  16
ATOM     16  C   UNL     1      -1.029  12.768  18.793  0.00  0.00    +0.000 C 
BRANCH  16  17
ATOM     17  C   UNL     1       0.176  11.827  18.950  0.00  0.00    +0.000 C 
ATOM     18  O   UNL     1       1.307  12.311  18.887  0.00  0.00    +0.000 OA
ATOM     19  N   UNL     1      -0.116  10.487  19.147  0.00  0.00    +0.000 N 
ATOM     20  H   UNL     1      -1.098  10.252  19.183  0.00  0.00    +0.000 HD
BRANCH  19  21
ATOM     21  C   UNL     1       0.797   9.400  19.207  0.00  0.00    +0.000 A 
ATOM     22  C   UNL     1       1.497   8.938  18.083  0.00  0.00    +0.000 A 
ATOM     23  C   UNL     1       2.330   7.817  18.149  0.00  0.00    +0.000 A 
ATOM     24  C   UNL     1       2.490   7.138  19.349  0.00  0.00    +0.000 A 
ATOM     25  C   UNL     1       1.833   7.597  20.486  0.00  0.00    +0.000 A 
ATOM     26  C   UNL     1       0.995   8.728  20.437  0.00  0.00    +0.000 A 
ATOM     27  C   UNL     1       0.325   9.163  21.713  0.00  0.00    +0.000 C 
ENDBRANCH  19  21
ENDBRANCH  16  17
ENDBRANCH   6  16
TORSDOF 3
ENDMDL
MODEL 6
REMARK VINA RESULT:      -7.0      7.537      9.394
REMARK  Name = 
REMARK  6 active torsions:
REMARK  status: ('A' for Active; 'I' for Inactive)
REMARK    1  A    between atoms: C_1  and  C_2
REMARK    2  A    between atoms: N_6  and  C_7
REMARK    3  A    between atoms: C_7  and  C_8
REMARK    4  A    between atoms: N_10  and  C_11
REMARK    5  A    between atoms: C_16  and  C_17
REMARK    6  A    between atoms: C_22  and  C_23
REMARK                            x       y       z     vdW  Elec       q    Type
REMARK                         _______ _______ _______ _____ _____    ______ ____
ROOT
ATOM      1  C   UNL     1       3.364  14.978  22.144  0.00  0.00    +0.000 C 
ATOM      2  C   UNL     1       2.486  14.244  21.171  0.00  0.00    +0.000 A 
ATOM      3  C   UNL     1       2.884  14.031  19.916  0.00  0.00    +0.000 A 
ATOM      4  C   UNL     1       1.968  13.335  19.010  0.00  0.00    +0.000 A 
ATOM      5  O   UNL     1       2.332  13.099  17.860  0.00  0.00    +0.000 OA
ATOM      6  N   UNL     1       0.727  13.010  19.527  0.00  0.00    +0.000 N 
ATOM      7  C   UNL     1       0.426  13.247  20.866  0.00  0.00    +0.000 A 
ATOM      8  N   UNL     1      -0.792  12.872  21.391  0.00  0.00    +0.000 N 
ATOM      9  C   UNL     1      -2.039  13.469  20.924  0.00  0.00    +0.000 C 
ATOM     10  C   UNL     1      -2.982  13.748  22.086  0.00  0.00    +0.000 C 
ATOM     11  C   UNL     1      -3.241  12.467  22.880  0.00  0.00    +0.000 C 
ATOM     12  C   UNL     1      -4.241  12.716  24.006  0.00  0.00    +0.000 C 
ATOM     13  C   UNL     1      -1.904  11.941  23.415  0.00  0.00    +0.000 C 
ATOM     14  C   UNL     1      -0.885  11.721  22.294  0.00  0.00    +0.000 C 
ATOM     15  N   UNL     1       1.278  13.831  21.663  0.00  0.00    +0.000 NA
ENDROOT
BRANCH   6  16
ATOM     16  C   UNL     1      -0.131  12.210  18.658  0.00  0.00    +0.000 C 
BRANCH  16  17
ATOM     17  C   UNL     1       0.015  10.681  18.739  0.00  0.00    +0.000 C 
ATOM     18  O   UNL     1      -1.008   9.997  18.764  0.00  0.00    +0.000 OA
ATOM     19  N   UNL     1       1.311  10.193  18.781  0.00  0.00    +0.000 N 
ATOM     20  H   UNL     1       2.044  10.888  18.741  0.00  0.00    +0.000 HD
BRANCH  19  21
ATOM     21  C   UNL     1       1.725   8.847  18.969  0.00  0.00    +0.000 A 
ATOM     22  C   UNL     1       2.216   8.055  17.921  0.00  0.00    +0.000 A 
ATOM     23  C   UNL     1       2.543   6.708  18.111  0.00  0.00    +0.000 A 
ATOM     24  C   UNL     1       2.394   6.126  19.362  0.00  0.00    +0.000 A 
ATOM     25  C   UNL     1       1.941   6.900  20.426  0.00  0.00    +0.000 A 
ATOM     26  C   UNL     1       1.613   8.259  20.251  0.00  0.00    +0.000 A 
ATOM     27  C   UNL     1       1.135   9.027  21.454  0.00  0.00    +0.000 C 
ENDBRANCH  19  21
ENDBRANCH  16  17
ENDBRANCH   6  16
TORSDOF 3
ENDMDL
MODEL 7
REMARK VINA RESULT:      -6.9      3.548      7.312
REMARK  Name = 
REMARK  6 active torsions:
REMARK  status: ('A' for Active; 'I' for Inactive)
REMARK    1  A    between atoms: C_1  and  C_2
REMARK    2  A    between atoms: N_6  and  C_7
REMARK    3  A    between atoms: C_7  and  C_8
REMARK    4  A    between atoms: N_10  and  C_11
REMARK    5  A    between atoms: C_16  and  C_17
REMARK    6  A    between atoms: C_22  and  C_23
REMARK                            x       y       z     vdW  Elec       q    Type
REMARK                         _______ _______ _______ _____ _____    ______ ____
ROOT
ATOM      1  C   UNL     1       4.950   1.440  21.041  0.00  0.00    +0.000 C 
ATOM      2  C   UNL     1       4.159   2.510  20.344  0.00  0.00    +0.000 A 
ATOM      3  C   UNL     1       2.938   2.843  20.765  0.00  0.00    +0.000 A 
ATOM      4  C   UNL     1       2.208   3.874  20.023  0.00  0.00    +0.000 A 
ATOM      5  O   UNL     1       1.097   4.218  20.418  0.00  0.00    +0.000 OA
ATOM      6  N   UNL     1       2.835   4.372  18.896  0.00  0.00    +0.000 N 
ATOM      7  C   UNL     1       4.130   3.980  18.565  0.00  0.00    +0.000 A 
ATOM      8  N   UNL     1       4.771   4.521  17.471  0.00  0.00    +0.000 N 
ATOM      9  C   UNL     1       4.276   4.309  16.115  0.00  0.00    +0.000 C 
ATOM     10  C   UNL     1       5.422   4.050  15.147  0.00  0.00    +0.000 C 
ATOM     11  C   UNL     1       6.431   5.199  15.198  0.00  0.00    +0.000 C 
ATOM     12  C   UNL     1       7.550   4.988  14.181  0.00  0.00    +0.000 C 
ATOM     13  C   UNL     1       6.977   5.310  16.625  0.00  0.00    +0.000 C 
ATOM     14  C   UNL     1       5.857   5.488  17.655  0.00  0.00    +0.000 C 
ATOM     15  N   UNL     1       4.774   3.091  19.268  0.00  0.00    +0.000 NA
ENDROOT
BRANCH   6  16
ATOM     16  C   UNL     1       2.158   5.483  18.234  0.00  0.00    +0.000 C 
BRANCH  16  17
ATOM     17  C   UNL     1       2.387   6.891  18.808  0.00  0.00    +0.000 C 
ATOM     18  O   UNL     1       3.371   7.077  19.524  0.00  0.00    +0.000 OA
ATOM     19  N   UNL     1       1.445   7.849  18.470  0.00  0.00    +0.000 N 
ATOM     20  H   UNL     1       0.699   7.537  17.863  0.00  0.00    +0.000 HD
BRANCH  19  21
ATOM     21  C   UNL     1       1.355   9.184  18.949  0.00  0.00    +0.000 A 
ATOM     22  C   UNL     1       1.768  10.288  18.190  0.00  0.00    +0.000 A 
ATOM     23  C   UNL     1       1.744  11.586  18.712  0.00  0.00    +0.000 A 
ATOM     24  C   UNL     1       1.294  11.807  20.006  0.00  0.00    +0.000 A 
ATOM     25  C   UNL     1       0.846  10.731  20.767  0.00  0.00    +0.000 A 
ATOM     26  C   UNL     1       0.859   9.420  20.253  0.00  0.00    +0.000 A 
ATOM     27  C   UNL     1       0.352   8.313  21.139  0.00  0.00    +0.000 C 
ENDBRANCH  19  21
ENDBRANCH  16  17
ENDBRANCH   6  16
TORSDOF 3
ENDMDL
MODEL 8
REMARK VINA RESULT:      -6.9      6.995      9.403
REMARK  Name = 
REMARK  6 active torsions:
REMARK  status: ('A' for Active; 'I' for Inactive)
REMARK    1  A    between atoms: C_1  and  C_2
REMARK    2  A    between atoms: N_6  and  C_7
REMARK    3  A    between atoms: C_7  and  C_8
REMARK    4  A    between atoms: N_10  and  C_11
REMARK    5  A    between atoms: C_16  and  C_17
REMARK    6  A    between atoms: C_22  and  C_23
REMARK                            x       y       z     vdW  Elec       q    Type
REMARK                         _______ _______ _______ _____ _____    ______ ____
ROOT
ATOM      1  C   UNL     1      -4.069  11.576  17.144  0.00  0.00    +0.000 C 
ATOM      2  C   UNL     1      -2.753  11.219  17.774  0.00  0.00    +0.000 A 
ATOM      3  C   UNL     1      -1.955  10.304  17.222  0.00  0.00    +0.000 A 
ATOM      4  C   UNL     1      -0.699   9.981  17.903  0.00  0.00    +0.000 A 
ATOM      5  O   UNL     1       0.065   9.167  17.390  0.00  0.00    +0.000 OA
ATOM      6  N   UNL     1      -0.479  10.617  19.111  0.00  0.00    +0.000 N 
ATOM      7  C   UNL     1      -1.364  11.585  19.582  0.00  0.00    +0.000 A 
ATOM      8  N   UNL     1      -1.112  12.256  20.759  0.00  0.00    +0.000 N 
ATOM      9  C   UNL     1      -1.071  11.558  22.040  0.00  0.00    +0.000 C 
ATOM     10  C   UNL     1      -1.759  12.370  23.129  0.00  0.00    +0.000 C 
ATOM     11  C   UNL     1      -1.131  13.761  23.232  0.00  0.00    +0.000 C 
ATOM     12  C   UNL     1      -1.763  14.562  24.368  0.00  0.00    +0.000 C 
ATOM     13  C   UNL     1      -1.286  14.472  21.883  0.00  0.00    +0.000 C 
ATOM     14  C   UNL     1      -0.684  13.657  20.735  0.00  0.00    +0.000 C 
ATOM     15  N   UNL     1      -2.454  11.885  18.932  0.00  0.00    +0.000 NA
ENDROOT
BRANCH   6  16
ATOM     16  C   UNL     1       0.826  10.384  19.721  0.00  0.00    +0.000 C 
BRANCH  16  17
ATOM     17  C   UNL     1       1.132   8.957  20.207  0.00  0.00    +0.000 C 
ATOM     18  O   UNL     1       0.780   8.640  21.344  0.00  0.00    +0.000 OA
ATOM     19  N   UNL     1       1.794   8.135  19.310  0.00  0.00    +0.000 N 
ATOM     20  H   UNL     1       2.004   8.545  18.411  0.00  0.00    +0.000 HD
BRANCH  19  21
ATOM     21  C   UNL     1       2.292   6.824  19.540  0.00  0.00    +0.000 A 
ATOM     22  C   UNL     1       1.813   6.005  20.573  0.00  0.00    +0.000 A 
ATOM     23  C   UNL     1       2.373   4.749  20.831  0.00  0.00    +0.000 A 
ATOM     24  C   UNL     1       3.420   4.280  20.051  0.00  0.00    +0.000 A 
ATOM     25  C   UNL     1       3.891   5.061  18.999  0.00  0.00    +0.000 A 
ATOM     26  C   UNL     1       3.333   6.325  18.723  0.00  0.00    +0.000 A 
ATOM     27  C   UNL     1       3.896   7.103  17.563  0.00  0.00    +0.000 C 
ENDBRANCH  19  21
ENDBRANCH  16  17
ENDBRANCH   6  16
TORSDOF 3
ENDMDL
MODEL 9
REMARK VINA RESULT:      -6.8      3.497      7.460
REMARK  Name = 
REMARK  6 active torsions:
REMARK  status: ('A' for Active; 'I' for Inactive)
REMARK    1  A    between atoms: C_1  and  C_2
REMARK    2  A    between atoms: N_6  and  C_7
REMARK    3  A    between atoms: C_7  and  C_8
REMARK    4  A    between atoms: N_10  and  C_11
REMARK    5  A    between atoms: C_16  and  C_17
REMARK    6  A    between atoms: C_22  and  C_23
REMARK                            x       y       z     vdW  Elec       q    Type
REMARK                         _______ _______ _______ _____ _____    ______ ____
ROOT
ATOM      1  C   UNL     1       5.251   1.130  21.200  0.00  0.00    +0.000 C 
ATOM      2  C   UNL     1       4.411   2.197  20.557  0.00  0.00    +0.000 A 
ATOM      3  C   UNL     1       3.199   2.490  21.027  0.00  0.00    +0.000 A 
ATOM      4  C   UNL     1       2.420   3.520  20.336  0.00  0.00    +0.000 A 
ATOM      5  O   UNL     1       1.315   3.828  20.777  0.00  0.00    +0.000 OA
ATOM      6  N   UNL     1       2.995   4.060  19.200  0.00  0.00    +0.000 N 
ATOM      7  C   UNL     1       4.286   3.707  18.815  0.00  0.00    +0.000 A 
ATOM      8  N   UNL     1       4.876   4.288  17.713  0.00  0.00    +0.000 N 
ATOM      9  C   UNL     1       4.338   4.096  16.370  0.00  0.00    +0.000 C 
ATOM     10  C   UNL     1       5.455   3.888  15.357  0.00  0.00    +0.000 C 
ATOM     11  C   UNL     1       6.438   5.059  15.401  0.00  0.00    +0.000 C 
ATOM     12  C   UNL     1       7.525   4.899  14.341  0.00  0.00    +0.000 C 
ATOM     13  C   UNL     1       7.031   5.151  16.811  0.00  0.00    +0.000 C 
ATOM     14  C   UNL     1       5.945   5.277  17.883  0.00  0.00    +0.000 C 
ATOM     15  N   UNL     1       4.975   2.817  19.474  0.00  0.00    +0.000 NA
ENDROOT
BRANCH   6  16
ATOM     16  C   UNL     1       2.269   5.169  18.589  0.00  0.00    +0.000 C 
BRANCH  16  17
ATOM     17  C   UNL     1       2.417   6.553  19.242  0.00  0.00    +0.000 C 
ATOM     18  O   UNL     1       3.552   6.988  19.438  0.00  0.00    +0.000 OA
ATOM     19  N   UNL     1       1.238   7.206  19.565  0.00  0.00    +0.000 N 
ATOM     20  H   UNL     1       0.386   6.717  19.328  0.00  0.00    +0.000 HD
BRANCH  19  21
ATOM     21  C   UNL     1       1.090   8.430  20.271  0.00  0.00    +0.000 A 
ATOM     22  C   UNL     1       0.971   8.487  21.667  0.00  0.00    +0.000 A 
ATOM     23  C   UNL     1       0.746   9.696  22.334  0.00  0.00    +0.000 A 
ATOM     24  C   UNL     1       0.647  10.879  21.616  0.00  0.00    +0.000 A 
ATOM     25  C   UNL     1       0.797  10.853  20.233  0.00  0.00    +0.000 A 
ATOM     26  C   UNL     1       1.029   9.644  19.547  0.00  0.00    +0.000 A 
ATOM     27  C   UNL     1       1.184   9.704  18.051  0.00  0.00    +0.000 C 
ENDBRANCH  19  21
ENDBRANCH  16  17
ENDBRANCH   6  16
TORSDOF 3
ENDMDL
