MODEL 1
REMARK VINA RESULT:      -8.7      0.000      0.000
REMARK  Name = 
REMARK  11 active torsions:
REMARK  status: ('A' for Active; 'I' for Inactive)
REMARK    1  A    between atoms: C_2  and  C_3
REMARK    2  A    between atoms: C_4  and  O_5
REMARK    3  A    between atoms: O_5  and  C_6
REMARK    4  A    between atoms: C_8  and  C_9
REMARK    5  A    between atoms: C_10  and  C_11
REMARK    6  A    between atoms: C_14  and  C_15
REMARK    7  A    between atoms: C_15  and  O_17
REMARK    8  A    between atoms: O_17  and  C_18
REMARK    9  A    between atoms: C_18  and  C_19
REMARK   10  A    between atoms: C_28  and  O_29
REMARK   11  A    between atoms: O_29  and  C_30
REMARK                            x       y       z     vdW  Elec       q    Type
REMARK                         _______ _______ _______ _____ _____    ______ ____
ROOT
ATOM      1  C   UNL     1       7.690   7.037  18.141  0.00  0.00    +0.000 A 
ATOM      2  C   UNL     1       7.804   5.715  18.590  0.00  0.00    +0.000 A 
ATOM      3  C   UNL     1       7.035   4.697  18.017  0.00  0.00    +0.000 A 
ATOM      4  C   UNL     1       6.126   4.988  16.992  0.00  0.00    +0.000 A 
ATOM      5  C   UNL     1       5.986   6.313  16.561  0.00  0.00    +0.000 A 
ATOM      6  C   UNL     1       6.759   7.329  17.135  0.00  0.00    +0.000 A 
ENDROOT
BRANCH   1   8
ATOM      7  C   UNL     1       8.449   9.387  18.268  0.00  0.00    +0.000 C 
ATOM      8  C   UNL     1       8.465   8.131  18.742  0.00  0.00    +0.000 C 
BRANCH   7  12
ATOM      9  C   UNL     1      10.931  12.630  19.634  0.00  0.00    +0.000 A 
ATOM     10  C   UNL     1      11.015  12.134  18.308  0.00  0.00    +0.000 A 
ATOM     11  C   UNL     1      10.197  11.072  17.903  0.00  0.00    +0.000 A 
ATOM     12  C   UNL     1       9.274  10.493  18.777  0.00  0.00    +0.000 A 
ATOM     13  C   UNL     1       9.177  11.000  20.074  0.00  0.00    +0.000 A 
ATOM     14  C   UNL     1       9.998  12.051  20.518  0.00  0.00    +0.000 A 
BRANCH   9  16
ATOM     15  C   UNL     1      11.499  14.977  20.142  0.00  0.00    +0.000 C 
ATOM     16  C   UNL     1      11.864  13.693  20.047  0.00  0.00    +0.000 C 
ENDBRANCH   9  16
BRANCH  10  17
ATOM     17  O   UNL     1      11.963  12.693  17.477  0.00  0.00    +0.000 OA
ATOM     18  C   UNL     1      11.475  13.492  16.404  0.00  0.00    +0.000 C 
ENDBRANCH  10  17
BRANCH  14  19
ATOM     19  O   UNL     1       9.833  12.312  21.853  0.00  0.00    +0.000 OA
ATOM     20  C   UNL     1       8.845  13.262  22.222  0.00  0.00    +0.000 C 
ENDBRANCH  14  19
ENDBRANCH   7  12
ENDBRANCH   1   8
BRANCH   4  21
ATOM     21  C   UNL     1       5.386   3.854  16.365  0.00  0.00    +0.000 C 
ATOM     22  O   UNL     1       5.552   3.512  15.205  0.00  0.00    +0.000 OA
BRANCH  21  23
ATOM     23  O   UNL     1       4.468   3.353  17.225  0.00  0.00    +0.000 OA
BRANCH  23  24
ATOM     24  C   UNL     1       3.517   4.296  17.725  0.00  0.00    +0.000 C 
BRANCH  24  25
ATOM     25  C   UNL     1       2.750   3.756  18.903  0.00  0.00    +0.000 A 
ATOM     26  C   UNL     1       3.403   3.464  20.110  0.00  0.00    +0.000 A 
ATOM     27  C   UNL     1       2.676   3.032  21.222  0.00  0.00    +0.000 A 
ATOM     28  C   UNL     1       1.294   2.877  21.136  0.00  0.00    +0.000 A 
ATOM     29  C   UNL     1       0.638   3.140  19.934  0.00  0.00    +0.000 A 
ATOM     30  C   UNL     1       1.363   3.572  18.821  0.00  0.00    +0.000 A 
ENDBRANCH  24  25
ENDBRANCH  23  24
ENDBRANCH  21  23
ENDBRANCH   4  21
TORSDOF 9
ENDMDL
MODEL 2
REMARK VINA RESULT:      -8.3      0.730      2.530
REMARK  Name = 
REMARK  11 active torsions:
REMARK  status: ('A' for Active; 'I' for Inactive)
REMARK    1  A    between atoms: C_2  and  C_3
REMARK    2  A    between atoms: C_4  and  O_5
REMARK    3  A    between atoms: O_5  and  C_6
REMARK    4  A    between atoms: C_8  and  C_9
REMARK    5  A    between atoms: C_10  and  C_11
REMARK    6  A    between atoms: C_14  and  C_15
REMARK    7  A    between atoms: C_15  and  O_17
REMARK    8  A    between atoms: O_17  and  C_18
REMARK    9  A    between atoms: C_18  and  C_19
REMARK   10  A    between atoms: C_28  and  O_29
REMARK   11  A    between atoms: O_29  and  C_30
REMARK                            x       y       z     vdW  Elec       q    Type
REMARK                         _______ _______ _______ _____ _____    ______ ____
ROOT
ATOM      1  C   UNL     1       7.777   7.394  18.125  0.00  0.00    +0.000 A 
ATOM      2  C   UNL     1       7.819   6.108  18.680  0.00  0.00    +0.000 A 
ATOM      3  C   UNL     1       7.105   5.056  18.097  0.00  0.00    +0.000 A 
ATOM      4  C   UNL     1       6.324   5.276  16.956  0.00  0.00    +0.000 A 
ATOM      5  C   UNL     1       6.254   6.567  16.416  0.00  0.00    +0.000 A 
ATOM      6  C   UNL     1       6.973   7.617  17.001  0.00  0.00    +0.000 A 
ENDROOT
BRANCH   1   8
ATOM      7  C   UNL     1       8.467   9.767  18.223  0.00  0.00    +0.000 C 
ATOM      8  C   UNL     1       8.496   8.525  18.731  0.00  0.00    +0.000 C 
BRANCH   7  12
ATOM      9  C   UNL     1      10.680  13.078  19.862  0.00  0.00    +0.000 A 
ATOM     10  C   UNL     1       9.953  12.184  20.690  0.00  0.00    +0.000 A 
ATOM     11  C   UNL     1       9.238  11.125  20.119  0.00  0.00    +0.000 A 
ATOM     12  C   UNL     1       9.238  10.908  18.738  0.00  0.00    +0.000 A 
ATOM     13  C   UNL     1       9.976  11.774  17.930  0.00  0.00    +0.000 A 
ATOM     14  C   UNL     1      10.687  12.860  18.469  0.00  0.00    +0.000 A 
BRANCH   9  16
ATOM     15  C   UNL     1      10.809  15.451  20.524  0.00  0.00    +0.000 C 
ATOM     16  C   UNL     1      11.353  14.229  20.490  0.00  0.00    +0.000 C 
ENDBRANCH   9  16
BRANCH  10  17
ATOM     17  O   UNL     1       9.932  12.443  22.043  0.00  0.00    +0.000 OA
ATOM     18  C   UNL     1       8.670  12.794  22.603  0.00  0.00    +0.000 C 
ENDBRANCH  10  17
BRANCH  14  19
ATOM     19  O   UNL     1      11.236  13.657  17.498  0.00  0.00    +0.000 OA
ATOM     20  C   UNL     1      11.468  13.077  16.224  0.00  0.00    +0.000 C 
ENDBRANCH  14  19
ENDBRANCH   7  12
ENDBRANCH   1   8
BRANCH   4  21
ATOM     21  C   UNL     1       5.643   4.105  16.332  0.00  0.00    +0.000 C 
ATOM     22  O   UNL     1       6.176   3.394  15.494  0.00  0.00    +0.000 OA
BRANCH  21  23
ATOM     23  O   UNL     1       4.359   4.022  16.753  0.00  0.00    +0.000 OA
BRANCH  23  24
ATOM     24  C   UNL     1       4.079   2.952  17.659  0.00  0.00    +0.000 C 
BRANCH  24  25
ATOM     25  C   UNL     1       3.001   3.314  18.646  0.00  0.00    +0.000 A 
ATOM     26  C   UNL     1       1.722   2.747  18.552  0.00  0.00    +0.000 A 
ATOM     27  C   UNL     1       0.748   3.030  19.512  0.00  0.00    +0.000 A 
ATOM     28  C   UNL     1       1.038   3.891  20.568  0.00  0.00    +0.000 A 
ATOM     29  C   UNL     1       2.298   4.481  20.658  0.00  0.00    +0.000 A 
ATOM     30  C   UNL     1       3.273   4.199  19.700  0.00  0.00    +0.000 A 
ENDBRANCH  24  25
ENDBRANCH  23  24
ENDBRANCH  21  23
ENDBRANCH   4  21
TORSDOF 9
ENDMDL
MODEL 3
REMARK VINA RESULT:      -8.3      0.667      2.592
REMARK  Name = 
REMARK  11 active torsions:
REMARK  status: ('A' for Active; 'I' for Inactive)
REMARK    1  A    between atoms: C_2  and  C_3
REMARK    2  A    between atoms: C_4  and  O_5
REMARK    3  A    between atoms: O_5  and  C_6
REMARK    4  A    between atoms: C_8  and  C_9
REMARK    5  A    between atoms: C_10  and  C_11
REMARK    6  A    between atoms: C_14  and  C_15
REMARK    7  A    between atoms: C_15  and  O_17
REMARK    8  A    between atoms: O_17  and  C_18
REMARK    9  A    between atoms: C_18  and  C_19
REMARK   10  A    between atoms: C_28  and  O_29
REMARK   11  A    between atoms: O_29  and  C_30
REMARK                            x       y       z     vdW  Elec       q    Type
REMARK                         _______ _______ _______ _____ _____    ______ ____
ROOT
ATOM      1  C   UNL     1       7.591   7.168  17.987  0.00  0.00    +0.000 A 
ATOM      2  C   UNL     1       6.589   7.436  17.045  0.00  0.00    +0.000 A 
ATOM      3  C   UNL     1       5.852   6.396  16.471  0.00  0.00    +0.000 A 
ATOM      4  C   UNL     1       6.116   5.065  16.818  0.00  0.00    +0.000 A 
ATOM      5  C   UNL     1       7.137   4.789  17.736  0.00  0.00    +0.000 A 
ATOM      6  C   UNL     1       7.871   5.834  18.311  0.00  0.00    +0.000 A 
ENDROOT
BRANCH   1   8
ATOM      7  C   UNL     1       8.463   9.480  18.080  0.00  0.00    +0.000 C 
ATOM      8  C   UNL     1       8.400   8.238  18.587  0.00  0.00    +0.000 C 
BRANCH   7  12
ATOM      9  C   UNL     1      10.922  12.625  19.695  0.00  0.00    +0.000 A 
ATOM     10  C   UNL     1       9.988  11.921  20.498  0.00  0.00    +0.000 A 
ATOM     11  C   UNL     1       9.199  10.911  19.934  0.00  0.00    +0.000 A 
ATOM     12  C   UNL     1       9.324  10.557  18.588  0.00  0.00    +0.000 A 
ATOM     13  C   UNL     1      10.263  11.235  17.807  0.00  0.00    +0.000 A 
ATOM     14  C   UNL     1      11.054  12.268  18.337  0.00  0.00    +0.000 A 
BRANCH   9  16
ATOM     15  C   UNL     1      11.183  14.978  20.388  0.00  0.00    +0.000 C 
ATOM     16  C   UNL     1      11.675  13.736  20.302  0.00  0.00    +0.000 C 
ENDBRANCH   9  16
BRANCH  10  17
ATOM     17  O   UNL     1       9.852  12.317  21.811  0.00  0.00    +0.000 OA
ATOM     18  C   UNL     1       8.552  12.732  22.218  0.00  0.00    +0.000 C 
ENDBRANCH  10  17
BRANCH  14  19
ATOM     19  O   UNL     1      11.815  12.885  17.378  0.00  0.00    +0.000 OA
ATOM     20  C   UNL     1      11.160  13.777  16.491  0.00  0.00    +0.000 C 
ENDBRANCH  14  19
ENDBRANCH   7  12
ENDBRANCH   1   8
BRANCH   4  21
ATOM     21  C   UNL     1       5.251   3.999  16.233  0.00  0.00    +0.000 C 
ATOM     22  O   UNL     1       5.516   3.426  15.188  0.00  0.00    +0.000 OA
BRANCH  21  23
ATOM     23  O   UNL     1       4.123   3.848  16.966  0.00  0.00    +0.000 OA
BRANCH  23  24
ATOM     24  C   UNL     1       4.219   2.931  18.058  0.00  0.00    +0.000 C 
BRANCH  24  25
ATOM     25  C   UNL     1       3.342   3.332  19.214  0.00  0.00    +0.000 A 
ATOM     26  C   UNL     1       2.567   4.500  19.154  0.00  0.00    +0.000 A 
ATOM     27  C   UNL     1       1.700   4.830  20.199  0.00  0.00    +0.000 A 
ATOM     28  C   UNL     1       1.608   4.004  21.317  0.00  0.00    +0.000 A 
ATOM     29  C   UNL     1       2.393   2.854  21.399  0.00  0.00    +0.000 A 
ATOM     30  C   UNL     1       3.260   2.523  20.356  0.00  0.00    +0.000 A 
ENDBRANCH  24  25
ENDBRANCH  23  24
ENDBRANCH  21  23
ENDBRANCH   4  21
TORSDOF 9
ENDMDL
MODEL 4
REMARK VINA RESULT:      -8.3      1.038      2.787
REMARK  Name = 
REMARK  11 active torsions:
REMARK  status: ('A' for Active; 'I' for Inactive)
REMARK    1  A    between atoms: C_2  and  C_3
REMARK    2  A    between atoms: C_4  and  O_5
REMARK    3  A    between atoms: O_5  and  C_6
REMARK    4  A    between atoms: C_8  and  C_9
REMARK    5  A    between atoms: C_10  and  C_11
REMARK    6  A    between atoms: C_14  and  C_15
REMARK    7  A    between atoms: C_15  and  O_17
REMARK    8  A    between atoms: O_17  and  C_18
REMARK    9  A    between atoms: C_18  and  C_19
REMARK   10  A    between atoms: C_28  and  O_29
REMARK   11  A    between atoms: O_29  and  C_30
REMARK                            x       y       z     vdW  Elec       q    Type
REMARK                         _______ _______ _______ _____ _____    ______ ____
ROOT
ATOM      1  C   UNL     1       7.972   8.269  18.059  0.00  0.00    +0.000 A 
ATOM      2  C   UNL     1       8.360   7.162  18.826  0.00  0.00    +0.000 A 
ATOM      3  C   UNL     1       7.704   5.935  18.691  0.00  0.00    +0.000 A 
ATOM      4  C   UNL     1       6.636   5.797  17.796  0.00  0.00    +0.000 A 
ATOM      5  C   UNL     1       6.224   6.909  17.049  0.00  0.00    +0.000 A 
ATOM      6  C   UNL     1       6.885   8.135  17.185  0.00  0.00    +0.000 A 
ENDROOT
BRANCH   1   8
ATOM      7  C   UNL     1       9.347   9.924  19.277  0.00  0.00    +0.000 C 
ATOM      8  C   UNL     1       8.626   9.578  18.199  0.00  0.00    +0.000 C 
BRANCH   7  12
ATOM      9  C   UNL     1      11.011  13.819  20.058  0.00  0.00    +0.000 A 
ATOM     10  C   UNL     1      10.065  13.223  20.931  0.00  0.00    +0.000 A 
ATOM     11  C   UNL     1       9.540  11.958  20.639  0.00  0.00    +0.000 A 
ATOM     12  C   UNL     1       9.943  11.249  19.505  0.00  0.00    +0.000 A 
ATOM     13  C   UNL     1      10.893  11.828  18.661  0.00  0.00    +0.000 A 
ATOM     14  C   UNL     1      11.424  13.104  18.915  0.00  0.00    +0.000 A 
BRANCH   9  16
ATOM     15  C   UNL     1      10.986  16.265  19.740  0.00  0.00    +0.000 C 
ATOM     16  C   UNL     1      11.479  15.184  20.355  0.00  0.00    +0.000 C 
ENDBRANCH   9  16
BRANCH  10  17
ATOM     17  O   UNL     1       9.650  13.960  22.020  0.00  0.00    +0.000 OA
ATOM     18  C   UNL     1       8.731  13.325  22.904  0.00  0.00    +0.000 C 
ENDBRANCH  10  17
BRANCH  14  19
ATOM     19  O   UNL     1      12.240  13.539  17.904  0.00  0.00    +0.000 OA
ATOM     20  C   UNL     1      11.623  14.017  16.719  0.00  0.00    +0.000 C 
ENDBRANCH  14  19
ENDBRANCH   7  12
ENDBRANCH   1   8
BRANCH   4  21
ATOM     21  C   UNL     1       6.020   4.448  17.636  0.00  0.00    +0.000 C 
ATOM     22  O   UNL     1       5.812   3.936  16.548  0.00  0.00    +0.000 OA
BRANCH  21  23
ATOM     23  O   UNL     1       5.653   3.948  18.840  0.00  0.00    +0.000 OA
BRANCH  23  24
ATOM     24  C   UNL     1       4.594   4.648  19.497  0.00  0.00    +0.000 C 
BRANCH  24  25
ATOM     25  C   UNL     1       3.261   3.980  19.292  0.00  0.00    +0.000 A 
ATOM     26  C   UNL     1       2.436   4.340  18.216  0.00  0.00    +0.000 A 
ATOM     27  C   UNL     1       1.234   3.667  17.988  0.00  0.00    +0.000 A 
ATOM     28  C   UNL     1       0.838   2.636  18.839  0.00  0.00    +0.000 A 
ATOM     29  C   UNL     1       1.637   2.287  19.927  0.00  0.00    +0.000 A 
ATOM     30  C   UNL     1       2.839   2.959  20.156  0.00  0.00    +0.000 A 
ENDBRANCH  24  25
ENDBRANCH  23  24
ENDBRANCH  21  23
ENDBRANCH   4  21
TORSDOF 9
ENDMDL
MODEL 5
REMARK VINA RESULT:      -8.2      1.137      2.757
REMARK  Name = 
REMARK  11 active torsions:
REMARK  status: ('A' for Active; 'I' for Inactive)
REMARK    1  A    between atoms: C_2  and  C_3
REMARK    2  A    between atoms: C_4  and  O_5
REMARK    3  A    between atoms: O_5  and  C_6
REMARK    4  A    between atoms: C_8  and  C_9
REMARK    5  A    between atoms: C_10  and  C_11
REMARK    6  A    between atoms: C_14  and  C_15
REMARK    7  A    between atoms: C_15  and  O_17
REMARK    8  A    between atoms: O_17  and  C_18
REMARK    9  A    between atoms: C_18  and  C_19
REMARK   10  A    between atoms: C_28  and  O_29
REMARK   11  A    between atoms: O_29  and  C_30
REMARK                            x       y       z     vdW  Elec       q    Type
REMARK                         _______ _______ _______ _____ _____    ______ ____
ROOT
ATOM      1  C   UNL     1       7.467   7.780  17.631  0.00  0.00    +0.000 A 
ATOM      2  C   UNL     1       6.407   7.665  16.722  0.00  0.00    +0.000 A 
ATOM      3  C   UNL     1       5.842   6.418  16.438  0.00  0.00    +0.000 A 
ATOM      4  C   UNL     1       6.340   5.259  17.048  0.00  0.00    +0.000 A 
ATOM      5  C   UNL     1       7.419   5.365  17.934  0.00  0.00    +0.000 A 
ATOM      6  C   UNL     1       7.981   6.616  18.218  0.00  0.00    +0.000 A 
ENDROOT
BRANCH   1   8
ATOM      7  C   UNL     1       8.955   9.253  18.946  0.00  0.00    +0.000 C 
ATOM      8  C   UNL     1       8.098   9.074  17.929  0.00  0.00    +0.000 C 
BRANCH   7  12
ATOM      9  C   UNL     1      10.594  13.027  20.218  0.00  0.00    +0.000 A 
ATOM     10  C   UNL     1       9.708  12.285  21.039  0.00  0.00    +0.000 A 
ATOM     11  C   UNL     1       9.188  11.066  20.587  0.00  0.00    +0.000 A 
ATOM     12  C   UNL     1       9.541  10.543  19.340  0.00  0.00    +0.000 A 
ATOM     13  C   UNL     1      10.434  11.265  18.545  0.00  0.00    +0.000 A 
ATOM     14  C   UNL     1      10.956  12.502  18.961  0.00  0.00    +0.000 A 
BRANCH   9  16
ATOM     15  C   UNL     1      10.533  15.494  20.250  0.00  0.00    +0.000 C 
ATOM     16  C   UNL     1      11.056  14.344  20.692  0.00  0.00    +0.000 C 
ENDBRANCH   9  16
BRANCH  10  17
ATOM     17  O   UNL     1       9.341  12.840  22.246  0.00  0.00    +0.000 OA
ATOM     18  C   UNL     1       7.950  12.832  22.552  0.00  0.00    +0.000 C 
ENDBRANCH  10  17
BRANCH  14  19
ATOM     19  O   UNL     1      11.709  13.103  17.985  0.00  0.00    +0.000 OA
ATOM     20  C   UNL     1      11.047  13.504  16.796  0.00  0.00    +0.000 C 
ENDBRANCH  14  19
ENDBRANCH   7  12
ENDBRANCH   1   8
BRANCH   4  21
ATOM     21  C   UNL     1       5.653   3.965  16.767  0.00  0.00    +0.000 C 
ATOM     22  O   UNL     1       5.692   3.413  15.679  0.00  0.00    +0.000 OA
BRANCH  21  23
ATOM     23  O   UNL     1       4.928   3.570  17.840  0.00  0.00    +0.000 OA
BRANCH  23  24
ATOM     24  C   UNL     1       3.509   3.618  17.674  0.00  0.00    +0.000 C 
BRANCH  24  25
ATOM     25  C   UNL     1       2.842   4.443  18.742  0.00  0.00    +0.000 A 
ATOM     26  C   UNL     1       3.105   5.816  18.856  0.00  0.00    +0.000 A 
ATOM     27  C   UNL     1       2.429   6.591  19.801  0.00  0.00    +0.000 A 
ATOM     28  C   UNL     1       1.494   6.001  20.648  0.00  0.00    +0.000 A 
ATOM     29  C   UNL     1       1.243   4.632  20.561  0.00  0.00    +0.000 A 
ATOM     30  C   UNL     1       1.917   3.856  19.617  0.00  0.00    +0.000 A 
ENDBRANCH  24  25
ENDBRANCH  23  24
ENDBRANCH  21  23
ENDBRANCH   4  21
TORSDOF 9
ENDMDL
MODEL 6
REMARK VINA RESULT:      -8.2      0.905      2.444
REMARK  Name = 
REMARK  11 active torsions:
REMARK  status: ('A' for Active; 'I' for Inactive)
REMARK    1  A    between atoms: C_2  and  C_3
REMARK    2  A    between atoms: C_4  and  O_5
REMARK    3  A    between atoms: O_5  and  C_6
REMARK    4  A    between atoms: C_8  and  C_9
REMARK    5  A    between atoms: C_10  and  C_11
REMARK    6  A    between atoms: C_14  and  C_15
REMARK    7  A    between atoms: C_15  and  O_17
REMARK    8  A    between atoms: O_17  and  C_18
REMARK    9  A    between atoms: C_18  and  C_19
REMARK   10  A    between atoms: C_28  and  O_29
REMARK   11  A    between atoms: O_29  and  C_30
REMARK                            x       y       z     vdW  Elec       q    Type
REMARK                         _______ _______ _______ _____ _____    ______ ____
ROOT
ATOM      1  C   UNL     1       7.233   7.758  17.487  0.00  0.00    +0.000 A 
ATOM      2  C   UNL     1       7.780   6.535  17.899  0.00  0.00    +0.000 A 
ATOM      3  C   UNL     1       7.178   5.326  17.536  0.00  0.00    +0.000 A 
ATOM      4  C   UNL     1       6.007   5.320  16.766  0.00  0.00    +0.000 A 
ATOM      5  C   UNL     1       5.441   6.541  16.378  0.00  0.00    +0.000 A 
ATOM      6  C   UNL     1       6.048   7.749  16.741  0.00  0.00    +0.000 A 
ENDROOT
BRANCH   1   8
ATOM      7  C   UNL     1       8.909   9.141  18.668  0.00  0.00    +0.000 C 
ATOM      8  C   UNL     1       7.829   9.044  17.876  0.00  0.00    +0.000 C 
BRANCH   7  12
ATOM      9  C   UNL     1      10.525  12.818  20.222  0.00  0.00    +0.000 A 
ATOM     10  C   UNL     1       9.647  12.008  20.986  0.00  0.00    +0.000 A 
ATOM     11  C   UNL     1       9.134  10.824  20.443  0.00  0.00    +0.000 A 
ATOM     12  C   UNL     1       9.486  10.402  19.158  0.00  0.00    +0.000 A 
ATOM     13  C   UNL     1      10.371  11.189  18.419  0.00  0.00    +0.000 A 
ATOM     14  C   UNL     1      10.886  12.394  18.927  0.00  0.00    +0.000 A 
BRANCH   9  16
ATOM     15  C   UNL     1      10.418  15.270  20.476  0.00  0.00    +0.000 C 
ATOM     16  C   UNL     1      10.979  14.098  20.795  0.00  0.00    +0.000 C 
ENDBRANCH   9  16
BRANCH  10  17
ATOM     17  O   UNL     1       9.280  12.466  22.233  0.00  0.00    +0.000 OA
ATOM     18  C   UNL     1       7.930  12.895  22.381  0.00  0.00    +0.000 C 
ENDBRANCH  10  17
BRANCH  14  19
ATOM     19  O   UNL     1      11.631  13.074  17.999  0.00  0.00    +0.000 OA
ATOM     20  C   UNL     1      10.934  13.812  17.007  0.00  0.00    +0.000 C 
ENDBRANCH  14  19
ENDBRANCH   7  12
ENDBRANCH   1   8
BRANCH   4  21
ATOM     21  C   UNL     1       5.449   4.003  16.344  0.00  0.00    +0.000 C 
ATOM     22  O   UNL     1       6.023   3.254  15.570  0.00  0.00    +0.000 OA
BRANCH  21  23
ATOM     23  O   UNL     1       4.209   3.827  16.859  0.00  0.00    +0.000 OA
BRANCH  23  24
ATOM     24  C   UNL     1       4.141   3.004  18.026  0.00  0.00    +0.000 C 
BRANCH  24  25
ATOM     25  C   UNL     1       3.055   3.448  18.969  0.00  0.00    +0.000 A 
ATOM     26  C   UNL     1       3.052   4.747  19.499  0.00  0.00    +0.000 A 
ATOM     27  C   UNL     1       2.004   5.177  20.316  0.00  0.00    +0.000 A 
ATOM     28  C   UNL     1       0.955   4.312  20.620  0.00  0.00    +0.000 A 
ATOM     29  C   UNL     1       0.960   3.010  20.119  0.00  0.00    +0.000 A 
ATOM     30  C   UNL     1       2.007   2.579  19.303  0.00  0.00    +0.000 A 
ENDBRANCH  24  25
ENDBRANCH  23  24
ENDBRANCH  21  23
ENDBRANCH   4  21
TORSDOF 9
ENDMDL
MODEL 7
REMARK VINA RESULT:      -8.1      0.802      2.537
REMARK  Name = 
REMARK  11 active torsions:
REMARK  status: ('A' for Active; 'I' for Inactive)
REMARK    1  A    between atoms: C_2  and  C_3
REMARK    2  A    between atoms: C_4  and  O_5
REMARK    3  A    between atoms: O_5  and  C_6
REMARK    4  A    between atoms: C_8  and  C_9
REMARK    5  A    between atoms: C_10  and  C_11
REMARK    6  A    between atoms: C_14  and  C_15
REMARK    7  A    between atoms: C_15  and  O_17
REMARK    8  A    between atoms: O_17  and  C_18
REMARK    9  A    between atoms: C_18  and  C_19
REMARK   10  A    between atoms: C_28  and  O_29
REMARK   11  A    between atoms: O_29  and  C_30
REMARK                            x       y       z     vdW  Elec       q    Type
REMARK                         _______ _______ _______ _____ _____    ______ ____
ROOT
ATOM      1  C   UNL     1       7.174   7.787  17.479  0.00  0.00    +0.000 A 
ATOM      2  C   UNL     1       5.860   7.816  16.993  0.00  0.00    +0.000 A 
ATOM      3  C   UNL     1       5.168   6.629  16.733  0.00  0.00    +0.000 A 
ATOM      4  C   UNL     1       5.785   5.389  16.942  0.00  0.00    +0.000 A 
ATOM      5  C   UNL     1       7.109   5.355  17.400  0.00  0.00    +0.000 A 
ATOM      6  C   UNL     1       7.798   6.545  17.661  0.00  0.00    +0.000 A 
ENDROOT
BRANCH   1   8
ATOM      7  C   UNL     1       8.775   9.157  18.773  0.00  0.00    +0.000 C 
ATOM      8  C   UNL     1       7.935   9.018  17.735  0.00  0.00    +0.000 C 
BRANCH   7  12
ATOM      9  C   UNL     1      10.792  12.784  19.921  0.00  0.00    +0.000 A 
ATOM     10  C   UNL     1       9.888  12.126  20.793  0.00  0.00    +0.000 A 
ATOM     11  C   UNL     1       9.244  10.953  20.381  0.00  0.00    +0.000 A 
ATOM     12  C   UNL     1       9.488  10.395  19.123  0.00  0.00    +0.000 A 
ATOM     13  C   UNL     1      10.398  11.032  18.278  0.00  0.00    +0.000 A 
ATOM     14  C   UNL     1      11.044  12.222  18.654  0.00  0.00    +0.000 A 
BRANCH   9  16
ATOM     15  C   UNL     1      10.918  15.248  19.961  0.00  0.00    +0.000 C 
ATOM     16  C   UNL     1      11.388  14.060  20.358  0.00  0.00    +0.000 C 
ENDBRANCH   9  16
BRANCH  10  17
ATOM     17  O   UNL     1       9.630  12.719  22.011  0.00  0.00    +0.000 OA
ATOM     18  C   UNL     1       8.272  13.053  22.280  0.00  0.00    +0.000 C 
ENDBRANCH  10  17
BRANCH  14  19
ATOM     19  O   UNL     1      11.796  12.749  17.636  0.00  0.00    +0.000 OA
ATOM     20  C   UNL     1      11.130  13.553  16.674  0.00  0.00    +0.000 C 
ENDBRANCH  14  19
ENDBRANCH   7  12
ENDBRANCH   1   8
BRANCH   4  21
ATOM     21  C   UNL     1       4.978   4.154  16.722  0.00  0.00    +0.000 C 
ATOM     22  O   UNL     1       5.449   3.122  16.273  0.00  0.00    +0.000 OA
BRANCH  21  23
ATOM     23  O   UNL     1       3.672   4.387  16.995  0.00  0.00    +0.000 OA
BRANCH  23  24
ATOM     24  C   UNL     1       2.912   3.238  17.377  0.00  0.00    +0.000 C 
BRANCH  24  25
ATOM     25  C   UNL     1       2.477   3.300  18.817  0.00  0.00    +0.000 A 
ATOM     26  C   UNL     1       3.009   2.414  19.765  0.00  0.00    +0.000 A 
ATOM     27  C   UNL     1       2.658   2.523  21.113  0.00  0.00    +0.000 A 
ATOM     28  C   UNL     1       1.763   3.509  21.523  0.00  0.00    +0.000 A 
ATOM     29  C   UNL     1       1.208   4.379  20.586  0.00  0.00    +0.000 A 
ATOM     30  C   UNL     1       1.558   4.271  19.239  0.00  0.00    +0.000 A 
ENDBRANCH  24  25
ENDBRANCH  23  24
ENDBRANCH  21  23
ENDBRANCH   4  21
TORSDOF 9
ENDMDL
MODEL 8
REMARK VINA RESULT:      -7.9      6.290      8.802
REMARK  Name = 
REMARK  11 active torsions:
REMARK  status: ('A' for Active; 'I' for Inactive)
REMARK    1  A    between atoms: C_2  and  C_3
REMARK    2  A    between atoms: C_4  and  O_5
REMARK    3  A    between atoms: O_5  and  C_6
REMARK    4  A    between atoms: C_8  and  C_9
REMARK    5  A    between atoms: C_10  and  C_11
REMARK    6  A    between atoms: C_14  and  C_15
REMARK    7  A    between atoms: C_15  and  O_17
REMARK    8  A    between atoms: O_17  and  C_18
REMARK    9  A    between atoms: C_18  and  C_19
REMARK   10  A    between atoms: C_28  and  O_29
REMARK   11  A    between atoms: O_29  and  C_30
REMARK                            x       y       z     vdW  Elec       q    Type
REMARK                         _______ _______ _______ _____ _____    ______ ____
ROOT
ATOM      1  C   UNL     1       2.489   7.796  18.474  0.00  0.00    +0.000 A 
ATOM      2  C   UNL     1       2.583   6.857  19.510  0.00  0.00    +0.000 A 
ATOM      3  C   UNL     1       3.537   5.835  19.463  0.00  0.00    +0.000 A 
ATOM      4  C   UNL     1       4.405   5.727  18.369  0.00  0.00    +0.000 A 
ATOM      5  C   UNL     1       4.295   6.644  17.317  0.00  0.00    +0.000 A 
ATOM      6  C   UNL     1       3.340   7.667  17.368  0.00  0.00    +0.000 A 
ENDROOT
BRANCH   1   8
ATOM      7  C   UNL     1       0.839   9.255  19.596  0.00  0.00    +0.000 C 
ATOM      8  C   UNL     1       1.478   8.863  18.483  0.00  0.00    +0.000 C 
BRANCH   7  12
ATOM      9  C   UNL     1      -2.279  12.215  19.861  0.00  0.00    +0.000 A 
ATOM     10  C   UNL     1      -1.297  12.074  20.874  0.00  0.00    +0.000 A 
ATOM     11  C   UNL     1      -0.304  11.093  20.757  0.00  0.00    +0.000 A 
ATOM     12  C   UNL     1      -0.241  10.252  19.643  0.00  0.00    +0.000 A 
ATOM     13  C   UNL     1      -1.195  10.411  18.636  0.00  0.00    +0.000 A 
ATOM     14  C   UNL     1      -2.217  11.371  18.733  0.00  0.00    +0.000 A 
BRANCH   9  16
ATOM     15  C   UNL     1      -4.568  12.864  20.515  0.00  0.00    +0.000 C 
ATOM     16  C   UNL     1      -3.356  13.201  20.058  0.00  0.00    +0.000 C 
ENDBRANCH   9  16
BRANCH  10  17
ATOM     17  O   UNL     1      -1.404  12.885  21.983  0.00  0.00    +0.000 OA
ATOM     18  C   UNL     1      -1.723  12.241  23.213  0.00  0.00    +0.000 C 
ENDBRANCH  10  17
BRANCH  14  19
ATOM     19  O   UNL     1      -3.119  11.277  17.705  0.00  0.00    +0.000 OA
ATOM     20  C   UNL     1      -2.993  10.177  16.818  0.00  0.00    +0.000 C 
ENDBRANCH  14  19
ENDBRANCH   7  12
ENDBRANCH   1   8
BRANCH   4  21
ATOM     21  C   UNL     1       5.453   4.665  18.404  0.00  0.00    +0.000 C 
ATOM     22  O   UNL     1       6.261   4.498  17.505  0.00  0.00    +0.000 OA
BRANCH  21  23
ATOM     23  O   UNL     1       5.305   3.889  19.504  0.00  0.00    +0.000 OA
BRANCH  23  24
ATOM     24  C   UNL     1       4.703   2.612  19.275  0.00  0.00    +0.000 C 
BRANCH  24  25
ATOM     25  C   UNL     1       3.222   2.628  19.543  0.00  0.00    +0.000 A 
ATOM     26  C   UNL     1       2.731   2.778  20.848  0.00  0.00    +0.000 A 
ATOM     27  C   UNL     1       1.357   2.865  21.083  0.00  0.00    +0.000 A 
ATOM     28  C   UNL     1       0.460   2.792  20.019  0.00  0.00    +0.000 A 
ATOM     29  C   UNL     1       0.936   2.617  18.720  0.00  0.00    +0.000 A 
ATOM     30  C   UNL     1       2.309   2.530  18.483  0.00  0.00    +0.000 A 
ENDBRANCH  24  25
ENDBRANCH  23  24
ENDBRANCH  21  23
ENDBRANCH   4  21
TORSDOF 9
ENDMDL
MODEL 9
REMARK VINA RESULT:      -7.9      7.166     10.452
REMARK  Name = 
REMARK  11 active torsions:
REMARK  status: ('A' for Active; 'I' for Inactive)
REMARK    1  A    between atoms: C_2  and  C_3
REMARK    2  A    between atoms: C_4  and  O_5
REMARK    3  A    between atoms: O_5  and  C_6
REMARK    4  A    between atoms: C_8  and  C_9
REMARK    5  A    between atoms: C_10  and  C_11
REMARK    6  A    between atoms: C_14  and  C_15
REMARK    7  A    between atoms: C_15  and  O_17
REMARK    8  A    between atoms: O_17  and  C_18
REMARK    9  A    between atoms: C_18  and  C_19
REMARK   10  A    between atoms: C_28  and  O_29
REMARK   11  A    between atoms: O_29  and  C_30
REMARK                            x       y       z     vdW  Elec       q    Type
REMARK                         _______ _______ _______ _____ _____    ______ ____
ROOT
ATOM      1  C   UNL     1       1.076   9.386  19.484  0.00  0.00    +0.000 A 
ATOM      2  C   UNL     1       0.448  10.558  19.043  0.00  0.00    +0.000 A 
ATOM      3  C   UNL     1      -0.366  11.300  19.905  0.00  0.00    +0.000 A 
ATOM      4  C   UNL     1      -0.578  10.872  21.222  0.00  0.00    +0.000 A 
ATOM      5  C   UNL     1       0.023   9.684  21.658  0.00  0.00    +0.000 A 
ATOM      6  C   UNL     1       0.839   8.946  20.793  0.00  0.00    +0.000 A 
ENDROOT
BRANCH   1   8
ATOM      7  C   UNL     1       2.331   7.335  18.906  0.00  0.00    +0.000 C 
ATOM      8  C   UNL     1       1.914   8.572  18.592  0.00  0.00    +0.000 C 
BRANCH   7  12
ATOM      9  C   UNL     1       4.920   4.830  16.547  0.00  0.00    +0.000 A 
ATOM     10  C   UNL     1       3.738   4.325  17.146  0.00  0.00    +0.000 A 
ATOM     11  C   UNL     1       2.926   5.169  17.915  0.00  0.00    +0.000 A 
ATOM     12  C   UNL     1       3.242   6.518  18.091  0.00  0.00    +0.000 A 
ATOM     13  C   UNL     1       4.394   7.017  17.478  0.00  0.00    +0.000 A 
ATOM     14  C   UNL     1       5.241   6.192  16.719  0.00  0.00    +0.000 A 
BRANCH   9  16
ATOM     15  C   UNL     1       5.970   3.961  14.490  0.00  0.00    +0.000 C 
ATOM     16  C   UNL     1       5.792   3.894  15.815  0.00  0.00    +0.000 C 
ENDBRANCH   9  16
BRANCH  10  17
ATOM     17  O   UNL     1       3.470   2.982  16.994  0.00  0.00    +0.000 OA
ATOM     18  C   UNL     1       2.506   2.423  17.881  0.00  0.00    +0.000 C 
ENDBRANCH  10  17
BRANCH  14  19
ATOM     19  O   UNL     1       6.376   6.845  16.314  0.00  0.00    +0.000 OA
ATOM     20  C   UNL     1       7.369   7.109  17.293  0.00  0.00    +0.000 C 
ENDBRANCH  14  19
ENDBRANCH   7  12
ENDBRANCH   1   8
BRANCH   4  21
ATOM     21  C   UNL     1      -1.393  11.739  22.122  0.00  0.00    +0.000 C 
ATOM     22  O   UNL     1      -1.684  11.424  23.265  0.00  0.00    +0.000 OA
BRANCH  21  23
ATOM     23  O   UNL     1      -1.824  12.838  21.459  0.00  0.00    +0.000 OA
BRANCH  23  24
ATOM     24  C   UNL     1      -3.120  13.312  21.834  0.00  0.00    +0.000 C 
BRANCH  24  25
ATOM     25  C   UNL     1      -4.203  12.755  20.948  0.00  0.00    +0.000 A 
ATOM     26  C   UNL     1      -3.933  12.408  19.616  0.00  0.00    +0.000 A 
ATOM     27  C   UNL     1      -4.922  11.825  18.821  0.00  0.00    +0.000 A 
ATOM     28  C   UNL     1      -6.192  11.593  19.345  0.00  0.00    +0.000 A 
ATOM     29  C   UNL     1      -6.480  11.957  20.659  0.00  0.00    +0.000 A 
ATOM     30  C   UNL     1      -5.492  12.540  21.456  0.00  0.00    +0.000 A 
ENDBRANCH  24  25
ENDBRANCH  23  24
ENDBRANCH  21  23
ENDBRANCH   4  21
TORSDOF 9
ENDMDL
