MODEL 1
REMARK VINA RESULT:      -8.2      0.000      0.000
REMARK  Name = 
REMARK  10 active torsions:
REMARK  status: ('A' for Active; 'I' for Inactive)
REMARK    1  A    between atoms: C_1  and  C_2
REMARK    2  A    between atoms: C_5  and  N_6
REMARK    3  A    between atoms: C_7  and  C_9
REMARK    4  A    between atoms: C_9  and  N_10
REMARK    5  A    between atoms: N_10  and  C_11
REMARK    6  A    between atoms: N_10  and  S_12
REMARK    7  A    between atoms: S_12  and  C_15
REMARK    8  A    between atoms: N_21  and  C_22
REMARK    9  A    between atoms: N_27  and  C_28
REMARK   10  A    between atoms: C_29  and  C_30
REMARK                            x       y       z     vdW  Elec       q    Type
REMARK                         _______ _______ _______ _____ _____    ______ ____
ROOT
ATOM      1  S   UNL     1       0.377  11.282  20.653  0.00  0.00    +0.000 S 
ATOM      2  O   UNL     1      -0.970  10.964  21.076  0.00  0.00    +0.000 OA
ATOM      3  O   UNL     1       1.500  11.197  21.554  0.00  0.00    +0.000 OA
ENDROOT
BRANCH   1   4
ATOM      4  C   UNL     1       0.322  12.919  19.968  0.00  0.00    +0.000 A 
ATOM      5  C   UNL     1      -0.885  13.588  19.835  0.00  0.00    +0.000 A 
ATOM      6  C   UNL     1      -0.875  14.896  19.356  0.00  0.00    +0.000 A 
ATOM      7  C   UNL     1       0.322  15.519  18.942  0.00  0.00    +0.000 A 
ATOM      8  C   UNL     1       1.537  14.803  19.016  0.00  0.00    +0.000 A 
ATOM      9  C   UNL     1       1.523  13.514  19.572  0.00  0.00    +0.000 A 
ATOM     10  N   UNL     1       2.735  15.382  18.518  0.00  0.00    +0.000 N 
ATOM     11  C   UNL     1       3.991  14.655  18.417  0.00  0.00    +0.000 C 
ATOM     12  C   UNL     1       2.749  16.655  17.943  0.00  0.00    +0.000 A 
ATOM     13  O   UNL     1       3.757  17.153  17.445  0.00  0.00    +0.000 OA
ATOM     14  C   UNL     1       1.447  17.460  17.934  0.00  0.00    +0.000 A 
ATOM     15  O   UNL     1       1.467  18.599  17.475  0.00  0.00    +0.000 OA
ATOM     16  N   UNL     1       0.304  16.850  18.439  0.00  0.00    +0.000 N 
ATOM     17  C   UNL     1      -0.929  17.625  18.444  0.00  0.00    +0.000 C 
ENDBRANCH   1   4
BRANCH   1  18
ATOM     18  N   UNL     1       0.744  10.336  19.261  0.00  0.00    +0.000 NA
ATOM     19  C   UNL     1      -0.435  10.221  18.352  0.00  0.00    +0.000 C 
BRANCH  18  20
ATOM     20  C   UNL     1       1.295   8.989  19.612  0.00  0.00    +0.000 C 
BRANCH  20  22
ATOM     21  N   UNL     1       2.658   7.137  18.802  0.00  0.00    +0.000 N 
ATOM     22  C   UNL     1       2.096   8.370  18.484  0.00  0.00    +0.000 C 
ATOM     23  O   UNL     1       2.219   8.979  17.424  0.00  0.00    +0.000 OA
ATOM     24  H   UNL     1       2.622   6.885  19.780  0.00  0.00    +0.000 HD
BRANCH  21  29
ATOM     25  C   UNL     1       5.968   3.908  15.374  0.00  0.00    +0.000 C 
ATOM     26  C   UNL     1       5.083   4.746  16.247  0.00  0.00    +0.000 A 
ATOM     27  C   UNL     1       5.406   6.073  16.502  0.00  0.00    +0.000 A 
ATOM     28  C   UNL     1       4.591   6.850  17.325  0.00  0.00    +0.000 A 
ATOM     29  C   UNL     1       3.438   6.329  17.935  0.00  0.00    +0.000 A 
ATOM     30  C   UNL     1       3.081   4.996  17.656  0.00  0.00    +0.000 A 
ATOM     31  C   UNL     1       1.872   4.292  18.215  0.00  0.00    +0.000 C 
ATOM     32  C   UNL     1       3.919   4.219  16.818  0.00  0.00    +0.000 A 
ENDBRANCH  21  29
ENDBRANCH  20  22
ENDBRANCH  18  20
ENDBRANCH   1  18
TORSDOF 5
ENDMDL
MODEL 2
REMARK VINA RESULT:      -8.1      4.101      5.544
REMARK  Name = 
REMARK  10 active torsions:
REMARK  status: ('A' for Active; 'I' for Inactive)
REMARK    1  A    between atoms: C_1  and  C_2
REMARK    2  A    between atoms: C_5  and  N_6
REMARK    3  A    between atoms: C_7  and  C_9
REMARK    4  A    between atoms: C_9  and  N_10
REMARK    5  A    between atoms: N_10  and  C_11
REMARK    6  A    between atoms: N_10  and  S_12
REMARK    7  A    between atoms: S_12  and  C_15
REMARK    8  A    between atoms: N_21  and  C_22
REMARK    9  A    between atoms: N_27  and  C_28
REMARK   10  A    between atoms: C_29  and  C_30
REMARK                            x       y       z     vdW  Elec       q    Type
REMARK                         _______ _______ _______ _____ _____    ______ ____
ROOT
ATOM      1  S   UNL     1       0.126  11.677  21.228  0.00  0.00    +0.000 S 
ATOM      2  O   UNL     1      -0.132  12.737  22.178  0.00  0.00    +0.000 OA
ATOM      3  O   UNL     1       1.368  11.591  20.499  0.00  0.00    +0.000 OA
ENDROOT
BRANCH   1   4
ATOM      4  C   UNL     1      -1.214  11.700  20.063  0.00  0.00    +0.000 A 
ATOM      5  C   UNL     1      -1.058  11.157  18.798  0.00  0.00    +0.000 A 
ATOM      6  C   UNL     1      -2.155  11.135  17.940  0.00  0.00    +0.000 A 
ATOM      7  C   UNL     1      -3.389  11.716  18.307  0.00  0.00    +0.000 A 
ATOM      8  C   UNL     1      -3.514  12.331  19.572  0.00  0.00    +0.000 A 
ATOM      9  C   UNL     1      -2.425  12.276  20.456  0.00  0.00    +0.000 A 
ATOM     10  N   UNL     1      -4.719  12.999  19.921  0.00  0.00    +0.000 N 
ATOM     11  C   UNL     1      -4.872  13.784  21.135  0.00  0.00    +0.000 C 
ATOM     12  C   UNL     1      -5.797  13.075  19.036  0.00  0.00    +0.000 A 
ATOM     13  O   UNL     1      -6.824  13.703  19.285  0.00  0.00    +0.000 OA
ATOM     14  C   UNL     1      -5.687  12.343  17.696  0.00  0.00    +0.000 A 
ATOM     15  O   UNL     1      -6.651  12.365  16.936  0.00  0.00    +0.000 OA
ATOM     16  N   UNL     1      -4.489  11.698  17.406  0.00  0.00    +0.000 N 
ATOM     17  C   UNL     1      -4.394  10.989  16.138  0.00  0.00    +0.000 C 
ENDBRANCH   1   4
BRANCH   1  18
ATOM     18  N   UNL     1      -0.127  10.169  22.020  0.00  0.00    +0.000 NA
ATOM     19  C   UNL     1      -0.635  10.360  23.411  0.00  0.00    +0.000 C 
BRANCH  18  20
ATOM     20  C   UNL     1       1.090   9.298  21.999  0.00  0.00    +0.000 C 
BRANCH  20  22
ATOM     21  N   UNL     1       2.081   7.419  20.802  0.00  0.00    +0.000 N 
ATOM     22  C   UNL     1       0.893   8.031  21.192  0.00  0.00    +0.000 C 
ATOM     23  O   UNL     1      -0.246   7.657  20.920  0.00  0.00    +0.000 OA
ATOM     24  H   UNL     1       2.916   7.971  20.940  0.00  0.00    +0.000 HD
BRANCH  21  29
ATOM     25  C   UNL     1       2.400   2.479  17.865  0.00  0.00    +0.000 C 
ATOM     26  C   UNL     1       2.345   3.773  18.621  0.00  0.00    +0.000 A 
ATOM     27  C   UNL     1       2.259   3.771  20.007  0.00  0.00    +0.000 A 
ATOM     28  C   UNL     1       2.193   4.974  20.710  0.00  0.00    +0.000 A 
ATOM     29  C   UNL     1       2.193   6.217  20.057  0.00  0.00    +0.000 A 
ATOM     30  C   UNL     1       2.316   6.234  18.654  0.00  0.00    +0.000 A 
ATOM     31  C   UNL     1       2.346   7.478  17.806  0.00  0.00    +0.000 C 
ATOM     32  C   UNL     1       2.381   5.003  17.954  0.00  0.00    +0.000 A 
ENDBRANCH  21  29
ENDBRANCH  20  22
ENDBRANCH  18  20
ENDBRANCH   1  18
TORSDOF 5
ENDMDL
MODEL 3
REMARK VINA RESULT:      -7.9      3.811      4.787
REMARK  Name = 
REMARK  10 active torsions:
REMARK  status: ('A' for Active; 'I' for Inactive)
REMARK    1  A    between atoms: C_1  and  C_2
REMARK    2  A    between atoms: C_5  and  N_6
REMARK    3  A    between atoms: C_7  and  C_9
REMARK    4  A    between atoms: C_9  and  N_10
REMARK    5  A    between atoms: N_10  and  C_11
REMARK    6  A    between atoms: N_10  and  S_12
REMARK    7  A    between atoms: S_12  and  C_15
REMARK    8  A    between atoms: N_21  and  C_22
REMARK    9  A    between atoms: N_27  and  C_28
REMARK   10  A    between atoms: C_29  and  C_30
REMARK                            x       y       z     vdW  Elec       q    Type
REMARK                         _______ _______ _______ _____ _____    ______ ____
ROOT
ATOM      1  S   UNL     1       0.770  10.808  20.389  0.00  0.00    +0.000 S 
ATOM      2  O   UNL     1       1.343  11.125  21.679  0.00  0.00    +0.000 OA
ATOM      3  O   UNL     1       1.412  11.188  19.155  0.00  0.00    +0.000 OA
ENDROOT
BRANCH   1   4
ATOM      4  C   UNL     1      -0.881  11.459  20.392  0.00  0.00    +0.000 A 
ATOM      5  C   UNL     1      -1.394  12.075  21.523  0.00  0.00    +0.000 A 
ATOM      6  C   UNL     1      -2.670  12.632  21.461  0.00  0.00    +0.000 A 
ATOM      7  C   UNL     1      -3.467  12.518  20.301  0.00  0.00    +0.000 A 
ATOM      8  C   UNL     1      -2.961  11.826  19.179  0.00  0.00    +0.000 A 
ATOM      9  C   UNL     1      -1.646  11.338  19.229  0.00  0.00    +0.000 A 
ATOM     10  N   UNL     1      -3.783  11.623  18.038  0.00  0.00    +0.000 N 
ATOM     11  C   UNL     1      -3.393  10.793  16.910  0.00  0.00    +0.000 C 
ATOM     12  C   UNL     1      -5.100  12.088  17.993  0.00  0.00    +0.000 A 
ATOM     13  O   UNL     1      -5.855  11.869  17.048  0.00  0.00    +0.000 OA
ATOM     14  C   UNL     1      -5.621  12.904  19.179  0.00  0.00    +0.000 A 
ATOM     15  O   UNL     1      -6.761  13.357  19.122  0.00  0.00    +0.000 OA
ATOM     16  N   UNL     1      -4.773  13.079  20.268  0.00  0.00    +0.000 N 
ATOM     17  C   UNL     1      -5.267  13.870  21.387  0.00  0.00    +0.000 C 
ENDBRANCH   1   4
BRANCH   1  18
ATOM     18  N   UNL     1       0.475   9.112  20.331  0.00  0.00    +0.000 NA
ATOM     19  C   UNL     1      -0.504   8.691  21.377  0.00  0.00    +0.000 C 
BRANCH  18  20
ATOM     20  C   UNL     1       1.734   8.307  20.408  0.00  0.00    +0.000 C 
BRANCH  20  22
ATOM     21  N   UNL     1       3.206   6.841  19.132  0.00  0.00    +0.000 N 
ATOM     22  C   UNL     1       2.171   7.767  19.061  0.00  0.00    +0.000 C 
ATOM     23  O   UNL     1       1.630   8.183  18.038  0.00  0.00    +0.000 OA
ATOM     24  H   UNL     1       3.662   6.771  20.031  0.00  0.00    +0.000 HD
BRANCH  21  29
ATOM     25  C   UNL     1       5.757   4.169  14.717  0.00  0.00    +0.000 C 
ATOM     26  C   UNL     1       5.066   4.859  15.855  0.00  0.00    +0.000 A 
ATOM     27  C   UNL     1       5.247   6.221  16.062  0.00  0.00    +0.000 A 
ATOM     28  C   UNL     1       4.616   6.860  17.129  0.00  0.00    +0.000 A 
ATOM     29  C   UNL     1       3.797   6.165  18.033  0.00  0.00    +0.000 A 
ATOM     30  C   UNL     1       3.576   4.792  17.813  0.00  0.00    +0.000 A 
ATOM     31  C   UNL     1       2.718   3.906  18.678  0.00  0.00    +0.000 C 
ATOM     32  C   UNL     1       4.226   4.156  16.726  0.00  0.00    +0.000 A 
ENDBRANCH  21  29
ENDBRANCH  20  22
ENDBRANCH  18  20
ENDBRANCH   1  18
TORSDOF 5
ENDMDL
MODEL 4
REMARK VINA RESULT:      -7.9      3.406      9.482
REMARK  Name = 
REMARK  10 active torsions:
REMARK  status: ('A' for Active; 'I' for Inactive)
REMARK    1  A    between atoms: C_1  and  C_2
REMARK    2  A    between atoms: C_5  and  N_6
REMARK    3  A    between atoms: C_7  and  C_9
REMARK    4  A    between atoms: C_9  and  N_10
REMARK    5  A    between atoms: N_10  and  C_11
REMARK    6  A    between atoms: N_10  and  S_12
REMARK    7  A    between atoms: S_12  and  C_15
REMARK    8  A    between atoms: N_21  and  C_22
REMARK    9  A    between atoms: N_27  and  C_28
REMARK   10  A    between atoms: C_29  and  C_30
REMARK                            x       y       z     vdW  Elec       q    Type
REMARK                         _______ _______ _______ _____ _____    ______ ____
ROOT
ATOM      1  S   UNL     1       0.668   9.620  20.894  0.00  0.00    +0.000 S 
ATOM      2  O   UNL     1       1.239   9.561  22.222  0.00  0.00    +0.000 OA
ATOM      3  O   UNL     1      -0.729   9.357  20.651  0.00  0.00    +0.000 OA
ENDROOT
BRANCH   1   4
ATOM      4  C   UNL     1       1.635   8.531  19.877  0.00  0.00    +0.000 A 
ATOM      5  C   UNL     1       2.118   8.956  18.649  0.00  0.00    +0.000 A 
ATOM      6  C   UNL     1       2.928   8.092  17.915  0.00  0.00    +0.000 A 
ATOM      7  C   UNL     1       3.202   6.782  18.362  0.00  0.00    +0.000 A 
ATOM      8  C   UNL     1       2.645   6.336  19.580  0.00  0.00    +0.000 A 
ATOM      9  C   UNL     1       1.896   7.241  20.347  0.00  0.00    +0.000 A 
ATOM     10  N   UNL     1       2.837   4.991  19.999  0.00  0.00    +0.000 N 
ATOM     11  C   UNL     1       2.172   4.414  21.156  0.00  0.00    +0.000 C 
ATOM     12  C   UNL     1       3.563   4.080  19.228  0.00  0.00    +0.000 A 
ATOM     13  O   UNL     1       3.687   2.896  19.532  0.00  0.00    +0.000 OA
ATOM     14  C   UNL     1       4.230   4.586  17.946  0.00  0.00    +0.000 A 
ATOM     15  O   UNL     1       4.911   3.802  17.291  0.00  0.00    +0.000 OA
ATOM     16  N   UNL     1       4.017   5.913  17.584  0.00  0.00    +0.000 N 
ATOM     17  C   UNL     1       4.666   6.395  16.373  0.00  0.00    +0.000 C 
ENDBRANCH   1   4
BRANCH   1  18
ATOM     18  N   UNL     1       1.043  11.156  20.211  0.00  0.00    +0.000 NA
ATOM     19  C   UNL     1       0.409  12.266  20.982  0.00  0.00    +0.000 C 
BRANCH  18  20
ATOM     20  C   UNL     1       0.700  11.237  18.757  0.00  0.00    +0.000 C 
BRANCH  20  22
ATOM     21  N   UNL     1      -1.715  11.077  18.459  0.00  0.00    +0.000 N 
ATOM     22  C   UNL     1      -0.621  11.936  18.503  0.00  0.00    +0.000 C 
ATOM     23  O   UNL     1      -0.639  13.153  18.330  0.00  0.00    +0.000 OA
ATOM     24  H   UNL     1      -1.490  10.093  18.420  0.00  0.00    +0.000 HD
BRANCH  21  29
ATOM     25  C   UNL     1      -7.164  12.776  17.714  0.00  0.00    +0.000 C 
ATOM     26  C   UNL     1      -5.753  12.305  17.901  0.00  0.00    +0.000 A 
ATOM     27  C   UNL     1      -5.151  12.377  19.151  0.00  0.00    +0.000 A 
ATOM     28  C   UNL     1      -3.834  11.953  19.323  0.00  0.00    +0.000 A 
ATOM     29  C   UNL     1      -3.066  11.458  18.256  0.00  0.00    +0.000 A 
ATOM     30  C   UNL     1      -3.676  11.347  16.992  0.00  0.00    +0.000 A 
ATOM     31  C   UNL     1      -3.000  10.827  15.750  0.00  0.00    +0.000 C 
ATOM     32  C   UNL     1      -5.015  11.784  16.832  0.00  0.00    +0.000 A 
ENDBRANCH  21  29
ENDBRANCH  20  22
ENDBRANCH  18  20
ENDBRANCH   1  18
TORSDOF 5
ENDMDL
MODEL 5
REMARK VINA RESULT:      -7.9      3.706      4.770
REMARK  Name = 
REMARK  10 active torsions:
REMARK  status: ('A' for Active; 'I' for Inactive)
REMARK    1  A    between atoms: C_1  and  C_2
REMARK    2  A    between atoms: C_5  and  N_6
REMARK    3  A    between atoms: C_7  and  C_9
REMARK    4  A    between atoms: C_9  and  N_10
REMARK    5  A    between atoms: N_10  and  C_11
REMARK    6  A    between atoms: N_10  and  S_12
REMARK    7  A    between atoms: S_12  and  C_15
REMARK    8  A    between atoms: N_21  and  C_22
REMARK    9  A    between atoms: N_27  and  C_28
REMARK   10  A    between atoms: C_29  and  C_30
REMARK                            x       y       z     vdW  Elec       q    Type
REMARK                         _______ _______ _______ _____ _____    ______ ____
ROOT
ATOM      1  S   UNL     1       0.691  10.743  19.987  0.00  0.00    +0.000 S 
ATOM      2  O   UNL     1       0.954  11.303  21.295  0.00  0.00    +0.000 OA
ATOM      3  O   UNL     1       1.549  11.006  18.858  0.00  0.00    +0.000 OA
ENDROOT
BRANCH   1   4
ATOM      4  C   UNL     1      -0.968  11.207  19.559  0.00  0.00    +0.000 A 
ATOM      5  C   UNL     1      -1.559  10.726  18.401  0.00  0.00    +0.000 A 
ATOM      6  C   UNL     1      -2.885  11.061  18.138  0.00  0.00    +0.000 A 
ATOM      7  C   UNL     1      -3.606  11.931  18.984  0.00  0.00    +0.000 A 
ATOM      8  C   UNL     1      -2.970  12.473  20.123  0.00  0.00    +0.000 A 
ATOM      9  C   UNL     1      -1.660  12.065  20.418  0.00  0.00    +0.000 A 
ATOM     10  N   UNL     1      -3.652  13.420  20.934  0.00  0.00    +0.000 N 
ATOM     11  C   UNL     1      -3.016  14.137  22.029  0.00  0.00    +0.000 C 
ATOM     12  C   UNL     1      -4.947  13.846  20.632  0.00  0.00    +0.000 A 
ATOM     13  O   UNL     1      -5.534  14.713  21.276  0.00  0.00    +0.000 OA
ATOM     14  C   UNL     1      -5.662  13.201  19.441  0.00  0.00    +0.000 A 
ATOM     15  O   UNL     1      -6.819  13.535  19.202  0.00  0.00    +0.000 OA
ATOM     16  N   UNL     1      -4.954  12.273  18.684  0.00  0.00    +0.000 N 
ATOM     17  C   UNL     1      -5.642  11.650  17.563  0.00  0.00    +0.000 C 
ENDBRANCH   1   4
BRANCH   1  18
ATOM     18  N   UNL     1       0.543   9.035  20.151  0.00  0.00    +0.000 NA
ATOM     19  C   UNL     1      -0.318   8.670  21.315  0.00  0.00    +0.000 C 
BRANCH  18  20
ATOM     20  C   UNL     1       1.870   8.347  20.219  0.00  0.00    +0.000 C 
BRANCH  20  22
ATOM     21  N   UNL     1       3.348   6.843  18.995  0.00  0.00    +0.000 N 
ATOM     22  C   UNL     1       2.284   7.734  18.896  0.00  0.00    +0.000 C 
ATOM     23  O   UNL     1       1.702   8.068  17.866  0.00  0.00    +0.000 OA
ATOM     24  H   UNL     1       3.831   6.844  19.883  0.00  0.00    +0.000 HD
BRANCH  21  29
ATOM     25  C   UNL     1       5.856   3.940  14.703  0.00  0.00    +0.000 C 
ATOM     26  C   UNL     1       5.176   4.694  15.807  0.00  0.00    +0.000 A 
ATOM     27  C   UNL     1       5.501   6.022  16.051  0.00  0.00    +0.000 A 
ATOM     28  C   UNL     1       4.879   6.719  17.087  0.00  0.00    +0.000 A 
ATOM     29  C   UNL     1       3.928   6.115  17.924  0.00  0.00    +0.000 A 
ATOM     30  C   UNL     1       3.564   4.780  17.665  0.00  0.00    +0.000 A 
ATOM     31  C   UNL     1       2.553   3.992  18.456  0.00  0.00    +0.000 C 
ATOM     32  C   UNL     1       4.204   4.084  16.609  0.00  0.00    +0.000 A 
ENDBRANCH  21  29
ENDBRANCH  20  22
ENDBRANCH  18  20
ENDBRANCH   1  18
TORSDOF 5
ENDMDL
MODEL 6
REMARK VINA RESULT:      -7.8      3.667     10.457
REMARK  Name = 
REMARK  10 active torsions:
REMARK  status: ('A' for Active; 'I' for Inactive)
REMARK    1  A    between atoms: C_1  and  C_2
REMARK    2  A    between atoms: C_5  and  N_6
REMARK    3  A    between atoms: C_7  and  C_9
REMARK    4  A    between atoms: C_9  and  N_10
REMARK    5  A    between atoms: N_10  and  C_11
REMARK    6  A    between atoms: N_10  and  S_12
REMARK    7  A    between atoms: S_12  and  C_15
REMARK    8  A    between atoms: N_21  and  C_22
REMARK    9  A    between atoms: N_27  and  C_28
REMARK   10  A    between atoms: C_29  and  C_30
REMARK                            x       y       z     vdW  Elec       q    Type
REMARK                         _______ _______ _______ _____ _____    ______ ____
ROOT
ATOM      1  S   UNL     1       0.704   9.137  21.183  0.00  0.00    +0.000 S 
ATOM      2  O   UNL     1       1.590   9.535  22.255  0.00  0.00    +0.000 OA
ATOM      3  O   UNL     1      -0.591   8.555  21.439  0.00  0.00    +0.000 OA
ENDROOT
BRANCH   1   4
ATOM      4  C   UNL     1       1.627   8.031  20.145  0.00  0.00    +0.000 A 
ATOM      5  C   UNL     1       2.101   8.451  18.912  0.00  0.00    +0.000 A 
ATOM      6  C   UNL     1       2.878   7.572  18.160  0.00  0.00    +0.000 A 
ATOM      7  C   UNL     1       3.127   6.253  18.596  0.00  0.00    +0.000 A 
ATOM      8  C   UNL     1       2.579   5.813  19.820  0.00  0.00    +0.000 A 
ATOM      9  C   UNL     1       1.864   6.732  20.603  0.00  0.00    +0.000 A 
ATOM     10  N   UNL     1       2.744   4.462  20.229  0.00  0.00    +0.000 N 
ATOM     11  C   UNL     1       2.084   3.894  21.393  0.00  0.00    +0.000 C 
ATOM     12  C   UNL     1       3.436   3.538  19.441  0.00  0.00    +0.000 A 
ATOM     13  O   UNL     1       3.536   2.350  19.737  0.00  0.00    +0.000 OA
ATOM     14  C   UNL     1       4.094   4.036  18.151  0.00  0.00    +0.000 A 
ATOM     15  O   UNL     1       4.745   3.238  17.482  0.00  0.00    +0.000 OA
ATOM     16  N   UNL     1       3.908   5.369  17.801  0.00  0.00    +0.000 N 
ATOM     17  C   UNL     1       4.550   5.842  16.582  0.00  0.00    +0.000 C 
ENDBRANCH   1   4
BRANCH   1  18
ATOM     18  N   UNL     1       0.479  10.488  20.138  0.00  0.00    +0.000 NA
ATOM     19  C   UNL     1       1.181  11.700  20.653  0.00  0.00    +0.000 C 
BRANCH  18  20
ATOM     20  C   UNL     1      -0.966  10.769  19.866  0.00  0.00    +0.000 C 
BRANCH  20  22
ATOM     21  N   UNL     1      -1.810  11.956  21.821  0.00  0.00    +0.000 N 
ATOM     22  C   UNL     1      -1.438  12.069  20.485  0.00  0.00    +0.000 C 
ATOM     23  O   UNL     1      -1.490  13.085  19.794  0.00  0.00    +0.000 OA
ATOM     24  H   UNL     1      -1.896  11.011  22.167  0.00  0.00    +0.000 HD
BRANCH  21  29
ATOM     25  C   UNL     1      -3.557  16.340  25.118  0.00  0.00    +0.000 C 
ATOM     26  C   UNL     1      -3.119  15.179  24.275  0.00  0.00    +0.000 A 
ATOM     27  C   UNL     1      -1.786  14.790  24.258  0.00  0.00    +0.000 A 
ATOM     28  C   UNL     1      -1.375  13.720  23.464  0.00  0.00    +0.000 A 
ATOM     29  C   UNL     1      -2.272  13.011  22.649  0.00  0.00    +0.000 A 
ATOM     30  C   UNL     1      -3.633  13.372  22.685  0.00  0.00    +0.000 A 
ATOM     31  C   UNL     1      -4.723  12.708  21.886  0.00  0.00    +0.000 C 
ATOM     32  C   UNL     1      -4.035  14.463  23.496  0.00  0.00    +0.000 A 
ENDBRANCH  21  29
ENDBRANCH  20  22
ENDBRANCH  18  20
ENDBRANCH   1  18
TORSDOF 5
ENDMDL
MODEL 7
REMARK VINA RESULT:      -7.8      3.139      9.959
REMARK  Name = 
REMARK  10 active torsions:
REMARK  status: ('A' for Active; 'I' for Inactive)
REMARK    1  A    between atoms: C_1  and  C_2
REMARK    2  A    between atoms: C_5  and  N_6
REMARK    3  A    between atoms: C_7  and  C_9
REMARK    4  A    between atoms: C_9  and  N_10
REMARK    5  A    between atoms: N_10  and  C_11
REMARK    6  A    between atoms: N_10  and  S_12
REMARK    7  A    between atoms: S_12  and  C_15
REMARK    8  A    between atoms: N_21  and  C_22
REMARK    9  A    between atoms: N_27  and  C_28
REMARK   10  A    between atoms: C_29  and  C_30
REMARK                            x       y       z     vdW  Elec       q    Type
REMARK                         _______ _______ _______ _____ _____    ______ ____
ROOT
ATOM      1  S   UNL     1       0.542   9.995  20.114  0.00  0.00    +0.000 S 
ATOM      2  O   UNL     1       0.989  10.062  21.489  0.00  0.00    +0.000 OA
ATOM      3  O   UNL     1      -0.824   9.688  19.770  0.00  0.00    +0.000 OA
ENDROOT
BRANCH   1   4
ATOM      4  C   UNL     1       1.608   8.839  19.290  0.00  0.00    +0.000 A 
ATOM      5  C   UNL     1       2.177   9.153  18.065  0.00  0.00    +0.000 A 
ATOM      6  C   UNL     1       3.060   8.245  17.486  0.00  0.00    +0.000 A 
ATOM      7  C   UNL     1       3.326   6.994  18.083  0.00  0.00    +0.000 A 
ATOM      8  C   UNL     1       2.685   6.655  19.295  0.00  0.00    +0.000 A 
ATOM      9  C   UNL     1       1.859   7.610  19.906  0.00  0.00    +0.000 A 
ATOM     10  N   UNL     1       2.871   5.365  19.861  0.00  0.00    +0.000 N 
ATOM     11  C   UNL     1       2.131   4.887  21.017  0.00  0.00    +0.000 C 
ATOM     12  C   UNL     1       3.675   4.403  19.244  0.00  0.00    +0.000 A 
ATOM     13  O   UNL     1       3.800   3.259  19.675  0.00  0.00    +0.000 OA
ATOM     14  C   UNL     1       4.429   4.798  17.971  0.00  0.00    +0.000 A 
ATOM     15  O   UNL     1       5.176   3.972  17.453  0.00  0.00    +0.000 OA
ATOM     16  N   UNL     1       4.218   6.076  17.462  0.00  0.00    +0.000 N 
ATOM     17  C   UNL     1       4.949   6.453  16.261  0.00  0.00    +0.000 C 
ENDBRANCH   1   4
BRANCH   1  18
ATOM     18  N   UNL     1       0.964  11.472  19.336  0.00  0.00    +0.000 NA
ATOM     19  C   UNL     1       1.649  12.409  20.276  0.00  0.00    +0.000 C 
BRANCH  18  20
ATOM     20  C   UNL     1      -0.207  12.126  18.672  0.00  0.00    +0.000 C 
BRANCH  20  22
ATOM     21  N   UNL     1      -2.190  12.162  20.090  0.00  0.00    +0.000 N 
ATOM     22  C   UNL     1      -1.087  12.884  19.646  0.00  0.00    +0.000 C 
ATOM     23  O   UNL     1      -0.802  14.042  19.944  0.00  0.00    +0.000 OA
ATOM     24  H   UNL     1      -2.376  11.305  19.587  0.00  0.00    +0.000 HD
BRANCH  21  29
ATOM     25  C   UNL     1      -6.275  13.923  23.744  0.00  0.00    +0.000 C 
ATOM     26  C   UNL     1      -5.192  13.485  22.804  0.00  0.00    +0.000 A 
ATOM     27  C   UNL     1      -5.341  13.659  21.434  0.00  0.00    +0.000 A 
ATOM     28  C   UNL     1      -4.341  13.238  20.558  0.00  0.00    +0.000 A 
ATOM     29  C   UNL     1      -3.167  12.616  21.013  0.00  0.00    +0.000 A 
ATOM     30  C   UNL     1      -2.988  12.466  22.402  0.00  0.00    +0.000 A 
ATOM     31  C   UNL     1      -1.785  11.835  23.054  0.00  0.00    +0.000 C 
ATOM     32  C   UNL     1      -4.014  12.897  23.279  0.00  0.00    +0.000 A 
ENDBRANCH  21  29
ENDBRANCH  20  22
ENDBRANCH  18  20
ENDBRANCH   1  18
TORSDOF 5
ENDMDL
MODEL 8
REMARK VINA RESULT:      -7.7      3.842      9.973
REMARK  Name = 
REMARK  10 active torsions:
REMARK  status: ('A' for Active; 'I' for Inactive)
REMARK    1  A    between atoms: C_1  and  C_2
REMARK    2  A    between atoms: C_5  and  N_6
REMARK    3  A    between atoms: C_7  and  C_9
REMARK    4  A    between atoms: C_9  and  N_10
REMARK    5  A    between atoms: N_10  and  C_11
REMARK    6  A    between atoms: N_10  and  S_12
REMARK    7  A    between atoms: S_12  and  C_15
REMARK    8  A    between atoms: N_21  and  C_22
REMARK    9  A    between atoms: N_27  and  C_28
REMARK   10  A    between atoms: C_29  and  C_30
REMARK                            x       y       z     vdW  Elec       q    Type
REMARK                         _______ _______ _______ _____ _____    ______ ____
ROOT
ATOM      1  S   UNL     1       0.483   9.353  21.009  0.00  0.00    +0.000 S 
ATOM      2  O   UNL     1       1.344   9.915  22.027  0.00  0.00    +0.000 OA
ATOM      3  O   UNL     1      -0.686   8.578  21.342  0.00  0.00    +0.000 OA
ENDROOT
BRANCH   1   4
ATOM      4  C   UNL     1       1.522   8.384  19.943  0.00  0.00    +0.000 A 
ATOM      5  C   UNL     1       1.996   8.910  18.752  0.00  0.00    +0.000 A 
ATOM      6  C   UNL     1       2.862   8.140  17.979  0.00  0.00    +0.000 A 
ATOM      7  C   UNL     1       3.204   6.821  18.349  0.00  0.00    +0.000 A 
ATOM      8  C   UNL     1       2.657   6.270  19.529  0.00  0.00    +0.000 A 
ATOM      9  C   UNL     1       1.848   7.084  20.337  0.00  0.00    +0.000 A 
ATOM     10  N   UNL     1       2.918   4.915  19.868  0.00  0.00    +0.000 N 
ATOM     11  C   UNL     1       2.272   4.231  20.977  0.00  0.00    +0.000 C 
ATOM     12  C   UNL     1       3.704   4.095  19.054  0.00  0.00    +0.000 A 
ATOM     13  O   UNL     1       3.890   2.903  19.287  0.00  0.00    +0.000 OA
ATOM     14  C   UNL     1       4.357   4.715  17.817  0.00  0.00    +0.000 A 
ATOM     15  O   UNL     1       5.089   4.011  17.127  0.00  0.00    +0.000 OA
ATOM     16  N   UNL     1       4.076   6.048  17.534  0.00  0.00    +0.000 N 
ATOM     17  C   UNL     1       4.712   6.639  16.365  0.00  0.00    +0.000 C 
ENDBRANCH   1   4
BRANCH   1  18
ATOM     18  N   UNL     1      -0.007  10.624  19.955  0.00  0.00    +0.000 NA
ATOM     19  C   UNL     1      -0.513  11.803  20.718  0.00  0.00    +0.000 C 
BRANCH  18  20
ATOM     20  C   UNL     1      -1.003  10.169  18.933  0.00  0.00    +0.000 C 
BRANCH  20  22
ATOM     21  N   UNL     1      -3.298  10.985  18.834  0.00  0.00    +0.000 N 
ATOM     22  C   UNL     1      -1.970  11.263  18.527  0.00  0.00    +0.000 C 
ATOM     23  O   UNL     1      -1.545  12.264  17.953  0.00  0.00    +0.000 OA
ATOM     24  H   UNL     1      -3.485  10.034  19.119  0.00  0.00    +0.000 HD
BRANCH  21  29
ATOM     25  C   UNL     1      -7.881  14.296  17.755  0.00  0.00    +0.000 C 
ATOM     26  C   UNL     1      -6.671  13.459  18.040  0.00  0.00    +0.000 A 
ATOM     27  C   UNL     1      -6.145  12.631  17.056  0.00  0.00    +0.000 A 
ATOM     28  C   UNL     1      -5.028  11.841  17.325  0.00  0.00    +0.000 A 
ATOM     29  C   UNL     1      -4.406  11.835  18.584  0.00  0.00    +0.000 A 
ATOM     30  C   UNL     1      -4.908  12.696  19.579  0.00  0.00    +0.000 A 
ATOM     31  C   UNL     1      -4.351  12.822  20.973  0.00  0.00    +0.000 C 
ATOM     32  C   UNL     1      -6.044  13.493  19.291  0.00  0.00    +0.000 A 
ENDBRANCH  21  29
ENDBRANCH  20  22
ENDBRANCH  18  20
ENDBRANCH   1  18
TORSDOF 5
ENDMDL
MODEL 9
REMARK VINA RESULT:      -7.7      3.934      6.101
REMARK  Name = 
REMARK  10 active torsions:
REMARK  status: ('A' for Active; 'I' for Inactive)
REMARK    1  A    between atoms: C_1  and  C_2
REMARK    2  A    between atoms: C_5  and  N_6
REMARK    3  A    between atoms: C_7  and  C_9
REMARK    4  A    between atoms: C_9  and  N_10
REMARK    5  A    between atoms: N_10  and  C_11
REMARK    6  A    between atoms: N_10  and  S_12
REMARK    7  A    between atoms: S_12  and  C_15
REMARK    8  A    between atoms: N_21  and  C_22
REMARK    9  A    between atoms: N_27  and  C_28
REMARK   10  A    between atoms: C_29  and  C_30
REMARK                            x       y       z     vdW  Elec       q    Type
REMARK                         _______ _______ _______ _____ _____    ______ ____
ROOT
ATOM      1  S   UNL     1       2.827   5.077  20.306  0.00  0.00    +0.000 S 
ATOM      2  O   UNL     1       2.411   4.748  21.652  0.00  0.00    +0.000 OA
ATOM      3  O   UNL     1       4.206   4.998  19.892  0.00  0.00    +0.000 OA
ENDROOT
BRANCH   1   4
ATOM      4  C   UNL     1       2.230   6.717  19.977  0.00  0.00    +0.000 A 
ATOM      5  C   UNL     1       2.375   7.281  18.719  0.00  0.00    +0.000 A 
ATOM      6  C   UNL     1       1.833   8.543  18.486  0.00  0.00    +0.000 A 
ATOM      7  C   UNL     1       1.209   9.278  19.517  0.00  0.00    +0.000 A 
ATOM      8  C   UNL     1       1.131   8.723  20.813  0.00  0.00    +0.000 A 
ATOM      9  C   UNL     1       1.612   7.420  21.015  0.00  0.00    +0.000 A 
ATOM     10  N   UNL     1       0.589   9.486  21.882  0.00  0.00    +0.000 N 
ATOM     11  C   UNL     1       0.614   9.047  23.269  0.00  0.00    +0.000 C 
ATOM     12  C   UNL     1       0.130  10.791  21.691  0.00  0.00    +0.000 A 
ATOM     13  O   UNL     1      -0.281  11.497  22.609  0.00  0.00    +0.000 OA
ATOM     14  C   UNL     1       0.145  11.363  20.271  0.00  0.00    +0.000 A 
ATOM     15  O   UNL     1      -0.304  12.492  20.090  0.00  0.00    +0.000 OA
ATOM     16  N   UNL     1       0.679  10.573  19.259  0.00  0.00    +0.000 N 
ATOM     17  C   UNL     1       0.677  11.114  17.907  0.00  0.00    +0.000 C 
ENDBRANCH   1   4
BRANCH   1  18
ATOM     18  N   UNL     1       1.890   4.140  19.206  0.00  0.00    +0.000 NA
ATOM     19  C   UNL     1       0.655   3.609  19.854  0.00  0.00    +0.000 C 
BRANCH  18  20
ATOM     20  C   UNL     1       2.684   3.043  18.567  0.00  0.00    +0.000 C 
BRANCH  20  22
ATOM     21  N   UNL     1       4.675   3.629  17.287  0.00  0.00    +0.000 N 
ATOM     22  C   UNL     1       3.295   3.454  17.242  0.00  0.00    +0.000 C 
ATOM     23  O   UNL     1       2.566   3.628  16.268  0.00  0.00    +0.000 OA
ATOM     24  H   UNL     1       5.078   3.641  18.214  0.00  0.00    +0.000 HD
BRANCH  21  29
ATOM     25  C   UNL     1       7.900   5.176  12.778  0.00  0.00    +0.000 C 
ATOM     26  C   UNL     1       7.083   4.755  13.962  0.00  0.00    +0.000 A 
ATOM     27  C   UNL     1       5.903   4.044  13.781  0.00  0.00    +0.000 A 
ATOM     28  C   UNL     1       5.134   3.665  14.881  0.00  0.00    +0.000 A 
ATOM     29  C   UNL     1       5.504   3.994  16.196  0.00  0.00    +0.000 A 
ATOM     30  C   UNL     1       6.716   4.683  16.395  0.00  0.00    +0.000 A 
ATOM     31  C   UNL     1       7.262   5.098  17.736  0.00  0.00    +0.000 C 
ATOM     32  C   UNL     1       7.485   5.062  15.267  0.00  0.00    +0.000 A 
ENDBRANCH  21  29
ENDBRANCH  20  22
ENDBRANCH  18  20
ENDBRANCH   1  18
TORSDOF 5
ENDMDL
