MODEL 1
REMARK VINA RESULT:      -6.2      0.000      0.000
REMARK  Name = 
REMARK  5 active torsions:
REMARK  status: ('A' for Active; 'I' for Inactive)
REMARK    1  A    between atoms: C_1  and  C_2
REMARK    2  A    between atoms: C_2  and  N_3
REMARK    3  A    between atoms: C_7  and  C_8
REMARK    4  A    between atoms: C_13  and  C_14
REMARK    5  A    between atoms: C_14  and  N_15
REMARK                            x       y       z     vdW  Elec       q    Type
REMARK                         _______ _______ _______ _____ _____    ______ ____
ROOT
ATOM      1  C   UNL     1       3.318   4.269  19.797  0.00  0.00    +0.000 C 
ATOM      2  O   UNL     1       4.007   3.074  19.406  0.00  0.00    +0.000 OA
ATOM      3  C   UNL     1       3.678   2.609  18.094  0.00  0.00    +0.000 C 
ATOM      4  C   UNL     1       2.188   2.369  17.891  0.00  0.00    +0.000 C 
ATOM      5  C   UNL     1       1.307   3.479  18.454  0.00  0.00    +0.000 C 
ATOM      6  C   UNL     1       1.796   3.984  19.827  0.00  0.00    +0.000 C 
ENDROOT
BRANCH   1  11
ATOM      7  N   UNL     1       5.113   5.637  18.616  0.00  0.00    +0.000 N 
ATOM      8  N   UNL     1       5.279   6.485  17.577  0.00  0.00    +0.000 NA
ATOM      9  C   UNL     1       4.045   6.900  17.300  0.00  0.00    +0.000 A 
ATOM     10  C   UNL     1       3.092   6.318  18.151  0.00  0.00    +0.000 A 
ATOM     11  C   UNL     1       3.783   5.386  18.898  0.00  0.00    +0.000 A 
BRANCH   7  13
ATOM     12  C   UNL     1       7.582   5.909  18.924  0.00  0.00    +0.000 C 
ATOM     13  C   UNL     1       6.298   5.215  19.343  0.00  0.00    +0.000 C 
ENDBRANCH   7  13
ENDBRANCH   1  11
BRANCH   6  14
ATOM     14  C   UNL     1       1.501   2.936  20.929  0.00  0.00    +0.000 C 
BRANCH  14  15
ATOM     15  N   UNL     1       2.492   2.966  22.005  0.00  0.00    +0.000 NA
ATOM     16  H   UNL     1       3.403   2.686  21.646  0.00  0.00    +0.000 HD
ATOM     17  H   UNL     1       2.241   2.283  22.721  0.00  0.00    +0.000 HD
ENDBRANCH  14  15
ENDBRANCH   6  14
TORSDOF 4
ENDMDL
MODEL 2
REMARK VINA RESULT:      -6.2      2.150      2.664
REMARK  Name = 
REMARK  5 active torsions:
REMARK  status: ('A' for Active; 'I' for Inactive)
REMARK    1  A    between atoms: C_1  and  C_2
REMARK    2  A    between atoms: C_2  and  N_3
REMARK    3  A    between atoms: C_7  and  C_8
REMARK    4  A    between atoms: C_13  and  C_14
REMARK    5  A    between atoms: C_14  and  N_15
REMARK                            x       y       z     vdW  Elec       q    Type
REMARK                         _______ _______ _______ _____ _____    ______ ____
ROOT
ATOM      1  C   UNL     1       4.437   5.300  18.226  0.00  0.00    +0.000 C 
ATOM      2  O   UNL     1       4.777   4.439  19.322  0.00  0.00    +0.000 OA
ATOM      3  C   UNL     1       4.615   3.045  19.047  0.00  0.00    +0.000 C 
ATOM      4  C   UNL     1       3.209   2.677  18.591  0.00  0.00    +0.000 C 
ATOM      5  C   UNL     1       2.627   3.640  17.562  0.00  0.00    +0.000 C 
ATOM      6  C   UNL     1       2.936   5.114  17.890  0.00  0.00    +0.000 C 
ENDROOT
BRANCH   1  11
ATOM      7  N   UNL     1       6.771   5.312  17.208  0.00  0.00    +0.000 N 
ATOM      8  N   UNL     1       7.493   4.741  16.219  0.00  0.00    +0.000 NA
ATOM      9  C   UNL     1       6.573   4.237  15.400  0.00  0.00    +0.000 A 
ATOM     10  C   UNL     1       5.269   4.476  15.863  0.00  0.00    +0.000 A 
ATOM     11  C   UNL     1       5.419   5.041  17.113  0.00  0.00    +0.000 A 
BRANCH   7  13
ATOM     12  C   UNL     1       7.655   7.616  17.629  0.00  0.00    +0.000 C 
ATOM     13  C   UNL     1       7.465   6.196  18.131  0.00  0.00    +0.000 C 
ENDBRANCH   7  13
ENDBRANCH   1  11
BRANCH   6  14
ATOM     14  C   UNL     1       2.087   5.593  19.094  0.00  0.00    +0.000 C 
BRANCH  14  15
ATOM     15  N   UNL     1       2.839   6.471  19.993  0.00  0.00    +0.000 NA
ATOM     16  H   UNL     1       2.239   7.220  20.330  0.00  0.00    +0.000 HD
ATOM     17  H   UNL     1       3.599   6.918  19.479  0.00  0.00    +0.000 HD
ENDBRANCH  14  15
ENDBRANCH   6  14
TORSDOF 4
ENDMDL
MODEL 3
REMARK VINA RESULT:      -6.2      1.813      4.679
REMARK  Name = 
REMARK  5 active torsions:
REMARK  status: ('A' for Active; 'I' for Inactive)
REMARK    1  A    between atoms: C_1  and  C_2
REMARK    2  A    between atoms: C_2  and  N_3
REMARK    3  A    between atoms: C_7  and  C_8
REMARK    4  A    between atoms: C_13  and  C_14
REMARK    5  A    between atoms: C_14  and  N_15
REMARK                            x       y       z     vdW  Elec       q    Type
REMARK                         _______ _______ _______ _____ _____    ______ ____
ROOT
ATOM      1  C   UNL     1       5.094   4.435  19.154  0.00  0.00    +0.000 C 
ATOM      2  O   UNL     1       4.367   5.587  19.600  0.00  0.00    +0.000 OA
ATOM      3  C   UNL     1       3.613   6.239  18.574  0.00  0.00    +0.000 C 
ATOM      4  C   UNL     1       4.455   6.661  17.378  0.00  0.00    +0.000 C 
ATOM      5  C   UNL     1       5.441   5.593  16.916  0.00  0.00    +0.000 C 
ATOM      6  C   UNL     1       6.133   4.877  18.093  0.00  0.00    +0.000 C 
ENDROOT
BRANCH   1  11
ATOM      7  N   UNL     1       3.147   2.851  19.581  0.00  0.00    +0.000 N 
ATOM      8  N   UNL     1       2.185   2.161  18.928  0.00  0.00    +0.000 NA
ATOM      9  C   UNL     1       2.613   2.129  17.668  0.00  0.00    +0.000 A 
ATOM     10  C   UNL     1       3.838   2.798  17.511  0.00  0.00    +0.000 A 
ATOM     11  C   UNL     1       4.094   3.390  18.731  0.00  0.00    +0.000 A 
BRANCH   7  13
ATOM     12  C   UNL     1       1.738   2.810  21.649  0.00  0.00    +0.000 C 
ATOM     13  C   UNL     1       3.126   2.832  21.034  0.00  0.00    +0.000 C 
ENDBRANCH   7  13
ENDBRANCH   1  11
BRANCH   6  14
ATOM     14  C   UNL     1       7.172   5.811  18.763  0.00  0.00    +0.000 C 
BRANCH  14  15
ATOM     15  N   UNL     1       7.517   5.379  20.118  0.00  0.00    +0.000 NA
ATOM     16  H   UNL     1       6.779   5.645  20.766  0.00  0.00    +0.000 HD
ATOM     17  H   UNL     1       8.361   5.861  20.427  0.00  0.00    +0.000 HD
ENDBRANCH  14  15
ENDBRANCH   6  14
TORSDOF 4
ENDMDL
MODEL 4
REMARK VINA RESULT:      -6.1      2.340      2.735
REMARK  Name = 
REMARK  5 active torsions:
REMARK  status: ('A' for Active; 'I' for Inactive)
REMARK    1  A    between atoms: C_1  and  C_2
REMARK    2  A    between atoms: C_2  and  N_3
REMARK    3  A    between atoms: C_7  and  C_8
REMARK    4  A    between atoms: C_13  and  C_14
REMARK    5  A    between atoms: C_14  and  N_15
REMARK                            x       y       z     vdW  Elec       q    Type
REMARK                         _______ _______ _______ _____ _____    ______ ____
ROOT
ATOM      1  C   UNL     1       4.607   3.723  18.134  0.00  0.00    +0.000 C 
ATOM      2  O   UNL     1       3.724   2.895  17.365  0.00  0.00    +0.000 OA
ATOM      3  C   UNL     1       2.438   3.472  17.125  0.00  0.00    +0.000 C 
ATOM      4  C   UNL     1       1.704   3.868  18.399  0.00  0.00    +0.000 C 
ATOM      5  C   UNL     1       2.586   4.585  19.416  0.00  0.00    +0.000 C 
ATOM      6  C   UNL     1       3.987   3.951  19.535  0.00  0.00    +0.000 C 
ENDROOT
BRANCH   1  11
ATOM      7  N   UNL     1       5.441   4.910  16.041  0.00  0.00    +0.000 N 
ATOM      8  N   UNL     1       5.365   6.098  15.402  0.00  0.00    +0.000 NA
ATOM      9  C   UNL     1       4.935   6.940  16.339  0.00  0.00    +0.000 A 
ATOM     10  C   UNL     1       4.730   6.296  17.570  0.00  0.00    +0.000 A 
ATOM     11  C   UNL     1       4.916   4.952  17.319  0.00  0.00    +0.000 A 
BRANCH   7  13
ATOM     12  C   UNL     1       6.200   3.941  13.862  0.00  0.00    +0.000 C 
ATOM     13  C   UNL     1       6.141   3.825  15.374  0.00  0.00    +0.000 C 
ENDBRANCH   7  13
ENDBRANCH   1  11
BRANCH   6  14
ATOM     14  C   UNL     1       3.909   2.595  20.280  0.00  0.00    +0.000 C 
BRANCH  14  15
ATOM     15  N   UNL     1       5.008   1.697  19.918  0.00  0.00    +0.000 NA
ATOM     16  H   UNL     1       4.639   0.860  19.472  0.00  0.00    +0.000 HD
ATOM     17  H   UNL     1       5.489   1.387  20.763  0.00  0.00    +0.000 HD
ENDBRANCH  14  15
ENDBRANCH   6  14
TORSDOF 4
ENDMDL
MODEL 5
REMARK VINA RESULT:      -6.0      1.802      1.988
REMARK  Name = 
REMARK  5 active torsions:
REMARK  status: ('A' for Active; 'I' for Inactive)
REMARK    1  A    between atoms: C_1  and  C_2
REMARK    2  A    between atoms: C_2  and  N_3
REMARK    3  A    between atoms: C_7  and  C_8
REMARK    4  A    between atoms: C_13  and  C_14
REMARK    5  A    between atoms: C_14  and  N_15
REMARK                            x       y       z     vdW  Elec       q    Type
REMARK                         _______ _______ _______ _____ _____    ______ ____
ROOT
ATOM      1  C   UNL     1       4.027   4.484  18.824  0.00  0.00    +0.000 C 
ATOM      2  O   UNL     1       4.114   3.201  19.461  0.00  0.00    +0.000 OA
ATOM      3  C   UNL     1       3.702   2.108  18.636  0.00  0.00    +0.000 C 
ATOM      4  C   UNL     1       2.287   2.257  18.093  0.00  0.00    +0.000 C 
ATOM      5  C   UNL     1       1.979   3.653  17.564  0.00  0.00    +0.000 C 
ATOM      6  C   UNL     1       2.546   4.767  18.467  0.00  0.00    +0.000 C 
ENDROOT
BRANCH   1  11
ATOM      7  N   UNL     1       6.364   4.762  17.852  0.00  0.00    +0.000 N 
ATOM      8  N   UNL     1       7.097   4.447  16.761  0.00  0.00    +0.000 NA
ATOM      9  C   UNL     1       6.186   4.136  15.841  0.00  0.00    +0.000 A 
ATOM     10  C   UNL     1       4.877   4.244  16.339  0.00  0.00    +0.000 A 
ATOM     11  C   UNL     1       5.016   4.504  17.687  0.00  0.00    +0.000 A 
BRANCH   7  13
ATOM     12  C   UNL     1       7.897   6.607  18.567  0.00  0.00    +0.000 C 
ATOM     13  C   UNL     1       7.043   5.415  18.959  0.00  0.00    +0.000 C 
ENDBRANCH   7  13
ENDBRANCH   1  11
BRANCH   6  14
ATOM     14  C   UNL     1       1.724   4.878  19.776  0.00  0.00    +0.000 C 
BRANCH  14  15
ATOM     15  N   UNL     1       2.554   5.241  20.926  0.00  0.00    +0.000 NA
ATOM     16  H   UNL     1       3.054   6.107  20.734  0.00  0.00    +0.000 HD
ATOM     17  H   UNL     1       3.265   4.524  21.076  0.00  0.00    +0.000 HD
ENDBRANCH  14  15
ENDBRANCH   6  14
TORSDOF 4
ENDMDL
MODEL 6
REMARK VINA RESULT:      -6.0      2.233      5.057
REMARK  Name = 
REMARK  5 active torsions:
REMARK  status: ('A' for Active; 'I' for Inactive)
REMARK    1  A    between atoms: C_1  and  C_2
REMARK    2  A    between atoms: C_2  and  N_3
REMARK    3  A    between atoms: C_7  and  C_8
REMARK    4  A    between atoms: C_13  and  C_14
REMARK    5  A    between atoms: C_14  and  N_15
REMARK                            x       y       z     vdW  Elec       q    Type
REMARK                         _______ _______ _______ _____ _____    ______ ____
ROOT
ATOM      1  C   UNL     1       5.553   4.450  17.624  0.00  0.00    +0.000 C 
ATOM      2  O   UNL     1       6.670   4.329  18.516  0.00  0.00    +0.000 OA
ATOM      3  C   UNL     1       7.096   5.566  19.095  0.00  0.00    +0.000 C 
ATOM      4  C   UNL     1       7.444   6.630  18.063  0.00  0.00    +0.000 C 
ATOM      5  C   UNL     1       6.437   6.730  16.923  0.00  0.00    +0.000 C 
ATOM      6  C   UNL     1       5.960   5.349  16.430  0.00  0.00    +0.000 C 
ENDROOT
BRANCH   1  11
ATOM      7  N   UNL     1       3.798   4.135  19.441  0.00  0.00    +0.000 N 
ATOM      8  N   UNL     1       2.939   4.839  20.211  0.00  0.00    +0.000 NA
ATOM      9  C   UNL     1       2.835   6.010  19.588  0.00  0.00    +0.000 A 
ATOM     10  C   UNL     1       3.627   6.061  18.429  0.00  0.00    +0.000 A 
ATOM     11  C   UNL     1       4.361   4.893  18.432  0.00  0.00    +0.000 A 
BRANCH   7  13
ATOM     12  C   UNL     1       3.160   1.826  18.715  0.00  0.00    +0.000 C 
ATOM     13  C   UNL     1       3.918   2.708  19.691  0.00  0.00    +0.000 C 
ENDBRANCH   7  13
ENDBRANCH   1  11
BRANCH   6  14
ATOM     14  C   UNL     1       7.080   4.643  15.626  0.00  0.00    +0.000 C 
BRANCH  14  15
ATOM     15  N   UNL     1       7.572   5.463  14.517  0.00  0.00    +0.000 NA
ATOM     16  H   UNL     1       6.787   5.833  13.985  0.00  0.00    +0.000 HD
ATOM     17  H   UNL     1       8.110   4.882  13.873  0.00  0.00    +0.000 HD
ENDBRANCH  14  15
ENDBRANCH   6  14
TORSDOF 4
ENDMDL
MODEL 7
REMARK VINA RESULT:      -5.9      2.407      3.017
REMARK  Name = 
REMARK  5 active torsions:
REMARK  status: ('A' for Active; 'I' for Inactive)
REMARK    1  A    between atoms: C_1  and  C_2
REMARK    2  A    between atoms: C_2  and  N_3
REMARK    3  A    between atoms: C_7  and  C_8
REMARK    4  A    between atoms: C_13  and  C_14
REMARK    5  A    between atoms: C_14  and  N_15
REMARK                            x       y       z     vdW  Elec       q    Type
REMARK                         _______ _______ _______ _____ _____    ______ ____
ROOT
ATOM      1  C   UNL     1       3.942   5.058  17.340  0.00  0.00    +0.000 C 
ATOM      2  O   UNL     1       4.379   5.204  18.698  0.00  0.00    +0.000 OA
ATOM      3  C   UNL     1       5.120   4.088  19.199  0.00  0.00    +0.000 C 
ATOM      4  C   UNL     1       4.370   2.767  19.096  0.00  0.00    +0.000 C 
ATOM      5  C   UNL     1       3.668   2.563  17.758  0.00  0.00    +0.000 C 
ATOM      6  C   UNL     1       2.980   3.847  17.250  0.00  0.00    +0.000 C 
ENDROOT
BRANCH   1  11
ATOM      7  N   UNL     1       6.220   5.907  16.581  0.00  0.00    +0.000 N 
ATOM      8  N   UNL     1       7.318   5.514  15.898  0.00  0.00    +0.000 NA
ATOM      9  C   UNL     1       6.904   4.452  15.210  0.00  0.00    +0.000 A 
ATOM     10  C   UNL     1       5.553   4.160  15.454  0.00  0.00    +0.000 A 
ATOM     11  C   UNL     1       5.166   5.021  16.461  0.00  0.00    +0.000 A 
BRANCH   7  13
ATOM     12  C   UNL     1       7.639   7.704  17.591  0.00  0.00    +0.000 C 
ATOM     13  C   UNL     1       6.252   7.210  17.224  0.00  0.00    +0.000 C 
ENDBRANCH   7  13
ENDBRANCH   1  11
BRANCH   6  14
ATOM     14  C   UNL     1       1.709   4.149  18.082  0.00  0.00    +0.000 C 
BRANCH  14  15
ATOM     15  N   UNL     1       0.876   2.961  18.276  0.00  0.00    +0.000 NA
ATOM     16  H   UNL     1       1.282   2.167  17.786  0.00  0.00    +0.000 HD
ATOM     17  H   UNL     1      -0.044   3.116  17.864  0.00  0.00    +0.000 HD
ENDBRANCH  14  15
ENDBRANCH   6  14
TORSDOF 4
ENDMDL
MODEL 8
REMARK VINA RESULT:      -5.9      2.288      4.743
REMARK  Name = 
REMARK  5 active torsions:
REMARK  status: ('A' for Active; 'I' for Inactive)
REMARK    1  A    between atoms: C_1  and  C_2
REMARK    2  A    between atoms: C_2  and  N_3
REMARK    3  A    between atoms: C_7  and  C_8
REMARK    4  A    between atoms: C_13  and  C_14
REMARK    5  A    between atoms: C_14  and  N_15
REMARK                            x       y       z     vdW  Elec       q    Type
REMARK                         _______ _______ _______ _____ _____    ______ ____
ROOT
ATOM      1  C   UNL     1       5.288   5.397  18.513  0.00  0.00    +0.000 C 
ATOM      2  O   UNL     1       5.210   6.596  17.730  0.00  0.00    +0.000 OA
ATOM      3  C   UNL     1       5.340   6.387  16.322  0.00  0.00    +0.000 C 
ATOM      4  C   UNL     1       6.623   5.665  15.932  0.00  0.00    +0.000 C 
ATOM      5  C   UNL     1       6.949   4.472  16.823  0.00  0.00    +0.000 C 
ATOM      6  C   UNL     1       6.685   4.758  18.315  0.00  0.00    +0.000 C 
ENDROOT
BRANCH   1  11
ATOM      7  N   UNL     1       2.801   4.850  18.545  0.00  0.00    +0.000 N 
ATOM      8  N   UNL     1       1.874   4.114  17.892  0.00  0.00    +0.000 NA
ATOM      9  C   UNL     1       2.593   3.221  17.215  0.00  0.00    +0.000 A 
ATOM     10  C   UNL     1       3.972   3.387  17.425  0.00  0.00    +0.000 A 
ATOM     11  C   UNL     1       4.095   4.542  18.169  0.00  0.00    +0.000 A 
BRANCH   7  13
ATOM     12  C   UNL     1       1.533   5.071  20.691  0.00  0.00    +0.000 C 
ATOM     13  C   UNL     1       2.340   5.743  19.595  0.00  0.00    +0.000 C 
ENDBRANCH   7  13
ENDBRANCH   1  11
BRANCH   6  14
ATOM     14  C   UNL     1       7.762   5.715  18.884  0.00  0.00    +0.000 C 
BRANCH  14  15
ATOM     15  N   UNL     1       7.976   5.523  20.320  0.00  0.00    +0.000 NA
ATOM     16  H   UNL     1       7.267   4.896  20.696  0.00  0.00    +0.000 HD
ATOM     17  H   UNL     1       7.863   6.412  20.805  0.00  0.00    +0.000 HD
ENDBRANCH  14  15
ENDBRANCH   6  14
TORSDOF 4
ENDMDL
MODEL 9
REMARK VINA RESULT:      -5.9      1.734      2.141
REMARK  Name = 
REMARK  5 active torsions:
REMARK  status: ('A' for Active; 'I' for Inactive)
REMARK    1  A    between atoms: C_1  and  C_2
REMARK    2  A    between atoms: C_2  and  N_3
REMARK    3  A    between atoms: C_7  and  C_8
REMARK    4  A    between atoms: C_13  and  C_14
REMARK    5  A    between atoms: C_14  and  N_15
REMARK                            x       y       z     vdW  Elec       q    Type
REMARK                         _______ _______ _______ _____ _____    ______ ____
ROOT
ATOM      1  C   UNL     1       3.752   4.493  19.107  0.00  0.00    +0.000 C 
ATOM      2  O   UNL     1       3.537   3.751  17.898  0.00  0.00    +0.000 OA
ATOM      3  C   UNL     1       2.168   3.679  17.490  0.00  0.00    +0.000 C 
ATOM      4  C   UNL     1       1.248   3.099  18.555  0.00  0.00    +0.000 C 
ATOM      5  C   UNL     1       1.506   3.650  19.953  0.00  0.00    +0.000 C 
ATOM      6  C   UNL     1       3.010   3.786  20.268  0.00  0.00    +0.000 C 
ENDROOT
BRANCH   1  11
ATOM      7  N   UNL     1       4.000   6.710  17.880  0.00  0.00    +0.000 N 
ATOM      8  N   UNL     1       3.326   7.853  17.620  0.00  0.00    +0.000 NA
ATOM      9  C   UNL     1       2.361   7.872  18.536  0.00  0.00    +0.000 A 
ATOM     10  C   UNL     1       2.410   6.747  19.375  0.00  0.00    +0.000 A 
ATOM     11  C   UNL     1       3.384   5.930  18.840  0.00  0.00    +0.000 A 
BRANCH   7  13
ATOM     12  C   UNL     1       5.211   6.125  15.769  0.00  0.00    +0.000 C 
ATOM     13  C   UNL     1       5.287   6.521  17.233  0.00  0.00    +0.000 C 
ENDBRANCH   7  13
ENDBRANCH   1  11
BRANCH   6  14
ATOM     14  C   UNL     1       3.645   2.391  20.498  0.00  0.00    +0.000 C 
BRANCH  14  15
ATOM     15  N   UNL     1       4.990   2.291  19.929  0.00  0.00    +0.000 NA
ATOM     16  H   UNL     1       5.170   1.336  19.628  0.00  0.00    +0.000 HD
ATOM     17  H   UNL     1       5.683   2.504  20.647  0.00  0.00    +0.000 HD
ENDBRANCH  14  15
ENDBRANCH   6  14
TORSDOF 4
ENDMDL
