MODEL 1
REMARK VINA RESULT:      -8.8      0.000      0.000
REMARK  Name = 
REMARK  3 active torsions:
REMARK  status: ('A' for Active; 'I' for Inactive)
REMARK    1  A    between atoms: O_1  and  C_2
REMARK    2  A    between atoms: C_5  and  N_6
REMARK    3  A    between atoms: C_13  and  C_14
REMARK                            x       y       z     vdW  Elec       q    Type
REMARK                         _______ _______ _______ _____ _____    ______ ____
ROOT
ATOM      1  N   UNL     1       3.747   2.031  17.515  0.00  0.00    +0.000 N 
ATOM      2  C   UNL     1       4.312   3.217  17.104  0.00  0.00    +0.000 A 
ATOM      3  C   UNL     1       5.425   3.140  16.094  0.00  0.00    +0.000 A 
ATOM      4  C   UNL     1       5.981   4.296  15.718  0.00  0.00    +0.000 A 
ATOM      5  N   UNL     1       5.506   5.498  16.222  0.00  0.00    +0.000 N 
ATOM      6  N   UNL     1       5.947   6.740  15.918  0.00  0.00    +0.000 NA
ATOM      7  C   UNL     1       5.141   7.547  16.604  0.00  0.00    +0.000 A 
ATOM      8  C   UNL     1       4.184   6.856  17.381  0.00  0.00    +0.000 A 
ATOM      9  C   UNL     1       4.448   5.517  17.138  0.00  0.00    +0.000 A 
ATOM     10  N   UNL     1       3.883   4.354  17.598  0.00  0.00    +0.000 NA
ATOM     11  H   UNL     1       3.967   1.186  17.001  0.00  0.00    +0.000 HD
ENDROOT
BRANCH   8  12
ATOM     12  C   UNL     1       3.140   7.396  18.241  0.00  0.00    +0.000 A 
ATOM     13  C   UNL     1       2.852   6.767  19.461  0.00  0.00    +0.000 A 
ATOM     14  C   UNL     1       1.891   7.294  20.326  0.00  0.00    +0.000 A 
ATOM     15  C   UNL     1       1.198   8.463  19.998  0.00  0.00    +0.000 A 
ATOM     16  C   UNL     1       0.236   9.008  20.864  0.00  0.00    +0.000 A 
ATOM     17  C   UNL     1      -0.446  10.176  20.526  0.00  0.00    +0.000 A 
ATOM     18  C   UNL     1      -0.177  10.813  19.318  0.00  0.00    +0.000 A 
ATOM     19  C   UNL     1       0.776  10.284  18.446  0.00  0.00    +0.000 A 
ATOM     20  C   UNL     1       1.474   9.109  18.774  0.00  0.00    +0.000 A 
ATOM     21  C   UNL     1       2.443   8.563  17.908  0.00  0.00    +0.000 A 
ENDBRANCH   8  12
BRANCH   1  25
ATOM     22  C   UNL     1       1.892   2.963  21.266  0.00  0.00    +0.000 C 
ATOM     23  C   UNL     1       3.269   2.302  21.272  0.00  0.00    +0.000 C 
ATOM     24  C   UNL     1       3.962   2.453  19.922  0.00  0.00    +0.000 C 
ATOM     25  C   UNL     1       3.100   1.856  18.805  0.00  0.00    +0.000 C 
ATOM     26  C   UNL     1       1.718   2.529  18.779  0.00  0.00    +0.000 C 
ATOM     27  C   UNL     1       1.018   2.428  20.132  0.00  0.00    +0.000 C 
BRANCH  22  28
ATOM     28  O   UNL     1       1.232   2.711  22.501  0.00  0.00    +0.000 OA
ATOM     29  H   UNL     1       0.862   3.553  22.817  0.00  0.00    +0.000 HD
ENDBRANCH  22  28
ENDBRANCH   1  25
TORSDOF 3
ENDMDL
MODEL 2
REMARK VINA RESULT:      -8.3      2.833      5.011
REMARK  Name = 
REMARK  3 active torsions:
REMARK  status: ('A' for Active; 'I' for Inactive)
REMARK    1  A    between atoms: O_1  and  C_2
REMARK    2  A    between atoms: C_5  and  N_6
REMARK    3  A    between atoms: C_13  and  C_14
REMARK                            x       y       z     vdW  Elec       q    Type
REMARK                         _______ _______ _______ _____ _____    ______ ____
ROOT
ATOM      1  N   UNL     1       5.913   3.617  18.239  0.00  0.00    +0.000 N 
ATOM      2  C   UNL     1       4.776   3.654  19.014  0.00  0.00    +0.000 A 
ATOM      3  C   UNL     1       4.451   2.428  19.825  0.00  0.00    +0.000 A 
ATOM      4  C   UNL     1       3.333   2.467  20.557  0.00  0.00    +0.000 A 
ATOM      5  N   UNL     1       2.551   3.613  20.581  0.00  0.00    +0.000 N 
ATOM      6  N   UNL     1       1.415   3.809  21.289  0.00  0.00    +0.000 NA
ATOM      7  C   UNL     1       1.083   5.071  21.025  0.00  0.00    +0.000 A 
ATOM      8  C   UNL     1       1.971   5.709  20.131  0.00  0.00    +0.000 A 
ATOM      9  C   UNL     1       2.914   4.738  19.832  0.00  0.00    +0.000 A 
ATOM     10  N   UNL     1       4.020   4.726  19.020  0.00  0.00    +0.000 NA
ATOM     11  H   UNL     1       6.571   2.859  18.380  0.00  0.00    +0.000 HD
ENDROOT
BRANCH   8  12
ATOM     12  C   UNL     1       1.937   7.075  19.626  0.00  0.00    +0.000 A 
ATOM     13  C   UNL     1       2.391   7.346  18.327  0.00  0.00    +0.000 A 
ATOM     14  C   UNL     1       2.323   8.638  17.802  0.00  0.00    +0.000 A 
ATOM     15  C   UNL     1       1.796   9.689  18.558  0.00  0.00    +0.000 A 
ATOM     16  C   UNL     1       1.713  10.992  18.038  0.00  0.00    +0.000 A 
ATOM     17  C   UNL     1       1.183  12.031  18.802  0.00  0.00    +0.000 A 
ATOM     18  C   UNL     1       0.730  11.783  20.094  0.00  0.00    +0.000 A 
ATOM     19  C   UNL     1       0.807  10.494  20.626  0.00  0.00    +0.000 A 
ATOM     20  C   UNL     1       1.336   9.436  19.867  0.00  0.00    +0.000 A 
ATOM     21  C   UNL     1       1.415   8.127  20.386  0.00  0.00    +0.000 A 
ENDBRANCH   8  12
BRANCH   1  25
ATOM     22  C   UNL     1       7.153   4.778  14.302  0.00  0.00    +0.000 C 
ATOM     23  C   UNL     1       7.765   5.492  15.506  0.00  0.00    +0.000 C 
ATOM     24  C   UNL     1       7.575   4.685  16.785  0.00  0.00    +0.000 C 
ATOM     25  C   UNL     1       6.089   4.416  17.037  0.00  0.00    +0.000 C 
ATOM     26  C   UNL     1       5.469   3.679  15.838  0.00  0.00    +0.000 C 
ATOM     27  C   UNL     1       5.679   4.447  14.536  0.00  0.00    +0.000 C 
BRANCH  22  28
ATOM     28  O   UNL     1       7.252   5.605  13.149  0.00  0.00    +0.000 OA
ATOM     29  H   UNL     1       7.445   5.032  12.388  0.00  0.00    +0.000 HD
ENDBRANCH  22  28
ENDBRANCH   1  25
TORSDOF 3
ENDMDL
MODEL 3
REMARK VINA RESULT:      -7.9      5.276      9.475
REMARK  Name = 
REMARK  3 active torsions:
REMARK  status: ('A' for Active; 'I' for Inactive)
REMARK    1  A    between atoms: O_1  and  C_2
REMARK    2  A    between atoms: C_5  and  N_6
REMARK    3  A    between atoms: C_13  and  C_14
REMARK                            x       y       z     vdW  Elec       q    Type
REMARK                         _______ _______ _______ _____ _____    ______ ____
ROOT
ATOM      1  N   UNL     1       1.226  14.019  20.414  0.00  0.00    +0.000 N 
ATOM      2  C   UNL     1       0.673  12.905  21.004  0.00  0.00    +0.000 A 
ATOM      3  C   UNL     1      -0.350  13.131  22.086  0.00  0.00    +0.000 A 
ATOM      4  C   UNL     1      -0.865  12.043  22.667  0.00  0.00    +0.000 A 
ATOM      5  N   UNL     1      -0.486  10.777  22.244  0.00  0.00    +0.000 N 
ATOM      6  N   UNL     1      -0.937   9.592  22.716  0.00  0.00    +0.000 NA
ATOM      7  C   UNL     1      -0.326   8.687  21.955  0.00  0.00    +0.000 A 
ATOM      8  C   UNL     1       0.545   9.255  20.998  0.00  0.00    +0.000 A 
ATOM      9  C   UNL     1       0.446  10.621  21.213  0.00  0.00    +0.000 A 
ATOM     10  N   UNL     1       1.047  11.707  20.625  0.00  0.00    +0.000 NA
ATOM     11  H   UNL     1       0.804  14.922  20.593  0.00  0.00    +0.000 HD
ENDROOT
BRANCH   8  12
ATOM     12  C   UNL     1       1.366   8.588  19.996  0.00  0.00    +0.000 A 
ATOM     13  C   UNL     1       1.519   9.166  18.728  0.00  0.00    +0.000 A 
ATOM     14  C   UNL     1       2.340   8.571  17.768  0.00  0.00    +0.000 A 
ATOM     15  C   UNL     1       3.031   7.390  18.051  0.00  0.00    +0.000 A 
ATOM     16  C   UNL     1       3.868   6.787  17.097  0.00  0.00    +0.000 A 
ATOM     17  C   UNL     1       4.554   5.610  17.393  0.00  0.00    +0.000 A 
ATOM     18  C   UNL     1       4.412   5.020  18.645  0.00  0.00    +0.000 A 
ATOM     19  C   UNL     1       3.584   5.606  19.605  0.00  0.00    +0.000 A 
ATOM     20  C   UNL     1       2.889   6.793  19.321  0.00  0.00    +0.000 A 
ATOM     21  C   UNL     1       2.052   7.402  20.280  0.00  0.00    +0.000 A 
ENDBRANCH   8  12
BRANCH   1  25
ATOM     22  C   UNL     1       4.883  15.471  18.710  0.00  0.00    +0.000 C 
ATOM     23  C   UNL     1       3.879  14.763  17.801  0.00  0.00    +0.000 C 
ATOM     24  C   UNL     1       2.492  14.722  18.434  0.00  0.00    +0.000 C 
ATOM     25  C   UNL     1       2.543  14.027  19.798  0.00  0.00    +0.000 C 
ATOM     26  C   UNL     1       3.537  14.744  20.726  0.00  0.00    +0.000 C 
ATOM     27  C   UNL     1       4.926  14.835  20.099  0.00  0.00    +0.000 C 
BRANCH  22  28
ATOM     28  O   UNL     1       6.184  15.396  18.139  0.00  0.00    +0.000 OA
ATOM     29  H   UNL     1       6.157  15.850  17.280  0.00  0.00    +0.000 HD
ENDBRANCH  22  28
ENDBRANCH   1  25
TORSDOF 3
ENDMDL
MODEL 4
REMARK VINA RESULT:      -7.7      5.320      9.654
REMARK  Name = 
REMARK  3 active torsions:
REMARK  status: ('A' for Active; 'I' for Inactive)
REMARK    1  A    between atoms: O_1  and  C_2
REMARK    2  A    between atoms: C_5  and  N_6
REMARK    3  A    between atoms: C_13  and  C_14
REMARK                            x       y       z     vdW  Elec       q    Type
REMARK                         _______ _______ _______ _____ _____    ______ ____
ROOT
ATOM      1  N   UNL     1      -0.420  14.388  19.872  0.00  0.00    +0.000 N 
ATOM      2  C   UNL     1      -0.535  13.363  20.783  0.00  0.00    +0.000 A 
ATOM      3  C   UNL     1      -1.312  13.639  22.043  0.00  0.00    +0.000 A 
ATOM      4  C   UNL     1      -1.398  12.643  22.930  0.00  0.00    +0.000 A 
ATOM      5  N   UNL     1      -0.823  11.410  22.658  0.00  0.00    +0.000 N 
ATOM      6  N   UNL     1      -0.850  10.308  23.441  0.00  0.00    +0.000 NA
ATOM      7  C   UNL     1      -0.221   9.383  22.721  0.00  0.00    +0.000 A 
ATOM      8  C   UNL     1       0.245   9.862  21.476  0.00  0.00    +0.000 A 
ATOM      9  C   UNL     1      -0.137  11.195  21.458  0.00  0.00    +0.000 A 
ATOM     10  N   UNL     1       0.029  12.203  20.541  0.00  0.00    +0.000 NA
ATOM     11  H   UNL     1      -1.001  15.209  19.992  0.00  0.00    +0.000 HD
ENDROOT
BRANCH   8  12
ATOM     12  C   UNL     1       0.958   9.146  20.427  0.00  0.00    +0.000 A 
ATOM     13  C   UNL     1       1.099   9.730  19.160  0.00  0.00    +0.000 A 
ATOM     14  C   UNL     1       1.821   9.086  18.154  0.00  0.00    +0.000 A 
ATOM     15  C   UNL     1       2.424   7.847  18.388  0.00  0.00    +0.000 A 
ATOM     16  C   UNL     1       3.161   7.192  17.387  0.00  0.00    +0.000 A 
ATOM     17  C   UNL     1       3.759   5.958  17.635  0.00  0.00    +0.000 A 
ATOM     18  C   UNL     1       3.628   5.360  18.884  0.00  0.00    +0.000 A 
ATOM     19  C   UNL     1       2.898   5.997  19.890  0.00  0.00    +0.000 A 
ATOM     20  C   UNL     1       2.292   7.243  19.656  0.00  0.00    +0.000 A 
ATOM     21  C   UNL     1       1.556   7.903  20.662  0.00  0.00    +0.000 A 
ENDBRANCH   8  12
BRANCH   1  25
ATOM     22  C   UNL     1       3.544  14.939  18.333  0.00  0.00    +0.000 C 
ATOM     23  C   UNL     1       2.489  16.007  18.047  0.00  0.00    +0.000 C 
ATOM     24  C   UNL     1       1.312  15.896  19.010  0.00  0.00    +0.000 C 
ATOM     25  C   UNL     1       0.681  14.503  18.930  0.00  0.00    +0.000 C 
ATOM     26  C   UNL     1       1.731  13.422  19.236  0.00  0.00    +0.000 C 
ATOM     27  C   UNL     1       2.940  13.536  18.311  0.00  0.00    +0.000 C 
BRANCH  22  28
ATOM     28  O   UNL     1       4.572  15.003  17.353  0.00  0.00    +0.000 OA
ATOM     29  H   UNL     1       4.242  14.570  16.548  0.00  0.00    +0.000 HD
ENDBRANCH  22  28
ENDBRANCH   1  25
TORSDOF 3
ENDMDL
MODEL 5
REMARK VINA RESULT:      -7.5      2.801      7.180
REMARK  Name = 
REMARK  3 active torsions:
REMARK  status: ('A' for Active; 'I' for Inactive)
REMARK    1  A    between atoms: O_1  and  C_2
REMARK    2  A    between atoms: C_5  and  N_6
REMARK    3  A    between atoms: C_13  and  C_14
REMARK                            x       y       z     vdW  Elec       q    Type
REMARK                         _______ _______ _______ _____ _____    ______ ____
ROOT
ATOM      1  N   UNL     1       1.300   6.583  20.251  0.00  0.00    +0.000 N 
ATOM      2  C   UNL     1       1.992   5.397  20.348  0.00  0.00    +0.000 A 
ATOM      3  C   UNL     1       1.533   4.412  21.390  0.00  0.00    +0.000 A 
ATOM      4  C   UNL     1       2.226   3.273  21.491  0.00  0.00    +0.000 A 
ATOM      5  N   UNL     1       3.288   3.021  20.635  0.00  0.00    +0.000 N 
ATOM      6  N   UNL     1       4.060   1.911  20.600  0.00  0.00    +0.000 NA
ATOM      7  C   UNL     1       4.887   2.124  19.579  0.00  0.00    +0.000 A 
ATOM      8  C   UNL     1       4.690   3.373  18.948  0.00  0.00    +0.000 A 
ATOM      9  C   UNL     1       3.656   3.957  19.663  0.00  0.00    +0.000 A 
ATOM     10  N   UNL     1       3.013   5.166  19.558  0.00  0.00    +0.000 NA
ATOM     11  H   UNL     1       0.418   6.671  20.742  0.00  0.00    +0.000 HD
ENDROOT
BRANCH   8  12
ATOM     12  C   UNL     1       5.389   3.942  17.804  0.00  0.00    +0.000 A 
ATOM     13  C   UNL     1       6.368   4.925  18.008  0.00  0.00    +0.000 A 
ATOM     14  C   UNL     1       7.087   5.450  16.932  0.00  0.00    +0.000 A 
ATOM     15  C   UNL     1       6.850   5.003  15.628  0.00  0.00    +0.000 A 
ATOM     16  C   UNL     1       7.574   5.516  14.538  0.00  0.00    +0.000 A 
ATOM     17  C   UNL     1       7.329   5.060  13.244  0.00  0.00    +0.000 A 
ATOM     18  C   UNL     1       6.359   4.087  13.021  0.00  0.00    +0.000 A 
ATOM     19  C   UNL     1       5.631   3.568  14.093  0.00  0.00    +0.000 A 
ATOM     20  C   UNL     1       5.868   4.015  15.404  0.00  0.00    +0.000 A 
ATOM     21  C   UNL     1       5.146   3.498  16.499  0.00  0.00    +0.000 A 
ENDBRANCH   8  12
BRANCH   1  25
ATOM     22  C   UNL     1       1.731  10.268  18.101  0.00  0.00    +0.000 C 
ATOM     23  C   UNL     1       2.572   9.065  17.674  0.00  0.00    +0.000 C 
ATOM     24  C   UNL     1       1.990   7.763  18.214  0.00  0.00    +0.000 C 
ATOM     25  C   UNL     1       1.885   7.813  19.741  0.00  0.00    +0.000 C 
ATOM     26  C   UNL     1       1.024   9.009  20.179  0.00  0.00    +0.000 C 
ATOM     27  C   UNL     1       1.562  10.323  19.619  0.00  0.00    +0.000 C 
BRANCH  22  28
ATOM     28  O   UNL     1       2.359  11.470  17.673  0.00  0.00    +0.000 OA
ATOM     29  H   UNL     1       2.837  11.842  18.434  0.00  0.00    +0.000 HD
ENDBRANCH  22  28
ENDBRANCH   1  25
TORSDOF 3
ENDMDL
MODEL 6
REMARK VINA RESULT:      -7.5      6.664     10.081
REMARK  Name = 
REMARK  3 active torsions:
REMARK  status: ('A' for Active; 'I' for Inactive)
REMARK    1  A    between atoms: O_1  and  C_2
REMARK    2  A    between atoms: C_5  and  N_6
REMARK    3  A    between atoms: C_13  and  C_14
REMARK                            x       y       z     vdW  Elec       q    Type
REMARK                         _______ _______ _______ _____ _____    ______ ____
ROOT
ATOM      1  N   UNL     1      -5.627  13.210  20.213  0.00  0.00    +0.000 N 
ATOM      2  C   UNL     1      -5.158  12.636  19.053  0.00  0.00    +0.000 A 
ATOM      3  C   UNL     1      -5.940  12.889  17.791  0.00  0.00    +0.000 A 
ATOM      4  C   UNL     1      -5.488  12.309  16.674  0.00  0.00    +0.000 A 
ATOM      5  N   UNL     1      -4.328  11.549  16.700  0.00  0.00    +0.000 N 
ATOM      6  N   UNL     1      -3.738  10.926  15.653  0.00  0.00    +0.000 NA
ATOM      7  C   UNL     1      -2.637  10.391  16.173  0.00  0.00    +0.000 A 
ATOM      8  C   UNL     1      -2.497  10.629  17.559  0.00  0.00    +0.000 A 
ATOM      9  C   UNL     1      -3.621  11.369  17.894  0.00  0.00    +0.000 A 
ATOM     10  N   UNL     1      -4.076  11.896  19.077  0.00  0.00    +0.000 NA
ATOM     11  H   UNL     1      -6.353  13.913  20.146  0.00  0.00    +0.000 HD
ENDROOT
BRANCH   8  12
ATOM     12  C   UNL     1      -1.428  10.215  18.457  0.00  0.00    +0.000 A 
ATOM     13  C   UNL     1      -0.177   9.862  17.930  0.00  0.00    +0.000 A 
ATOM     14  C   UNL     1       0.878   9.509  18.773  0.00  0.00    +0.000 A 
ATOM     15  C   UNL     1       0.714   9.505  20.161  0.00  0.00    +0.000 A 
ATOM     16  C   UNL     1       1.771   9.162  21.021  0.00  0.00    +0.000 A 
ATOM     17  C   UNL     1       1.593   9.165  22.404  0.00  0.00    +0.000 A 
ATOM     18  C   UNL     1       0.359   9.509  22.946  0.00  0.00    +0.000 A 
ATOM     19  C   UNL     1      -0.702   9.852  22.105  0.00  0.00    +0.000 A 
ATOM     20  C   UNL     1      -0.538   9.856  20.710  0.00  0.00    +0.000 A 
ATOM     21  C   UNL     1      -1.597  10.206  19.846  0.00  0.00    +0.000 A 
ENDBRANCH   8  12
BRANCH   1  25
ATOM     22  C   UNL     1      -4.718  13.026  24.399  0.00  0.00    +0.000 C 
ATOM     23  C   UNL     1      -3.689  12.499  23.400  0.00  0.00    +0.000 C 
ATOM     24  C   UNL     1      -3.953  13.037  21.997  0.00  0.00    +0.000 C 
ATOM     25  C   UNL     1      -5.366  12.668  21.536  0.00  0.00    +0.000 C 
ATOM     26  C   UNL     1      -6.410  13.212  22.526  0.00  0.00    +0.000 C 
ATOM     27  C   UNL     1      -6.146  12.720  23.947  0.00  0.00    +0.000 C 
BRANCH  22  28
ATOM     28  O   UNL     1      -4.509  12.422  25.669  0.00  0.00    +0.000 OA
ATOM     29  H   UNL     1      -5.363  12.078  25.979  0.00  0.00    +0.000 HD
ENDBRANCH  22  28
ENDBRANCH   1  25
TORSDOF 3
ENDMDL
MODEL 7
REMARK VINA RESULT:      -7.5      8.126     11.708
REMARK  Name = 
REMARK  3 active torsions:
REMARK  status: ('A' for Active; 'I' for Inactive)
REMARK    1  A    between atoms: O_1  and  C_2
REMARK    2  A    between atoms: C_5  and  N_6
REMARK    3  A    between atoms: C_13  and  C_14
REMARK                            x       y       z     vdW  Elec       q    Type
REMARK                         _______ _______ _______ _____ _____    ______ ____
ROOT
ATOM      1  N   UNL     1      -0.858  16.898  20.638  0.00  0.00    +0.000 N 
ATOM      2  C   UNL     1      -0.922  15.731  21.365  0.00  0.00    +0.000 A 
ATOM      3  C   UNL     1      -0.850  15.845  22.864  0.00  0.00    +0.000 A 
ATOM      4  C   UNL     1      -0.890  14.704  23.559  0.00  0.00    +0.000 A 
ATOM      5  N   UNL     1      -1.034  13.490  22.905  0.00  0.00    +0.000 N 
ATOM      6  N   UNL     1      -1.117  12.264  23.471  0.00  0.00    +0.000 NA
ATOM      7  C   UNL     1      -1.307  11.443  22.440  0.00  0.00    +0.000 A 
ATOM      8  C   UNL     1      -1.328  12.106  21.192  0.00  0.00    +0.000 A 
ATOM      9  C   UNL     1      -1.127  13.440  21.510  0.00  0.00    +0.000 A 
ATOM     10  N   UNL     1      -1.032  14.579  20.749  0.00  0.00    +0.000 NA
ATOM     11  H   UNL     1      -0.949  17.780  21.128  0.00  0.00    +0.000 HD
ENDROOT
BRANCH   8  12
ATOM     12  C   UNL     1      -1.522  11.546  19.861  0.00  0.00    +0.000 A 
ATOM     13  C   UNL     1      -0.581  10.647  19.343  0.00  0.00    +0.000 A 
ATOM     14  C   UNL     1      -0.770  10.059  18.090  0.00  0.00    +0.000 A 
ATOM     15  C   UNL     1      -1.905  10.350  17.328  0.00  0.00    +0.000 A 
ATOM     16  C   UNL     1      -2.112   9.757  16.071  0.00  0.00    +0.000 A 
ATOM     17  C   UNL     1      -3.251  10.055  15.323  0.00  0.00    +0.000 A 
ATOM     18  C   UNL     1      -4.195  10.947  15.819  0.00  0.00    +0.000 A 
ATOM     19  C   UNL     1      -4.004  11.545  17.067  0.00  0.00    +0.000 A 
ATOM     20  C   UNL     1      -2.864  11.254  17.834  0.00  0.00    +0.000 A 
ATOM     21  C   UNL     1      -2.656  11.844  19.098  0.00  0.00    +0.000 A 
ENDBRANCH   8  12
BRANCH   1  25
ATOM     22  C   UNL     1       0.939  18.415  17.052  0.00  0.00    +0.000 C 
ATOM     23  C   UNL     1      -0.568  18.163  17.069  0.00  0.00    +0.000 C 
ATOM     24  C   UNL     1      -1.098  18.069  18.496  0.00  0.00    +0.000 C 
ATOM     25  C   UNL     1      -0.374  16.963  19.268  0.00  0.00    +0.000 C 
ATOM     26  C   UNL     1       1.142  17.219  19.273  0.00  0.00    +0.000 C 
ATOM     27  C   UNL     1       1.693  17.357  17.856  0.00  0.00    +0.000 C 
BRANCH  22  28
ATOM     28  O   UNL     1       1.417  18.389  15.713  0.00  0.00    +0.000 OA
ATOM     29  H   UNL     1       0.972  17.656  15.254  0.00  0.00    +0.000 HD
ENDBRANCH  22  28
ENDBRANCH   1  25
TORSDOF 3
ENDMDL
MODEL 8
REMARK VINA RESULT:      -7.5      7.071      9.933
REMARK  Name = 
REMARK  3 active torsions:
REMARK  status: ('A' for Active; 'I' for Inactive)
REMARK    1  A    between atoms: O_1  and  C_2
REMARK    2  A    between atoms: C_5  and  N_6
REMARK    3  A    between atoms: C_13  and  C_14
REMARK                            x       y       z     vdW  Elec       q    Type
REMARK                         _______ _______ _______ _____ _____    ______ ____
ROOT
ATOM      1  N   UNL     1      -5.454  11.591  17.128  0.00  0.00    +0.000 N 
ATOM      2  C   UNL     1      -4.155  11.171  17.296  0.00  0.00    +0.000 A 
ATOM      3  C   UNL     1      -3.540  10.361  16.186  0.00  0.00    +0.000 A 
ATOM      4  C   UNL     1      -2.285   9.939  16.370  0.00  0.00    +0.000 A 
ATOM      5  N   UNL     1      -1.592  10.282  17.521  0.00  0.00    +0.000 N 
ATOM      6  N   UNL     1      -0.317   9.954  17.833  0.00  0.00    +0.000 NA
ATOM      7  C   UNL     1      -0.101  10.563  18.997  0.00  0.00    +0.000 A 
ATOM      8  C   UNL     1      -1.225  11.273  19.475  0.00  0.00    +0.000 A 
ATOM      9  C   UNL     1      -2.198  11.063  18.511  0.00  0.00    +0.000 A 
ATOM     10  N   UNL     1      -3.504  11.471  18.395  0.00  0.00    +0.000 NA
ATOM     11  H   UNL     1      -5.877  11.502  16.212  0.00  0.00    +0.000 HD
ENDROOT
BRANCH   8  12
ATOM     12  C   UNL     1      -1.360  12.062  20.692  0.00  0.00    +0.000 A 
ATOM     13  C   UNL     1      -0.253  12.761  21.192  0.00  0.00    +0.000 A 
ATOM     14  C   UNL     1      -0.369  13.564  22.329  0.00  0.00    +0.000 A 
ATOM     15  C   UNL     1      -1.594  13.692  22.991  0.00  0.00    +0.000 A 
ATOM     16  C   UNL     1      -1.727  14.505  24.129  0.00  0.00    +0.000 A 
ATOM     17  C   UNL     1      -2.956  14.626  24.777  0.00  0.00    +0.000 A 
ATOM     18  C   UNL     1      -4.066  13.938  24.298  0.00  0.00    +0.000 A 
ATOM     19  C   UNL     1      -3.950  13.126  23.168  0.00  0.00    +0.000 A 
ATOM     20  C   UNL     1      -2.720  12.996  22.502  0.00  0.00    +0.000 A 
ATOM     21  C   UNL     1      -2.586  12.185  21.356  0.00  0.00    +0.000 A 
ENDBRANCH   8  12
BRANCH   1  25
ATOM     22  C   UNL     1      -6.940  11.992  21.130  0.00  0.00    +0.000 C 
ATOM     23  C   UNL     1      -7.532  10.907  20.231  0.00  0.00    +0.000 C 
ATOM     24  C   UNL     1      -6.617  10.606  19.050  0.00  0.00    +0.000 C 
ATOM     25  C   UNL     1      -6.354  11.875  18.235  0.00  0.00    +0.000 C 
ATOM     26  C   UNL     1      -5.739  12.965  19.127  0.00  0.00    +0.000 C 
ATOM     27  C   UNL     1      -6.617  13.259  20.341  0.00  0.00    +0.000 C 
BRANCH  22  28
ATOM     28  O   UNL     1      -7.865  12.324  22.158  0.00  0.00    +0.000 OA
ATOM     29  H   UNL     1      -7.823  13.285  22.295  0.00  0.00    +0.000 HD
ENDBRANCH  22  28
ENDBRANCH   1  25
TORSDOF 3
ENDMDL
MODEL 9
REMARK VINA RESULT:      -7.5      7.082     10.531
REMARK  Name = 
REMARK  3 active torsions:
REMARK  status: ('A' for Active; 'I' for Inactive)
REMARK    1  A    between atoms: O_1  and  C_2
REMARK    2  A    between atoms: C_5  and  N_6
REMARK    3  A    between atoms: C_13  and  C_14
REMARK                            x       y       z     vdW  Elec       q    Type
REMARK                         _______ _______ _______ _____ _____    ______ ____
ROOT
ATOM      1  N   UNL     1      -1.576  12.080  23.212  0.00  0.00    +0.000 N 
ATOM      2  C   UNL     1      -2.850  12.537  22.964  0.00  0.00    +0.000 A 
ATOM      3  C   UNL     1      -3.562  13.247  24.085  0.00  0.00    +0.000 A 
ATOM      4  C   UNL     1      -4.807  13.667  23.840  0.00  0.00    +0.000 A 
ATOM      5  N   UNL     1      -5.376  13.480  22.588  0.00  0.00    +0.000 N 
ATOM      6  N   UNL     1      -6.607  13.871  22.186  0.00  0.00    +0.000 NA
ATOM      7  C   UNL     1      -6.655  13.520  20.904  0.00  0.00    +0.000 A 
ATOM      8  C   UNL     1      -5.480  12.878  20.453  0.00  0.00    +0.000 A 
ATOM      9  C   UNL     1      -4.661  12.840  21.570  0.00  0.00    +0.000 A 
ATOM     10  N   UNL     1      -3.402  12.339  21.790  0.00  0.00    +0.000 NA
ATOM     11  H   UNL     1      -1.105  12.391  24.054  0.00  0.00    +0.000 HD
ENDROOT
BRANCH   8  12
ATOM     12  C   UNL     1      -5.166  12.370  19.124  0.00  0.00    +0.000 A 
ATOM     13  C   UNL     1      -5.941  12.772  18.027  0.00  0.00    +0.000 A 
ATOM     14  C   UNL     1      -5.629  12.338  16.737  0.00  0.00    +0.000 A 
ATOM     15  C   UNL     1      -4.535  11.498  16.509  0.00  0.00    +0.000 A 
ATOM     16  C   UNL     1      -4.205  11.063  15.215  0.00  0.00    +0.000 A 
ATOM     17  C   UNL     1      -3.109  10.228  15.003  0.00  0.00    +0.000 A 
ATOM     18  C   UNL     1      -2.329   9.816  16.079  0.00  0.00    +0.000 A 
ATOM     19  C   UNL     1      -2.644  10.239  17.372  0.00  0.00    +0.000 A 
ATOM     20  C   UNL     1      -3.744  11.083  17.602  0.00  0.00    +0.000 A 
ATOM     21  C   UNL     1      -4.074  11.525  18.900  0.00  0.00    +0.000 A 
ENDBRANCH   8  12
BRANCH   1  25
ATOM     22  C   UNL     1       1.351   9.254  21.860  0.00  0.00    +0.000 C 
ATOM     23  C   UNL     1       0.787  10.262  20.861  0.00  0.00    +0.000 C 
ATOM     24  C   UNL     1       0.133  11.442  21.573  0.00  0.00    +0.000 C 
ATOM     25  C   UNL     1      -0.977  10.957  22.510  0.00  0.00    +0.000 C 
ATOM     26  C   UNL     1      -0.413   9.956  23.532  0.00  0.00    +0.000 C 
ATOM     27  C   UNL     1       0.282   8.783  22.846  0.00  0.00    +0.000 C 
BRANCH  22  28
ATOM     28  O   UNL     1       1.855   8.119  21.167  0.00  0.00    +0.000 OA
ATOM     29  H   UNL     1       1.405   7.332  21.518  0.00  0.00    +0.000 HD
ENDBRANCH  22  28
ENDBRANCH   1  25
TORSDOF 3
ENDMDL
