MODEL 1
REMARK VINA RESULT:      -7.4      0.000      0.000
REMARK  Name = 
REMARK  11 active torsions:
REMARK  status: ('A' for Active; 'I' for Inactive)
REMARK    1  A    between atoms: C_1  and  C_2
REMARK    2  A    between atoms: C_2  and  C_3
REMARK    3  A    between atoms: C_3  and  C_4
REMARK    4  A    between atoms: C_4  and  N_5
REMARK    5  A    between atoms: N_5  and  C_6
REMARK    6  A    between atoms: N_5  and  C_8
REMARK    7  A    between atoms: C_6  and  C_7
REMARK    8  A    between atoms: C_10  and  C_11
REMARK    9  A    between atoms: N_17  and  C_18
REMARK   10  A    between atoms: C_21  and  S_22
REMARK   11  A    between atoms: S_22  and  C_23
REMARK                            x       y       z     vdW  Elec       q    Type
REMARK                         _______ _______ _______ _____ _____    ______ ____
ROOT
ATOM      1  C   UNL     1       3.866   5.165  18.578  0.00  0.00    +0.000 A 
ATOM      2  N   UNL     1       3.403   4.316  19.549  0.00  0.00    +0.000 NA
ATOM      3  C   UNL     1       2.497   4.735  20.465  0.00  0.00    +0.000 A 
ATOM      4  C   UNL     1       2.040   3.753  21.500  0.00  0.00    +0.000 C 
ATOM      5  N   UNL     1       1.953   5.961  20.545  0.00  0.00    +0.000 NA
ATOM      6  C   UNL     1       2.387   6.769  19.562  0.00  0.00    +0.000 A 
ATOM      7  C   UNL     1       3.284   6.453  18.561  0.00  0.00    +0.000 A 
ATOM      8  N   UNL     1       3.435   7.535  17.735  0.00  0.00    +0.000 NA
ATOM      9  N   UNL     1       2.656   8.510  18.182  0.00  0.00    +0.000 NA
ATOM     10  N   UNL     1       2.009   8.071  19.293  0.00  0.00    +0.000 N 
ENDROOT
BRANCH  10  11
ATOM     11  C   UNL     1       1.159   8.915  20.053  0.00  0.00    +0.000 A 
ATOM     12  C   UNL     1       1.337   8.959  21.449  0.00  0.00    +0.000 A 
ATOM     13  C   UNL     1       0.580   9.831  22.236  0.00  0.00    +0.000 A 
ATOM     14  C   UNL     1      -0.376  10.643  21.624  0.00  0.00    +0.000 A 
ATOM     15  C   UNL     1      -0.580  10.592  20.246  0.00  0.00    +0.000 A 
ATOM     16  C   UNL     1       0.182   9.728  19.455  0.00  0.00    +0.000 A 
ATOM     17 BR   UNL     1      -0.335   9.635  17.622  0.00  0.00    +0.000 Br
BRANCH  14  18
ATOM     18  S   UNL     1      -1.280  11.820  22.593  0.00  0.00    +0.000 S 
ATOM     19  C   UNL     1      -2.300  12.654  21.397  0.00  0.00    +0.000 C 
ATOM     20  O   UNL     1      -2.155  11.081  23.481  0.00  0.00    +0.000 OA
ATOM     21  O   UNL     1      -0.330  12.781  23.115  0.00  0.00    +0.000 OA
ENDBRANCH  14  18
ENDBRANCH  10  11
BRANCH   1  22
ATOM     22  N   UNL     1       4.863   4.737  17.698  0.00  0.00    +0.000 N 
BRANCH  22  23
ATOM     23  C   UNL     1       4.635   4.867  16.250  0.00  0.00    +0.000 C 
ATOM     24  C   UNL     1       5.637   4.084  15.400  0.00  0.00    +0.000 C 
ENDBRANCH  22  23
BRANCH  22  25
ATOM     25  C   UNL     1       6.248   4.701  18.183  0.00  0.00    +0.000 C 
BRANCH  25  26
ATOM     26  C   UNL     1       6.798   6.097  18.517  0.00  0.00    +0.000 C 
BRANCH  26  28
ATOM     27  C   UNL     1       7.964   8.213  17.829  0.00  0.00    +0.000 C 
ATOM     28  C   UNL     1       7.445   6.857  17.353  0.00  0.00    +0.000 C 
ENDBRANCH  26  28
ENDBRANCH  25  26
ENDBRANCH  22  25
ENDBRANCH   1  22
TORSDOF 7
ENDMDL
MODEL 2
REMARK VINA RESULT:      -7.2      0.780      1.887
REMARK  Name = 
REMARK  11 active torsions:
REMARK  status: ('A' for Active; 'I' for Inactive)
REMARK    1  A    between atoms: C_1  and  C_2
REMARK    2  A    between atoms: C_2  and  C_3
REMARK    3  A    between atoms: C_3  and  C_4
REMARK    4  A    between atoms: C_4  and  N_5
REMARK    5  A    between atoms: N_5  and  C_6
REMARK    6  A    between atoms: N_5  and  C_8
REMARK    7  A    between atoms: C_6  and  C_7
REMARK    8  A    between atoms: C_10  and  C_11
REMARK    9  A    between atoms: N_17  and  C_18
REMARK   10  A    between atoms: C_21  and  S_22
REMARK   11  A    between atoms: S_22  and  C_23
REMARK                            x       y       z     vdW  Elec       q    Type
REMARK                         _______ _______ _______ _____ _____    ______ ____
ROOT
ATOM      1  C   UNL     1       3.784   5.261  18.574  0.00  0.00    +0.000 A 
ATOM      2  N   UNL     1       3.269   4.386  19.497  0.00  0.00    +0.000 NA
ATOM      3  C   UNL     1       2.342   4.793  20.397  0.00  0.00    +0.000 A 
ATOM      4  C   UNL     1       1.828   3.784  21.378  0.00  0.00    +0.000 C 
ATOM      5  N   UNL     1       1.822   6.027  20.505  0.00  0.00    +0.000 NA
ATOM      6  C   UNL     1       2.307   6.860  19.568  0.00  0.00    +0.000 A 
ATOM      7  C   UNL     1       3.231   6.561  18.587  0.00  0.00    +0.000 A 
ATOM      8  N   UNL     1       3.434   7.669  17.808  0.00  0.00    +0.000 NA
ATOM      9  N   UNL     1       2.662   8.645  18.265  0.00  0.00    +0.000 NA
ATOM     10  N   UNL     1       1.968   8.180  19.336  0.00  0.00    +0.000 N 
ENDROOT
BRANCH  10  11
ATOM     11  C   UNL     1       1.111   9.015  20.099  0.00  0.00    +0.000 A 
ATOM     12  C   UNL     1       1.290   9.058  21.495  0.00  0.00    +0.000 A 
ATOM     13  C   UNL     1       0.526   9.922  22.284  0.00  0.00    +0.000 A 
ATOM     14  C   UNL     1      -0.439  10.726  21.675  0.00  0.00    +0.000 A 
ATOM     15  C   UNL     1      -0.644  10.676  20.296  0.00  0.00    +0.000 A 
ATOM     16  C   UNL     1       0.125   9.820  19.503  0.00  0.00    +0.000 A 
ATOM     17 BR   UNL     1      -0.393   9.724  17.671  0.00  0.00    +0.000 Br
BRANCH  14  18
ATOM     18  S   UNL     1      -1.352  11.893  22.647  0.00  0.00    +0.000 S 
ATOM     19  C   UNL     1      -2.375  12.726  21.452  0.00  0.00    +0.000 C 
ATOM     20  O   UNL     1      -2.225  11.145  23.529  0.00  0.00    +0.000 OA
ATOM     21  O   UNL     1      -0.410  12.858  23.175  0.00  0.00    +0.000 OA
ENDBRANCH  14  18
ENDBRANCH  10  11
BRANCH   1  22
ATOM     22  N   UNL     1       4.801   4.842  17.713  0.00  0.00    +0.000 N 
BRANCH  22  23
ATOM     23  C   UNL     1       6.095   4.439  18.287  0.00  0.00    +0.000 C 
ATOM     24  C   UNL     1       6.803   5.561  19.048  0.00  0.00    +0.000 C 
ENDBRANCH  22  23
BRANCH  22  25
ATOM     25  C   UNL     1       4.421   4.297  16.404  0.00  0.00    +0.000 C 
BRANCH  25  26
ATOM     26  C   UNL     1       5.285   4.846  15.257  0.00  0.00    +0.000 C 
BRANCH  26  28
ATOM     27  C   UNL     1       6.890   4.484  13.358  0.00  0.00    +0.000 C 
ATOM     28  C   UNL     1       6.053   3.801  14.439  0.00  0.00    +0.000 C 
ENDBRANCH  26  28
ENDBRANCH  25  26
ENDBRANCH  22  25
ENDBRANCH   1  22
TORSDOF 7
ENDMDL
MODEL 3
REMARK VINA RESULT:      -7.2      1.150      2.269
REMARK  Name = 
REMARK  11 active torsions:
REMARK  status: ('A' for Active; 'I' for Inactive)
REMARK    1  A    between atoms: C_1  and  C_2
REMARK    2  A    between atoms: C_2  and  C_3
REMARK    3  A    between atoms: C_3  and  C_4
REMARK    4  A    between atoms: C_4  and  N_5
REMARK    5  A    between atoms: N_5  and  C_6
REMARK    6  A    between atoms: N_5  and  C_8
REMARK    7  A    between atoms: C_6  and  C_7
REMARK    8  A    between atoms: C_10  and  C_11
REMARK    9  A    between atoms: N_17  and  C_18
REMARK   10  A    between atoms: C_21  and  S_22
REMARK   11  A    between atoms: S_22  and  C_23
REMARK                            x       y       z     vdW  Elec       q    Type
REMARK                         _______ _______ _______ _____ _____    ______ ____
ROOT
ATOM      1  C   UNL     1       3.753   6.603  17.953  0.00  0.00    +0.000 A 
ATOM      2  N   UNL     1       3.477   5.637  18.886  0.00  0.00    +0.000 NA
ATOM      3  C   UNL     1       2.578   5.863  19.876  0.00  0.00    +0.000 A 
ATOM      4  C   UNL     1       2.331   4.764  20.863  0.00  0.00    +0.000 C 
ATOM      5  N   UNL     1       1.871   6.989  20.068  0.00  0.00    +0.000 NA
ATOM      6  C   UNL     1       2.123   7.909  19.121  0.00  0.00    +0.000 A 
ATOM      7  C   UNL     1       2.993   7.790  18.055  0.00  0.00    +0.000 A 
ATOM      8  N   UNL     1       2.936   8.930  17.299  0.00  0.00    +0.000 NA
ATOM      9  N   UNL     1       2.055   9.752  17.852  0.00  0.00    +0.000 NA
ATOM     10  N   UNL     1       1.548   9.157  18.963  0.00  0.00    +0.000 N 
ENDROOT
BRANCH  10  11
ATOM     11  C   UNL     1       0.634   9.819  19.822  0.00  0.00    +0.000 A 
ATOM     12  C   UNL     1       0.989   9.982  21.175  0.00  0.00    +0.000 A 
ATOM     13  C   UNL     1       0.162  10.695  22.047  0.00  0.00    +0.000 A 
ATOM     14  C   UNL     1      -1.036  11.225  21.568  0.00  0.00    +0.000 A 
ATOM     15  C   UNL     1      -1.412  11.051  20.236  0.00  0.00    +0.000 A 
ATOM     16  C   UNL     1      -0.583  10.346  19.359  0.00  0.00    +0.000 A 
ATOM     17 BR   UNL     1      -1.312  10.032  17.625  0.00  0.00    +0.000 Br
BRANCH  14  18
ATOM     18  S   UNL     1      -2.052  12.210  22.635  0.00  0.00    +0.000 S 
ATOM     19  C   UNL     1      -3.303  12.855  21.546  0.00  0.00    +0.000 C 
ATOM     20  O   UNL     1      -2.702  11.317  23.573  0.00  0.00    +0.000 OA
ATOM     21  O   UNL     1      -1.250  13.324  23.100  0.00  0.00    +0.000 OA
ENDBRANCH  14  18
ENDBRANCH  10  11
BRANCH   1  22
ATOM     22  N   UNL     1       4.745   6.379  16.995  0.00  0.00    +0.000 N 
BRANCH  22  23
ATOM     23  C   UNL     1       6.040   7.061  17.143  0.00  0.00    +0.000 C 
ATOM     24  C   UNL     1       7.017   6.325  18.061  0.00  0.00    +0.000 C 
ENDBRANCH  22  23
BRANCH  22  25
ATOM     25  C   UNL     1       4.701   5.126  16.232  0.00  0.00    +0.000 C 
BRANCH  25  26
ATOM     26  C   UNL     1       5.638   5.138  15.013  0.00  0.00    +0.000 C 
BRANCH  26  28
ATOM     27  C   UNL     1       5.680   3.636  12.999  0.00  0.00    +0.000 C 
ATOM     28  C   UNL     1       6.054   3.763  14.476  0.00  0.00    +0.000 C 
ENDBRANCH  26  28
ENDBRANCH  25  26
ENDBRANCH  22  25
ENDBRANCH   1  22
TORSDOF 7
ENDMDL
MODEL 4
REMARK VINA RESULT:      -7.0      4.422      7.948
REMARK  Name = 
REMARK  11 active torsions:
REMARK  status: ('A' for Active; 'I' for Inactive)
REMARK    1  A    between atoms: C_1  and  C_2
REMARK    2  A    between atoms: C_2  and  C_3
REMARK    3  A    between atoms: C_3  and  C_4
REMARK    4  A    between atoms: C_4  and  N_5
REMARK    5  A    between atoms: N_5  and  C_6
REMARK    6  A    between atoms: N_5  and  C_8
REMARK    7  A    between atoms: C_6  and  C_7
REMARK    8  A    between atoms: C_10  and  C_11
REMARK    9  A    between atoms: N_17  and  C_18
REMARK   10  A    between atoms: C_21  and  S_22
REMARK   11  A    between atoms: S_22  and  C_23
REMARK                            x       y       z     vdW  Elec       q    Type
REMARK                         _______ _______ _______ _____ _____    ______ ____
ROOT
ATOM      1  C   UNL     1       0.356  11.142  20.013  0.00  0.00    +0.000 A 
ATOM      2  N   UNL     1       0.054  10.907  21.330  0.00  0.00    +0.000 NA
ATOM      3  C   UNL     1       0.366   9.725  21.915  0.00  0.00    +0.000 A 
ATOM      4  C   UNL     1       0.001   9.538  23.355  0.00  0.00    +0.000 C 
ATOM      5  N   UNL     1       0.982   8.685  21.330  0.00  0.00    +0.000 NA
ATOM      6  C   UNL     1       1.308   8.946  20.052  0.00  0.00    +0.000 A 
ATOM      7  C   UNL     1       1.067  10.113  19.354  0.00  0.00    +0.000 A 
ATOM      8  N   UNL     1       1.586   9.997  18.092  0.00  0.00    +0.000 NA
ATOM      9  N   UNL     1       2.149   8.802  17.982  0.00  0.00    +0.000 NA
ATOM     10  N   UNL     1       1.992   8.142  19.159  0.00  0.00    +0.000 N 
ENDROOT
BRANCH  10  11
ATOM     11  C   UNL     1       2.419   6.800  19.334  0.00  0.00    +0.000 A 
ATOM     12  C   UNL     1       1.838   6.044  20.371  0.00  0.00    +0.000 A 
ATOM     13  C   UNL     1       2.165   4.696  20.536  0.00  0.00    +0.000 A 
ATOM     14  C   UNL     1       3.095   4.110  19.677  0.00  0.00    +0.000 A 
ATOM     15  C   UNL     1       3.695   4.853  18.661  0.00  0.00    +0.000 A 
ATOM     16  C   UNL     1       3.364   6.199  18.486  0.00  0.00    +0.000 A 
ATOM     17 BR   UNL     1       4.399   7.128  17.181  0.00  0.00    +0.000 Br
BRANCH  14  18
ATOM     18  S   UNL     1       3.451   2.379  19.814  0.00  0.00    +0.000 S 
ATOM     19  C   UNL     1       3.404   1.806  18.130  0.00  0.00    +0.000 C 
ATOM     20  O   UNL     1       4.814   2.246  20.288  0.00  0.00    +0.000 OA
ATOM     21  O   UNL     1       2.352   1.759  20.526  0.00  0.00    +0.000 OA
ENDBRANCH  14  18
ENDBRANCH  10  11
BRANCH   1  22
ATOM     22  N   UNL     1      -0.052  12.333  19.408  0.00  0.00    +0.000 N 
BRANCH  22  23
ATOM     23  C   UNL     1       0.843  13.499  19.464  0.00  0.00    +0.000 C 
ATOM     24  C   UNL     1       1.795  13.598  18.271  0.00  0.00    +0.000 C 
ENDBRANCH  22  23
BRANCH  22  25
ATOM     25  C   UNL     1      -1.028  12.256  18.315  0.00  0.00    +0.000 C 
BRANCH  25  26
ATOM     26  C   UNL     1      -2.436  11.877  18.798  0.00  0.00    +0.000 C 
BRANCH  26  28
ATOM     27  C   UNL     1      -2.760   9.809  17.409  0.00  0.00    +0.000 C 
ATOM     28  C   UNL     1      -3.332  11.180  17.767  0.00  0.00    +0.000 C 
ENDBRANCH  26  28
ENDBRANCH  25  26
ENDBRANCH  22  25
ENDBRANCH   1  22
TORSDOF 7
ENDMDL
MODEL 5
REMARK VINA RESULT:      -7.0      3.483      5.250
REMARK  Name = 
REMARK  11 active torsions:
REMARK  status: ('A' for Active; 'I' for Inactive)
REMARK    1  A    between atoms: C_1  and  C_2
REMARK    2  A    between atoms: C_2  and  C_3
REMARK    3  A    between atoms: C_3  and  C_4
REMARK    4  A    between atoms: C_4  and  N_5
REMARK    5  A    between atoms: N_5  and  C_6
REMARK    6  A    between atoms: N_5  and  C_8
REMARK    7  A    between atoms: C_6  and  C_7
REMARK    8  A    between atoms: C_10  and  C_11
REMARK    9  A    between atoms: N_17  and  C_18
REMARK   10  A    between atoms: C_21  and  S_22
REMARK   11  A    between atoms: S_22  and  C_23
REMARK                            x       y       z     vdW  Elec       q    Type
REMARK                         _______ _______ _______ _____ _____    ______ ____
ROOT
ATOM      1  C   UNL     1       1.657   7.737  20.150  0.00  0.00    +0.000 A 
ATOM      2  N   UNL     1       1.127   7.951  21.396  0.00  0.00    +0.000 NA
ATOM      3  C   UNL     1       0.741   9.191  21.784  0.00  0.00    +0.000 A 
ATOM      4  C   UNL     1       0.175   9.351  23.161  0.00  0.00    +0.000 C 
ATOM      5  N   UNL     1       0.812  10.314  21.050  0.00  0.00    +0.000 NA
ATOM      6  C   UNL     1       1.296  10.079  19.818  0.00  0.00    +0.000 A 
ATOM      7  C   UNL     1       1.698   8.864  19.299  0.00  0.00    +0.000 A 
ATOM      8  N   UNL     1       2.091   9.039  17.999  0.00  0.00    +0.000 NA
ATOM      9  N   UNL     1       1.940  10.318  17.687  0.00  0.00    +0.000 NA
ATOM     10  N   UNL     1       1.460  10.974  18.776  0.00  0.00    +0.000 N 
ENDROOT
BRANCH  10  11
ATOM     11  C   UNL     1       1.267  12.379  18.785  0.00  0.00    +0.000 A 
ATOM     12  C   UNL     1       2.397  13.207  18.925  0.00  0.00    +0.000 A 
ATOM     13  C   UNL     1       2.272  14.597  18.862  0.00  0.00    +0.000 A 
ATOM     14  C   UNL     1       1.007  15.160  18.684  0.00  0.00    +0.000 A 
ATOM     15  C   UNL     1      -0.124  14.353  18.568  0.00  0.00    +0.000 A 
ATOM     16  C   UNL     1      -0.001  12.962  18.621  0.00  0.00    +0.000 A 
ATOM     17 BR   UNL     1      -1.648  12.000  18.635  0.00  0.00    +0.000 Br
BRANCH  14  18
ATOM     18  S   UNL     1       0.843  16.916  18.510  0.00  0.00    +0.000 S 
ATOM     19  C   UNL     1       0.623  17.486  20.181  0.00  0.00    +0.000 C 
ATOM     20  O   UNL     1       2.109  17.432  18.031  0.00  0.00    +0.000 OA
ATOM     21  O   UNL     1      -0.387  17.173  17.787  0.00  0.00    +0.000 OA
ENDBRANCH  14  18
ENDBRANCH  10  11
BRANCH   1  22
ATOM     22  N   UNL     1       2.127   6.467  19.804  0.00  0.00    +0.000 N 
BRANCH  22  23
ATOM     23  C   UNL     1       3.231   6.359  18.838  0.00  0.00    +0.000 C 
ATOM     24  C   UNL     1       4.338   5.400  19.278  0.00  0.00    +0.000 C 
ENDBRANCH  22  23
BRANCH  22  25
ATOM     25  C   UNL     1       1.928   5.371  20.759  0.00  0.00    +0.000 C 
BRANCH  25  26
ATOM     26  C   UNL     1       0.881   4.350  20.284  0.00  0.00    +0.000 C 
BRANCH  26  28
ATOM     27  C   UNL     1       1.512   2.199  19.148  0.00  0.00    +0.000 C 
ATOM     28  C   UNL     1       1.244   2.874  20.492  0.00  0.00    +0.000 C 
ENDBRANCH  26  28
ENDBRANCH  25  26
ENDBRANCH  22  25
ENDBRANCH   1  22
TORSDOF 7
ENDMDL
MODEL 6
REMARK VINA RESULT:      -6.9      1.129      2.501
REMARK  Name = 
REMARK  11 active torsions:
REMARK  status: ('A' for Active; 'I' for Inactive)
REMARK    1  A    between atoms: C_1  and  C_2
REMARK    2  A    between atoms: C_2  and  C_3
REMARK    3  A    between atoms: C_3  and  C_4
REMARK    4  A    between atoms: C_4  and  N_5
REMARK    5  A    between atoms: N_5  and  C_6
REMARK    6  A    between atoms: N_5  and  C_8
REMARK    7  A    between atoms: C_6  and  C_7
REMARK    8  A    between atoms: C_10  and  C_11
REMARK    9  A    between atoms: N_17  and  C_18
REMARK   10  A    between atoms: C_21  and  S_22
REMARK   11  A    between atoms: S_22  and  C_23
REMARK                            x       y       z     vdW  Elec       q    Type
REMARK                         _______ _______ _______ _____ _____    ______ ____
ROOT
ATOM      1  C   UNL     1       3.687   5.444  18.659  0.00  0.00    +0.000 A 
ATOM      2  N   UNL     1       3.305   4.618  19.685  0.00  0.00    +0.000 NA
ATOM      3  C   UNL     1       2.435   5.044  20.632  0.00  0.00    +0.000 A 
ATOM      4  C   UNL     1       2.066   4.090  21.726  0.00  0.00    +0.000 C 
ATOM      5  N   UNL     1       1.853   6.254  20.694  0.00  0.00    +0.000 NA
ATOM      6  C   UNL     1       2.207   7.036  19.660  0.00  0.00    +0.000 A 
ATOM      7  C   UNL     1       3.061   6.710  18.625  0.00  0.00    +0.000 A 
ATOM      8  N   UNL     1       3.131   7.763  17.752  0.00  0.00    +0.000 NA
ATOM      9  N   UNL     1       2.344   8.730  18.203  0.00  0.00    +0.000 NA
ATOM     10  N   UNL     1       1.771   8.314  19.362  0.00  0.00    +0.000 N 
ENDROOT
BRANCH  10  11
ATOM     11  C   UNL     1       0.934   9.159  20.135  0.00  0.00    +0.000 A 
ATOM     12  C   UNL     1       1.141   9.213  21.526  0.00  0.00    +0.000 A 
ATOM     13  C   UNL     1       0.397  10.087  22.323  0.00  0.00    +0.000 A 
ATOM     14  C   UNL     1      -0.576  10.890  21.727  0.00  0.00    +0.000 A 
ATOM     15  C   UNL     1      -0.809  10.830  20.353  0.00  0.00    +0.000 A 
ATOM     16  C   UNL     1      -0.060   9.964  19.552  0.00  0.00    +0.000 A 
ATOM     17 BR   UNL     1      -0.615   9.855  17.731  0.00  0.00    +0.000 Br
BRANCH  14  18
ATOM     18  S   UNL     1      -1.464  12.070  22.707  0.00  0.00    +0.000 S 
ATOM     19  C   UNL     1      -2.387  13.005  21.505  0.00  0.00    +0.000 C 
ATOM     20  O   UNL     1      -2.415  11.340  23.521  0.00  0.00    +0.000 OA
ATOM     21  O   UNL     1      -0.493  12.959  23.312  0.00  0.00    +0.000 OA
ENDBRANCH  14  18
ENDBRANCH  10  11
BRANCH   1  22
ATOM     22  N   UNL     1       4.651   5.013  17.744  0.00  0.00    +0.000 N 
BRANCH  22  23
ATOM     23  C   UNL     1       6.058   5.381  17.970  0.00  0.00    +0.000 C 
ATOM     24  C   UNL     1       6.602   6.378  16.947  0.00  0.00    +0.000 C 
ENDBRANCH  22  23
BRANCH  22  25
ATOM     25  C   UNL     1       4.366   3.813  16.949  0.00  0.00    +0.000 C 
BRANCH  25  26
ATOM     26  C   UNL     1       2.885   3.406  16.996  0.00  0.00    +0.000 C 
BRANCH  26  28
ATOM     27  C   UNL     1       1.338   2.160  18.536  0.00  0.00    +0.000 C 
ATOM     28  C   UNL     1       2.583   2.054  17.656  0.00  0.00    +0.000 C 
ENDBRANCH  26  28
ENDBRANCH  25  26
ENDBRANCH  22  25
ENDBRANCH   1  22
TORSDOF 7
ENDMDL
MODEL 7
REMARK VINA RESULT:      -6.8      3.440      4.959
REMARK  Name = 
REMARK  11 active torsions:
REMARK  status: ('A' for Active; 'I' for Inactive)
REMARK    1  A    between atoms: C_1  and  C_2
REMARK    2  A    between atoms: C_2  and  C_3
REMARK    3  A    between atoms: C_3  and  C_4
REMARK    4  A    between atoms: C_4  and  N_5
REMARK    5  A    between atoms: N_5  and  C_6
REMARK    6  A    between atoms: N_5  and  C_8
REMARK    7  A    between atoms: C_6  and  C_7
REMARK    8  A    between atoms: C_10  and  C_11
REMARK    9  A    between atoms: N_17  and  C_18
REMARK   10  A    between atoms: C_21  and  S_22
REMARK   11  A    between atoms: S_22  and  C_23
REMARK                            x       y       z     vdW  Elec       q    Type
REMARK                         _______ _______ _______ _____ _____    ______ ____
ROOT
ATOM      1  C   UNL     1       1.702   7.687  20.044  0.00  0.00    +0.000 A 
ATOM      2  N   UNL     1       1.099   7.861  21.263  0.00  0.00    +0.000 NA
ATOM      3  C   UNL     1       0.669   9.084  21.657  0.00  0.00    +0.000 A 
ATOM      4  C   UNL     1       0.024   9.200  23.004  0.00  0.00    +0.000 C 
ATOM      5  N   UNL     1       0.758  10.225  20.954  0.00  0.00    +0.000 NA
ATOM      6  C   UNL     1       1.315  10.030  19.746  0.00  0.00    +0.000 A 
ATOM      7  C   UNL     1       1.768   8.836  19.223  0.00  0.00    +0.000 A 
ATOM      8  N   UNL     1       2.230   9.048  17.951  0.00  0.00    +0.000 NA
ATOM      9  N   UNL     1       2.071  10.332  17.661  0.00  0.00    +0.000 NA
ATOM     10  N   UNL     1       1.518  10.952  18.736  0.00  0.00    +0.000 N 
ENDROOT
BRANCH  10  11
ATOM     11  C   UNL     1       1.297  12.353  18.767  0.00  0.00    +0.000 A 
ATOM     12  C   UNL     1       2.397  13.197  19.017  0.00  0.00    +0.000 A 
ATOM     13  C   UNL     1       2.250  14.586  18.981  0.00  0.00    +0.000 A 
ATOM     14  C   UNL     1       0.992  15.131  18.719  0.00  0.00    +0.000 A 
ATOM     15  C   UNL     1      -0.110  14.307  18.494  0.00  0.00    +0.000 A 
ATOM     16  C   UNL     1       0.035  12.918  18.520  0.00  0.00    +0.000 A 
ATOM     17 BR   UNL     1      -1.589  11.928  18.380  0.00  0.00    +0.000 Br
BRANCH  14  18
ATOM     18  S   UNL     1       0.807  16.888  18.578  0.00  0.00    +0.000 S 
ATOM     19  C   UNL     1       0.643  17.430  20.265  0.00  0.00    +0.000 C 
ATOM     20  O   UNL     1       2.051  17.422  18.062  0.00  0.00    +0.000 OA
ATOM     21  O   UNL     1      -0.450  17.145  17.904  0.00  0.00    +0.000 OA
ENDBRANCH  14  18
ENDBRANCH  10  11
BRANCH   1  22
ATOM     22  N   UNL     1       2.215   6.435  19.696  0.00  0.00    +0.000 N 
BRANCH  22  23
ATOM     23  C   UNL     1       2.204   5.360  20.700  0.00  0.00    +0.000 C 
ATOM     24  C   UNL     1       1.118   4.311  20.462  0.00  0.00    +0.000 C 
ENDBRANCH  22  23
BRANCH  22  25
ATOM     25  C   UNL     1       2.227   6.061  18.277  0.00  0.00    +0.000 C 
BRANCH  25  26
ATOM     26  C   UNL     1       3.637   5.735  17.759  0.00  0.00    +0.000 C 
BRANCH  26  28
ATOM     27  C   UNL     1       2.587   3.511  17.240  0.00  0.00    +0.000 C 
ATOM     28  C   UNL     1       3.906   4.260  17.434  0.00  0.00    +0.000 C 
ENDBRANCH  26  28
ENDBRANCH  25  26
ENDBRANCH  22  25
ENDBRANCH   1  22
TORSDOF 7
ENDMDL
MODEL 8
REMARK VINA RESULT:      -6.8      0.965      1.188
REMARK  Name = 
REMARK  11 active torsions:
REMARK  status: ('A' for Active; 'I' for Inactive)
REMARK    1  A    between atoms: C_1  and  C_2
REMARK    2  A    between atoms: C_2  and  C_3
REMARK    3  A    between atoms: C_3  and  C_4
REMARK    4  A    between atoms: C_4  and  N_5
REMARK    5  A    between atoms: N_5  and  C_6
REMARK    6  A    between atoms: N_5  and  C_8
REMARK    7  A    between atoms: C_6  and  C_7
REMARK    8  A    between atoms: C_10  and  C_11
REMARK    9  A    between atoms: N_17  and  C_18
REMARK   10  A    between atoms: C_21  and  S_22
REMARK   11  A    between atoms: S_22  and  C_23
REMARK                            x       y       z     vdW  Elec       q    Type
REMARK                         _______ _______ _______ _____ _____    ______ ____
ROOT
ATOM      1  C   UNL     1       3.559   6.056  18.157  0.00  0.00    +0.000 A 
ATOM      2  N   UNL     1       3.270   5.172  19.164  0.00  0.00    +0.000 NA
ATOM      3  C   UNL     1       2.435   5.517  20.174  0.00  0.00    +0.000 A 
ATOM      4  C   UNL     1       2.169   4.502  21.242  0.00  0.00    +0.000 C 
ATOM      5  N   UNL     1       1.806   6.695  20.320  0.00  0.00    +0.000 NA
ATOM      6  C   UNL     1       2.068   7.535  19.304  0.00  0.00    +0.000 A 
ATOM      7  C   UNL     1       2.878   7.293  18.212  0.00  0.00    +0.000 A 
ATOM      8  N   UNL     1       2.854   8.383  17.384  0.00  0.00    +0.000 NA
ATOM      9  N   UNL     1       2.051   9.293  17.918  0.00  0.00    +0.000 NA
ATOM     10  N   UNL     1       1.562   8.803  19.087  0.00  0.00    +0.000 N 
ENDROOT
BRANCH  10  11
ATOM     11  C   UNL     1       0.732   9.576  19.939  0.00  0.00    +0.000 A 
ATOM     12  C   UNL     1       1.074   9.666  21.302  0.00  0.00    +0.000 A 
ATOM     13  C   UNL     1       0.336  10.476  22.169  0.00  0.00    +0.000 A 
ATOM     14  C   UNL     1      -0.764  11.179  21.674  0.00  0.00    +0.000 A 
ATOM     15  C   UNL     1      -1.128  11.081  20.331  0.00  0.00    +0.000 A 
ATOM     16  C   UNL     1      -0.387  10.279  19.459  0.00  0.00    +0.000 A 
ATOM     17 BR   UNL     1      -1.112  10.098  17.705  0.00  0.00    +0.000 Br
BRANCH  14  18
ATOM     18  S   UNL     1      -1.654  12.282  22.737  0.00  0.00    +0.000 S 
ATOM     19  C   UNL     1      -2.516  13.352  21.605  0.00  0.00    +0.000 C 
ATOM     20  O   UNL     1      -2.647  11.504  23.449  0.00  0.00    +0.000 OA
ATOM     21  O   UNL     1      -0.682  13.083  23.453  0.00  0.00    +0.000 OA
ENDBRANCH  14  18
ENDBRANCH  10  11
BRANCH   1  22
ATOM     22  N   UNL     1       4.489   5.709  17.174  0.00  0.00    +0.000 N 
BRANCH  22  23
ATOM     23  C   UNL     1       4.256   4.496  16.373  0.00  0.00    +0.000 C 
ATOM     24  C   UNL     1       4.733   3.212  17.054  0.00  0.00    +0.000 C 
ENDBRANCH  22  23
BRANCH  22  25
ATOM     25  C   UNL     1       5.319   6.773  16.597  0.00  0.00    +0.000 C 
BRANCH  25  26
ATOM     26  C   UNL     1       6.615   7.013  17.389  0.00  0.00    +0.000 C 
BRANCH  26  28
ATOM     27  C   UNL     1       7.809   5.801  19.238  0.00  0.00    +0.000 C 
ATOM     28  C   UNL     1       7.413   5.758  17.762  0.00  0.00    +0.000 C 
ENDBRANCH  26  28
ENDBRANCH  25  26
ENDBRANCH  22  25
ENDBRANCH   1  22
TORSDOF 7
ENDMDL
MODEL 9
REMARK VINA RESULT:      -6.8      4.539      7.959
REMARK  Name = 
REMARK  11 active torsions:
REMARK  status: ('A' for Active; 'I' for Inactive)
REMARK    1  A    between atoms: C_1  and  C_2
REMARK    2  A    between atoms: C_2  and  C_3
REMARK    3  A    between atoms: C_3  and  C_4
REMARK    4  A    between atoms: C_4  and  N_5
REMARK    5  A    between atoms: N_5  and  C_6
REMARK    6  A    between atoms: N_5  and  C_8
REMARK    7  A    between atoms: C_6  and  C_7
REMARK    8  A    between atoms: C_10  and  C_11
REMARK    9  A    between atoms: N_17  and  C_18
REMARK   10  A    between atoms: C_21  and  S_22
REMARK   11  A    between atoms: S_22  and  C_23
REMARK                            x       y       z     vdW  Elec       q    Type
REMARK                         _______ _______ _______ _____ _____    ______ ____
ROOT
ATOM      1  C   UNL     1       0.001  11.006  19.833  0.00  0.00    +0.000 A 
ATOM      2  N   UNL     1      -0.219  10.840  21.176  0.00  0.00    +0.000 NA
ATOM      3  C   UNL     1       0.208   9.726  21.819  0.00  0.00    +0.000 A 
ATOM      4  C   UNL     1      -0.073   9.612  23.285  0.00  0.00    +0.000 C 
ATOM      5  N   UNL     1       0.872   8.695  21.270  0.00  0.00    +0.000 NA
ATOM      6  C   UNL     1       1.115   8.891  19.963  0.00  0.00    +0.000 A 
ATOM      7  C   UNL     1       0.755   9.988  19.205  0.00  0.00    +0.000 A 
ATOM      8  N   UNL     1       1.220   9.824  17.928  0.00  0.00    +0.000 NA
ATOM      9  N   UNL     1       1.865   8.668  17.865  0.00  0.00    +0.000 NA
ATOM     10  N   UNL     1       1.814   8.079  19.089  0.00  0.00    +0.000 N 
ENDROOT
BRANCH  10  11
ATOM     11  C   UNL     1       2.348   6.787  19.326  0.00  0.00    +0.000 A 
ATOM     12  C   UNL     1       1.802   6.022  20.376  0.00  0.00    +0.000 A 
ATOM     13  C   UNL     1       2.237   4.713  20.602  0.00  0.00    +0.000 A 
ATOM     14  C   UNL     1       3.239   4.178  19.792  0.00  0.00    +0.000 A 
ATOM     15  C   UNL     1       3.805   4.933  18.764  0.00  0.00    +0.000 A 
ATOM     16  C   UNL     1       3.366   6.238  18.528  0.00  0.00    +0.000 A 
ATOM     17 BR   UNL     1       4.357   7.205  17.217  0.00  0.00    +0.000 Br
BRANCH  14  18
ATOM     18  S   UNL     1       3.737   2.491  20.005  0.00  0.00    +0.000 S 
ATOM     19  C   UNL     1       2.954   2.012  21.530  0.00  0.00    +0.000 C 
ATOM     20  O   UNL     1       3.135   1.716  18.939  0.00  0.00    +0.000 OA
ATOM     21  O   UNL     1       5.170   2.478  20.218  0.00  0.00    +0.000 OA
ENDBRANCH  14  18
ENDBRANCH  10  11
BRANCH   1  22
ATOM     22  N   UNL     1      -0.524  12.121  19.175  0.00  0.00    +0.000 N 
BRANCH  22  23
ATOM     23  C   UNL     1       0.405  13.115  18.614  0.00  0.00    +0.000 C 
ATOM     24  C   UNL     1       0.582  14.353  19.494  0.00  0.00    +0.000 C 
ENDBRANCH  22  23
BRANCH  22  25
ATOM     25  C   UNL     1      -1.864  12.013  18.588  0.00  0.00    +0.000 C 
BRANCH  25  26
ATOM     26  C   UNL     1      -1.833  11.788  17.068  0.00  0.00    +0.000 C 
BRANCH  26  28
ATOM     27  C   UNL     1      -3.026   9.668  17.698  0.00  0.00    +0.000 C 
ATOM     28  C   UNL     1      -2.665  10.609  16.549  0.00  0.00    +0.000 C 
ENDBRANCH  26  28
ENDBRANCH  25  26
ENDBRANCH  22  25
ENDBRANCH   1  22
TORSDOF 7
ENDMDL
