MODEL 1
REMARK VINA RESULT:      -7.0      0.000      0.000
REMARK  Name = 
REMARK  12 active torsions:
REMARK  status: ('A' for Active; 'I' for Inactive)
REMARK    1  A    between atoms: C_1  and  C_2
REMARK    2  A    between atoms: C_2  and  O_3
REMARK    3  A    between atoms: O_3  and  C_4
REMARK    4  A    between atoms: C_4  and  C_6
REMARK    5  A    between atoms: C_7  and  N_8
REMARK    6  A    between atoms: C_13  and  C_14
REMARK    7  A    between atoms: C_22  and  C_23
REMARK    8  A    between atoms: C_23  and  C_24
REMARK    9  A    between atoms: C_23  and  C_26
REMARK   10  A    between atoms: C_26  and  O_28
REMARK   11  A    between atoms: O_28  and  C_29
REMARK   12  A    between atoms: C_29  and  C_30
REMARK                            x       y       z     vdW  Elec       q    Type
REMARK                         _______ _______ _______ _____ _____    ______ ____
ROOT
ATOM      1  C   UNL     1       1.631  11.387  19.595  0.00  0.00    +0.000 C 
ATOM      2  C   UNL     1       2.056  11.402  18.314  0.00  0.00    +0.000 C 
ATOM      3  O   UNL     1       2.199  10.238  17.575  0.00  0.00    +0.000 OA
ATOM      4  C   UNL     1       2.138   9.026  18.208  0.00  0.00    +0.000 A 
ATOM      5  C   UNL     1       2.478   7.914  17.446  0.00  0.00    +0.000 A 
ATOM      6  C   UNL     1       2.409   6.635  18.003  0.00  0.00    +0.000 A 
ATOM      7  C   UNL     1       2.041   6.442  19.346  0.00  0.00    +0.000 A 
ATOM      8  C   UNL     1       1.756   7.598  20.105  0.00  0.00    +0.000 A 
ATOM      9  C   UNL     1       1.750   8.886  19.538  0.00  0.00    +0.000 A 
ATOM     10  C   UNL     1       1.281  10.105  20.328  0.00  0.00    +0.000 C 
ENDROOT
BRANCH   7  11
ATOM     11  C   UNL     1       1.902   5.081  19.926  0.00  0.00    +0.000 A 
ATOM     12  C   UNL     1       1.274   4.032  19.231  0.00  0.00    +0.000 A 
ATOM     13  C   UNL     1       1.105   2.767  19.808  0.00  0.00    +0.000 A 
ATOM     14  C   UNL     1       1.578   2.516  21.091  0.00  0.00    +0.000 A 
ATOM     15  C   UNL     1       2.215   3.528  21.799  0.00  0.00    +0.000 A 
ATOM     16  C   UNL     1       2.364   4.794  21.226  0.00  0.00    +0.000 A 
ENDBRANCH   7  11
BRANCH   2  17
ATOM     17  N   UNL     1       2.379  12.525  17.589  0.00  0.00    +0.000 N 
ATOM     18  H   UNL     1       1.586  13.168  17.489  0.00  0.00    +0.000 HD
ATOM     19  H   UNL     1       2.794  12.283  16.693  0.00  0.00    +0.000 HD
ENDBRANCH   2  17
BRANCH   1  20
ATOM     20  C   UNL     1       1.531  12.679  20.312  0.00  0.00    +0.000 C 
ATOM     21  O   UNL     1       2.097  12.941  21.362  0.00  0.00    +0.000 OA
BRANCH  20  22
ATOM     22  O   UNL     1       0.721  13.512  19.614  0.00  0.00    +0.000 OA
BRANCH  22  24
ATOM     23  C   UNL     1       0.688  15.887  19.388  0.00  0.00    +0.000 C 
ATOM     24  C   UNL     1       0.361  14.721  20.296  0.00  0.00    +0.000 C 
ENDBRANCH  22  24
ENDBRANCH  20  22
ENDBRANCH   1  20
BRANCH  10  25
ATOM     25  C   UNL     1      -0.216   9.941  20.706  0.00  0.00    +0.000 C 
BRANCH  25  26
ATOM     26  C   UNL     1      -0.586  10.388  22.062  0.00  0.00    +0.000 C 
ATOM     27  N   UNL     1      -0.831  10.715  23.146  0.00  0.00    +0.000 NA
ENDBRANCH  25  26
BRANCH  25  28
ATOM     28  C   UNL     1      -1.138  10.657  19.755  0.00  0.00    +0.000 C 
ATOM     29  O   UNL     1      -1.792  11.653  20.029  0.00  0.00    +0.000 OA
BRANCH  28  30
ATOM     30  O   UNL     1      -1.249   9.942  18.599  0.00  0.00    +0.000 OA
BRANCH  30  31
ATOM     31  C   UNL     1      -1.879  10.644  17.519  0.00  0.00    +0.000 C 
ATOM     32  C   UNL     1      -3.112   9.852  17.117  0.00  0.00    +0.000 C 
ENDBRANCH  30  31
ENDBRANCH  28  30
ENDBRANCH  25  28
ENDBRANCH  10  25
TORSDOF 10
ENDMDL
MODEL 2
REMARK VINA RESULT:      -6.8      0.797      1.396
REMARK  Name = 
REMARK  12 active torsions:
REMARK  status: ('A' for Active; 'I' for Inactive)
REMARK    1  A    between atoms: C_1  and  C_2
REMARK    2  A    between atoms: C_2  and  O_3
REMARK    3  A    between atoms: O_3  and  C_4
REMARK    4  A    between atoms: C_4  and  C_6
REMARK    5  A    between atoms: C_7  and  N_8
REMARK    6  A    between atoms: C_13  and  C_14
REMARK    7  A    between atoms: C_22  and  C_23
REMARK    8  A    between atoms: C_23  and  C_24
REMARK    9  A    between atoms: C_23  and  C_26
REMARK   10  A    between atoms: C_26  and  O_28
REMARK   11  A    between atoms: O_28  and  C_29
REMARK   12  A    between atoms: C_29  and  C_30
REMARK                            x       y       z     vdW  Elec       q    Type
REMARK                         _______ _______ _______ _____ _____    ______ ____
ROOT
ATOM      1  C   UNL     1       1.504  11.575  19.548  0.00  0.00    +0.000 C 
ATOM      2  C   UNL     1       2.020  11.596  18.301  0.00  0.00    +0.000 C 
ATOM      3  O   UNL     1       2.239  10.434  17.578  0.00  0.00    +0.000 OA
ATOM      4  C   UNL     1       2.157   9.223  18.209  0.00  0.00    +0.000 A 
ATOM      5  C   UNL     1       2.572   8.116  17.477  0.00  0.00    +0.000 A 
ATOM      6  C   UNL     1       2.489   6.837  18.032  0.00  0.00    +0.000 A 
ATOM      7  C   UNL     1       2.028   6.639  19.346  0.00  0.00    +0.000 A 
ATOM      8  C   UNL     1       1.666   7.790  20.078  0.00  0.00    +0.000 A 
ATOM      9  C   UNL     1       1.676   9.077  19.508  0.00  0.00    +0.000 A 
ATOM     10  C   UNL     1       1.128  10.288  20.258  0.00  0.00    +0.000 C 
ENDROOT
BRANCH   7  11
ATOM     11  C   UNL     1       1.874   5.277  19.918  0.00  0.00    +0.000 A 
ATOM     12  C   UNL     1       2.319   4.954  21.214  0.00  0.00    +0.000 A 
ATOM     13  C   UNL     1       2.212   3.655  21.723  0.00  0.00    +0.000 A 
ATOM     14  C   UNL     1       1.639   2.647  20.955  0.00  0.00    +0.000 A 
ATOM     15  C   UNL     1       1.177   2.937  19.676  0.00  0.00    +0.000 A 
ATOM     16  C   UNL     1       1.303   4.232  19.164  0.00  0.00    +0.000 A 
ENDBRANCH   7  11
BRANCH   2  17
ATOM     17  N   UNL     1       2.373  12.724  17.597  0.00  0.00    +0.000 N 
ATOM     18  H   UNL     1       1.756  12.894  16.795  0.00  0.00    +0.000 HD
ATOM     19  H   UNL     1       3.354  12.705  17.331  0.00  0.00    +0.000 HD
ENDBRANCH   2  17
BRANCH   1  20
ATOM     20  C   UNL     1       1.327  12.867  20.252  0.00  0.00    +0.000 C 
ATOM     21  O   UNL     1       0.451  13.682  20.007  0.00  0.00    +0.000 OA
BRANCH  20  22
ATOM     22  O   UNL     1       2.285  12.986  21.204  0.00  0.00    +0.000 OA
BRANCH  22  24
ATOM     23  C   UNL     1       3.935  14.588  20.568  0.00  0.00    +0.000 C 
ATOM     24  C   UNL     1       2.732  14.327  21.449  0.00  0.00    +0.000 C 
ENDBRANCH  22  24
ENDBRANCH  20  22
ENDBRANCH   1  20
BRANCH  10  25
ATOM     25  C   UNL     1      -0.390  10.095  20.527  0.00  0.00    +0.000 C 
BRANCH  25  26
ATOM     26  C   UNL     1      -0.879  10.602  21.823  0.00  0.00    +0.000 C 
ATOM     27  N   UNL     1      -1.210  11.003  22.858  0.00  0.00    +0.000 NA
ENDBRANCH  25  26
BRANCH  25  28
ATOM     28  C   UNL     1      -1.254  10.728  19.468  0.00  0.00    +0.000 C 
ATOM     29  O   UNL     1      -1.920  11.742  19.622  0.00  0.00    +0.000 OA
BRANCH  28  30
ATOM     30  O   UNL     1      -1.298   9.921  18.371  0.00  0.00    +0.000 OA
BRANCH  30  31
ATOM     31  C   UNL     1      -2.583   9.839  17.740  0.00  0.00    +0.000 C 
ATOM     32  C   UNL     1      -2.460  10.479  16.367  0.00  0.00    +0.000 C 
ENDBRANCH  30  31
ENDBRANCH  28  30
ENDBRANCH  25  28
ENDBRANCH  10  25
TORSDOF 10
ENDMDL
MODEL 3
REMARK VINA RESULT:      -6.7      0.820      1.405
REMARK  Name = 
REMARK  12 active torsions:
REMARK  status: ('A' for Active; 'I' for Inactive)
REMARK    1  A    between atoms: C_1  and  C_2
REMARK    2  A    between atoms: C_2  and  O_3
REMARK    3  A    between atoms: O_3  and  C_4
REMARK    4  A    between atoms: C_4  and  C_6
REMARK    5  A    between atoms: C_7  and  N_8
REMARK    6  A    between atoms: C_13  and  C_14
REMARK    7  A    between atoms: C_22  and  C_23
REMARK    8  A    between atoms: C_23  and  C_24
REMARK    9  A    between atoms: C_23  and  C_26
REMARK   10  A    between atoms: C_26  and  O_28
REMARK   11  A    between atoms: O_28  and  C_29
REMARK   12  A    between atoms: C_29  and  C_30
REMARK                            x       y       z     vdW  Elec       q    Type
REMARK                         _______ _______ _______ _____ _____    ______ ____
ROOT
ATOM      1  C   UNL     1       1.632  11.399  19.493  0.00  0.00    +0.000 C 
ATOM      2  C   UNL     1       2.139  11.396  18.241  0.00  0.00    +0.000 C 
ATOM      3  O   UNL     1       2.330  10.222  17.530  0.00  0.00    +0.000 OA
ATOM      4  C   UNL     1       2.229   9.020  18.175  0.00  0.00    +0.000 A 
ATOM      5  C   UNL     1       2.617   7.897  17.453  0.00  0.00    +0.000 A 
ATOM      6  C   UNL     1       2.513   6.626  18.023  0.00  0.00    +0.000 A 
ATOM      7  C   UNL     1       2.059   6.452  19.342  0.00  0.00    +0.000 A 
ATOM      8  C   UNL     1       1.725   7.618  20.064  0.00  0.00    +0.000 A 
ATOM      9  C   UNL     1       1.756   8.898  19.479  0.00  0.00    +0.000 A 
ATOM     10  C   UNL     1       1.236  10.128  20.220  0.00  0.00    +0.000 C 
ENDROOT
BRANCH   7  11
ATOM     11  C   UNL     1       1.883   5.099  19.931  0.00  0.00    +0.000 A 
ATOM     12  C   UNL     1       2.322   4.786  21.231  0.00  0.00    +0.000 A 
ATOM     13  C   UNL     1       2.194   3.495  21.756  0.00  0.00    +0.000 A 
ATOM     14  C   UNL     1       1.607   2.487  20.999  0.00  0.00    +0.000 A 
ATOM     15  C   UNL     1       1.151   2.768  19.717  0.00  0.00    +0.000 A 
ATOM     16  C   UNL     1       1.297   4.054  19.189  0.00  0.00    +0.000 A 
ENDBRANCH   7  11
BRANCH   2  17
ATOM     17  N   UNL     1       2.508  12.509  17.523  0.00  0.00    +0.000 N 
ATOM     18  H   UNL     1       2.635  13.335  18.119  0.00  0.00    +0.000 HD
ATOM     19  H   UNL     1       1.868  12.685  16.753  0.00  0.00    +0.000 HD
ENDBRANCH   2  17
BRANCH   1  20
ATOM     20  C   UNL     1       1.485  12.701  20.184  0.00  0.00    +0.000 C 
ATOM     21  O   UNL     1       1.983  12.979  21.264  0.00  0.00    +0.000 OA
BRANCH  20  22
ATOM     22  O   UNL     1       0.721  13.523  19.423  0.00  0.00    +0.000 OA
BRANCH  22  24
ATOM     23  C   UNL     1      -0.470  15.569  19.130  0.00  0.00    +0.000 C 
ATOM     24  C   UNL     1       0.064  14.576  20.140  0.00  0.00    +0.000 C 
ENDBRANCH  22  24
ENDBRANCH  20  22
ENDBRANCH   1  20
BRANCH  10  25
ATOM     25  C   UNL     1      -0.282   9.967  20.502  0.00  0.00    +0.000 C 
BRANCH  25  26
ATOM     26  C   UNL     1      -0.768  10.581  21.753  0.00  0.00    +0.000 C 
ATOM     27  N   UNL     1      -1.117  11.106  22.725  0.00  0.00    +0.000 NA
ENDBRANCH  25  26
BRANCH  25  28
ATOM     28  C   UNL     1      -1.142  10.517  19.395  0.00  0.00    +0.000 C 
ATOM     29  O   UNL     1      -1.161  10.097  18.248  0.00  0.00    +0.000 OA
BRANCH  28  30
ATOM     30  O   UNL     1      -1.776  11.645  19.826  0.00  0.00    +0.000 OA
BRANCH  30  31
ATOM     31  C   UNL     1      -2.975  11.968  19.110  0.00  0.00    +0.000 C 
ATOM     32  C   UNL     1      -3.906  12.682  20.076  0.00  0.00    +0.000 C 
ENDBRANCH  30  31
ENDBRANCH  28  30
ENDBRANCH  25  28
ENDBRANCH  10  25
TORSDOF 10
ENDMDL
MODEL 4
REMARK VINA RESULT:      -6.5      1.076      1.715
REMARK  Name = 
REMARK  12 active torsions:
REMARK  status: ('A' for Active; 'I' for Inactive)
REMARK    1  A    between atoms: C_1  and  C_2
REMARK    2  A    between atoms: C_2  and  O_3
REMARK    3  A    between atoms: O_3  and  C_4
REMARK    4  A    between atoms: C_4  and  C_6
REMARK    5  A    between atoms: C_7  and  N_8
REMARK    6  A    between atoms: C_13  and  C_14
REMARK    7  A    between atoms: C_22  and  C_23
REMARK    8  A    between atoms: C_23  and  C_24
REMARK    9  A    between atoms: C_23  and  C_26
REMARK   10  A    between atoms: C_26  and  O_28
REMARK   11  A    between atoms: O_28  and  C_29
REMARK   12  A    between atoms: C_29  and  C_30
REMARK                            x       y       z     vdW  Elec       q    Type
REMARK                         _______ _______ _______ _____ _____    ______ ____
ROOT
ATOM      1  C   UNL     1       1.553  11.520  19.531  0.00  0.00    +0.000 C 
ATOM      2  C   UNL     1       2.066  11.539  18.282  0.00  0.00    +0.000 C 
ATOM      3  O   UNL     1       2.278  10.376  17.558  0.00  0.00    +0.000 OA
ATOM      4  C   UNL     1       2.192   9.165  18.190  0.00  0.00    +0.000 A 
ATOM      5  C   UNL     1       2.601   8.056  17.456  0.00  0.00    +0.000 A 
ATOM      6  C   UNL     1       2.513   6.778  18.012  0.00  0.00    +0.000 A 
ATOM      7  C   UNL     1       2.056   6.582  19.326  0.00  0.00    +0.000 A 
ATOM      8  C   UNL     1       1.700   7.735  20.060  0.00  0.00    +0.000 A 
ATOM      9  C   UNL     1       1.715   9.022  19.490  0.00  0.00    +0.000 A 
ATOM     10  C   UNL     1       1.173  10.235  20.242  0.00  0.00    +0.000 C 
ENDROOT
BRANCH   7  11
ATOM     11  C   UNL     1       1.897   5.220  19.899  0.00  0.00    +0.000 A 
ATOM     12  C   UNL     1       2.289   4.911  21.215  0.00  0.00    +0.000 A 
ATOM     13  C   UNL     1       2.180   3.613  21.726  0.00  0.00    +0.000 A 
ATOM     14  C   UNL     1       1.657   2.593  20.939  0.00  0.00    +0.000 A 
ATOM     15  C   UNL     1       1.248   2.869  19.640  0.00  0.00    +0.000 A 
ATOM     16  C   UNL     1       1.376   4.163  19.127  0.00  0.00    +0.000 A 
ENDBRANCH   7  11
BRANCH   2  17
ATOM     17  N   UNL     1       2.422  12.666  17.578  0.00  0.00    +0.000 N 
ATOM     18  H   UNL     1       3.378  12.610  17.209  0.00  0.00    +0.000 HD
ATOM     19  H   UNL     1       2.269  13.509  18.123  0.00  0.00    +0.000 HD
ENDBRANCH   2  17
BRANCH   1  20
ATOM     20  C   UNL     1       1.384  12.812  20.236  0.00  0.00    +0.000 C 
ATOM     21  O   UNL     1       0.490  13.615  20.018  0.00  0.00    +0.000 OA
BRANCH  20  22
ATOM     22  O   UNL     1       2.372  12.948  21.154  0.00  0.00    +0.000 OA
BRANCH  22  24
ATOM     23  C   UNL     1       3.911  14.580  20.341  0.00  0.00    +0.000 C 
ATOM     24  C   UNL     1       2.828  14.292  21.359  0.00  0.00    +0.000 C 
ENDBRANCH  22  24
ENDBRANCH  20  22
ENDBRANCH   1  20
BRANCH  10  25
ATOM     25  C   UNL     1      -0.344  10.048  20.515  0.00  0.00    +0.000 C 
BRANCH  25  26
ATOM     26  C   UNL     1      -0.854  10.679  21.747  0.00  0.00    +0.000 C 
ATOM     27  N   UNL     1      -1.305  11.168  22.695  0.00  0.00    +0.000 NA
ENDBRANCH  25  26
BRANCH  25  28
ATOM     28  C   UNL     1      -1.205  10.556  19.389  0.00  0.00    +0.000 C 
ATOM     29  O   UNL     1      -1.194  10.121  18.247  0.00  0.00    +0.000 OA
BRANCH  28  30
ATOM     30  O   UNL     1      -1.882  11.668  19.796  0.00  0.00    +0.000 OA
BRANCH  30  31
ATOM     31  C   UNL     1      -3.066  11.957  19.042  0.00  0.00    +0.000 C 
ATOM     32  C   UNL     1      -4.051  12.634  19.980  0.00  0.00    +0.000 C 
ENDBRANCH  30  31
ENDBRANCH  28  30
ENDBRANCH  25  28
ENDBRANCH  10  25
TORSDOF 10
ENDMDL
MODEL 5
REMARK VINA RESULT:      -6.3      4.241      8.062
REMARK  Name = 
REMARK  12 active torsions:
REMARK  status: ('A' for Active; 'I' for Inactive)
REMARK    1  A    between atoms: C_1  and  C_2
REMARK    2  A    between atoms: C_2  and  O_3
REMARK    3  A    between atoms: O_3  and  C_4
REMARK    4  A    between atoms: C_4  and  C_6
REMARK    5  A    between atoms: C_7  and  N_8
REMARK    6  A    between atoms: C_13  and  C_14
REMARK    7  A    between atoms: C_22  and  C_23
REMARK    8  A    between atoms: C_23  and  C_24
REMARK    9  A    between atoms: C_23  and  C_26
REMARK   10  A    between atoms: C_26  and  O_28
REMARK   11  A    between atoms: O_28  and  C_29
REMARK   12  A    between atoms: C_29  and  C_30
REMARK                            x       y       z     vdW  Elec       q    Type
REMARK                         _______ _______ _______ _____ _____    ______ ____
ROOT
ATOM      1  C   UNL     1       4.646   4.374  18.305  0.00  0.00    +0.000 C 
ATOM      2  C   UNL     1       3.893   3.311  18.659  0.00  0.00    +0.000 C 
ATOM      3  O   UNL     1       2.652   3.457  19.258  0.00  0.00    +0.000 OA
ATOM      4  C   UNL     1       2.269   4.686  19.721  0.00  0.00    +0.000 A 
ATOM      5  C   UNL     1       1.103   4.725  20.477  0.00  0.00    +0.000 A 
ATOM      6  C   UNL     1       0.620   5.944  20.959  0.00  0.00    +0.000 A 
ATOM      7  C   UNL     1       1.314   7.145  20.733  0.00  0.00    +0.000 A 
ATOM      8  C   UNL     1       2.522   7.061  20.008  0.00  0.00    +0.000 A 
ATOM      9  C   UNL     1       2.983   5.852  19.454  0.00  0.00    +0.000 A 
ATOM     10  C   UNL     1       4.202   5.806  18.537  0.00  0.00    +0.000 C 
ENDROOT
BRANCH   7  11
ATOM     11  C   UNL     1       0.772   8.453  21.185  0.00  0.00    +0.000 A 
ATOM     12  C   UNL     1       0.044   8.588  22.382  0.00  0.00    +0.000 A 
ATOM     13  C   UNL     1      -0.503   9.816  22.772  0.00  0.00    +0.000 A 
ATOM     14  C   UNL     1      -0.320  10.946  21.982  0.00  0.00    +0.000 A 
ATOM     15  C   UNL     1       0.406  10.848  20.801  0.00  0.00    +0.000 A 
ATOM     16  C   UNL     1       0.935   9.616  20.406  0.00  0.00    +0.000 A 
ENDBRANCH   7  11
BRANCH   2  17
ATOM     17  N   UNL     1       4.231   1.991  18.470  0.00  0.00    +0.000 N 
ATOM     18  H   UNL     1       3.777   1.585  17.644  0.00  0.00    +0.000 HD
ATOM     19  H   UNL     1       4.066   1.441  19.308  0.00  0.00    +0.000 HD
ENDBRANCH   2  17
BRANCH   1  20
ATOM     20  C   UNL     1       5.970   4.119  17.691  0.00  0.00    +0.000 C 
ATOM     21  O   UNL     1       7.044   4.318  18.237  0.00  0.00    +0.000 OA
BRANCH  20  22
ATOM     22  O   UNL     1       5.791   3.629  16.439  0.00  0.00    +0.000 OA
BRANCH  22  24
ATOM     23  C   UNL     1       6.167   3.937  14.104  0.00  0.00    +0.000 C 
ATOM     24  C   UNL     1       6.782   4.029  15.484  0.00  0.00    +0.000 C 
ENDBRANCH  22  24
ENDBRANCH  20  22
ENDBRANCH   1  20
BRANCH  10  25
ATOM     25  C   UNL     1       3.922   6.633  17.252  0.00  0.00    +0.000 C 
BRANCH  25  26
ATOM     26  C   UNL     1       3.054   7.813  17.428  0.00  0.00    +0.000 C 
ATOM     27  N   UNL     1       2.349   8.727  17.518  0.00  0.00    +0.000 NA
ENDBRANCH  25  26
BRANCH  25  28
ATOM     28  C   UNL     1       5.182   7.126  16.591  0.00  0.00    +0.000 C 
ATOM     29  O   UNL     1       5.428   7.038  15.397  0.00  0.00    +0.000 OA
BRANCH  28  30
ATOM     30  O   UNL     1       6.065   7.543  17.543  0.00  0.00    +0.000 OA
BRANCH  30  31
ATOM     31  C   UNL     1       7.434   7.567  17.120  0.00  0.00    +0.000 C 
ATOM     32  C   UNL     1       8.112   8.729  17.828  0.00  0.00    +0.000 C 
ENDBRANCH  30  31
ENDBRANCH  28  30
ENDBRANCH  25  28
ENDBRANCH  10  25
TORSDOF 10
ENDMDL
MODEL 6
REMARK VINA RESULT:      -6.1      2.522      4.925
REMARK  Name = 
REMARK  12 active torsions:
REMARK  status: ('A' for Active; 'I' for Inactive)
REMARK    1  A    between atoms: C_1  and  C_2
REMARK    2  A    between atoms: C_2  and  O_3
REMARK    3  A    between atoms: O_3  and  C_4
REMARK    4  A    between atoms: C_4  and  C_6
REMARK    5  A    between atoms: C_7  and  N_8
REMARK    6  A    between atoms: C_13  and  C_14
REMARK    7  A    between atoms: C_22  and  C_23
REMARK    8  A    between atoms: C_23  and  C_24
REMARK    9  A    between atoms: C_23  and  C_26
REMARK   10  A    between atoms: C_26  and  O_28
REMARK   11  A    between atoms: O_28  and  C_29
REMARK   12  A    between atoms: C_29  and  C_30
REMARK                            x       y       z     vdW  Elec       q    Type
REMARK                         _______ _______ _______ _____ _____    ______ ____
ROOT
ATOM      1  C   UNL     1      -2.802  12.503  21.848  0.00  0.00    +0.000 C 
ATOM      2  C   UNL     1      -2.652  12.150  23.142  0.00  0.00    +0.000 C 
ATOM      3  O   UNL     1      -1.648  11.289  23.556  0.00  0.00    +0.000 OA
ATOM      4  C   UNL     1      -0.932  10.592  22.622  0.00  0.00    +0.000 A 
ATOM      5  C   UNL     1      -0.075   9.610  23.108  0.00  0.00    +0.000 A 
ATOM      6  C   UNL     1       0.719   8.874  22.226  0.00  0.00    +0.000 A 
ATOM      7  C   UNL     1       0.646   9.073  20.836  0.00  0.00    +0.000 A 
ATOM      8  C   UNL     1      -0.274  10.039  20.374  0.00  0.00    +0.000 A 
ATOM      9  C   UNL     1      -1.028  10.838  21.255  0.00  0.00    +0.000 A 
ATOM     10  C   UNL     1      -1.894  11.989  20.747  0.00  0.00    +0.000 C 
ENDROOT
BRANCH   7  11
ATOM     11  C   UNL     1       1.535   8.341  19.898  0.00  0.00    +0.000 A 
ATOM     12  C   UNL     1       1.850   8.841  18.620  0.00  0.00    +0.000 A 
ATOM     13  C   UNL     1       2.650   8.119  17.727  0.00  0.00    +0.000 A 
ATOM     14  C   UNL     1       3.172   6.884  18.097  0.00  0.00    +0.000 A 
ATOM     15  C   UNL     1       2.890   6.368  19.357  0.00  0.00    +0.000 A 
ATOM     16  C   UNL     1       2.076   7.084  20.238  0.00  0.00    +0.000 A 
ENDBRANCH   7  11
BRANCH   2  17
ATOM     17  N   UNL     1      -3.432  12.585  24.188  0.00  0.00    +0.000 N 
ATOM     18  H   UNL     1      -3.408  11.943  24.987  0.00  0.00    +0.000 HD
ATOM     19  H   UNL     1      -4.381  12.788  23.886  0.00  0.00    +0.000 HD
ENDBRANCH   2  17
BRANCH   1  20
ATOM     20  C   UNL     1      -3.919  13.411  21.496  0.00  0.00    +0.000 C 
ATOM     21  O   UNL     1      -4.121  14.501  22.008  0.00  0.00    +0.000 OA
BRANCH  20  22
ATOM     22  O   UNL     1      -4.666  12.837  20.521  0.00  0.00    +0.000 OA
BRANCH  22  24
ATOM     23  C   UNL     1      -6.131  13.101  18.657  0.00  0.00    +0.000 C 
ATOM     24  C   UNL     1      -5.721  13.658  20.003  0.00  0.00    +0.000 C 
ENDBRANCH  22  24
ENDBRANCH  20  22
ENDBRANCH   1  20
BRANCH  10  25
ATOM     25  C   UNL     1      -0.997  13.060  20.068  0.00  0.00    +0.000 C 
BRANCH  25  26
ATOM     26  C   UNL     1       0.269  13.366  20.761  0.00  0.00    +0.000 C 
ATOM     27  N   UNL     1       1.257  13.559  21.334  0.00  0.00    +0.000 NA
ENDBRANCH  25  26
BRANCH  25  28
ATOM     28  C   UNL     1      -0.631  12.700  18.652  0.00  0.00    +0.000 C 
ATOM     29  O   UNL     1       0.481  12.831  18.161  0.00  0.00    +0.000 OA
BRANCH  28  30
ATOM     30  O   UNL     1      -1.755  12.353  17.963  0.00  0.00    +0.000 OA
BRANCH  30  31
ATOM     31  C   UNL     1      -1.656  11.119  17.239  0.00  0.00    +0.000 C 
ATOM     32  C   UNL     1      -2.793  10.224  17.704  0.00  0.00    +0.000 C 
ENDBRANCH  30  31
ENDBRANCH  28  30
ENDBRANCH  25  28
ENDBRANCH  10  25
TORSDOF 10
ENDMDL
MODEL 7
REMARK VINA RESULT:      -6.0      2.350      4.726
REMARK  Name = 
REMARK  12 active torsions:
REMARK  status: ('A' for Active; 'I' for Inactive)
REMARK    1  A    between atoms: C_1  and  C_2
REMARK    2  A    between atoms: C_2  and  O_3
REMARK    3  A    between atoms: O_3  and  C_4
REMARK    4  A    between atoms: C_4  and  C_6
REMARK    5  A    between atoms: C_7  and  N_8
REMARK    6  A    between atoms: C_13  and  C_14
REMARK    7  A    between atoms: C_22  and  C_23
REMARK    8  A    between atoms: C_23  and  C_24
REMARK    9  A    between atoms: C_23  and  C_26
REMARK   10  A    between atoms: C_26  and  O_28
REMARK   11  A    between atoms: O_28  and  C_29
REMARK   12  A    between atoms: C_29  and  C_30
REMARK                            x       y       z     vdW  Elec       q    Type
REMARK                         _______ _______ _______ _____ _____    ______ ____
ROOT
ATOM      1  C   UNL     1      -2.731  12.471  21.874  0.00  0.00    +0.000 C 
ATOM      2  C   UNL     1      -2.552  12.131  23.168  0.00  0.00    +0.000 C 
ATOM      3  O   UNL     1      -1.540  11.272  23.567  0.00  0.00    +0.000 OA
ATOM      4  C   UNL     1      -0.849  10.562  22.624  0.00  0.00    +0.000 A 
ATOM      5  C   UNL     1       0.016   9.582  23.101  0.00  0.00    +0.000 A 
ATOM      6  C   UNL     1       0.787   8.835  22.208  0.00  0.00    +0.000 A 
ATOM      7  C   UNL     1       0.682   9.019  20.819  0.00  0.00    +0.000 A 
ATOM      8  C   UNL     1      -0.246   9.984  20.368  0.00  0.00    +0.000 A 
ATOM      9  C   UNL     1      -0.976  10.794  21.257  0.00  0.00    +0.000 A 
ATOM     10  C   UNL     1      -1.851  11.942  20.758  0.00  0.00    +0.000 C 
ENDROOT
BRANCH   7  11
ATOM     11  C   UNL     1       1.547   8.274  19.868  0.00  0.00    +0.000 A 
ATOM     12  C   UNL     1       2.096   7.017  20.181  0.00  0.00    +0.000 A 
ATOM     13  C   UNL     1       2.949   6.348  19.296  0.00  0.00    +0.000 A 
ATOM     14  C   UNL     1       3.261   6.914  18.064  0.00  0.00    +0.000 A 
ATOM     15  C   UNL     1       2.725   8.148  17.719  0.00  0.00    +0.000 A 
ATOM     16  C   UNL     1       1.888   8.821  18.614  0.00  0.00    +0.000 A 
ENDBRANCH   7  11
BRANCH   2  17
ATOM     17  N   UNL     1      -3.306  12.580  24.227  0.00  0.00    +0.000 N 
ATOM     18  H   UNL     1      -3.719  13.503  24.050  0.00  0.00    +0.000 HD
ATOM     19  H   UNL     1      -2.779  12.555  25.096  0.00  0.00    +0.000 HD
ENDBRANCH   2  17
BRANCH   1  20
ATOM     20  C   UNL     1      -3.854  13.378  21.539  0.00  0.00    +0.000 C 
ATOM     21  O   UNL     1      -4.810  13.078  20.841  0.00  0.00    +0.000 OA
BRANCH  20  22
ATOM     22  O   UNL     1      -3.646  14.578  22.135  0.00  0.00    +0.000 OA
BRANCH  22  24
ATOM     23  C   UNL     1      -2.263  16.521  22.078  0.00  0.00    +0.000 C 
ATOM     24  C   UNL     1      -3.159  15.610  21.267  0.00  0.00    +0.000 C 
ENDBRANCH  22  24
ENDBRANCH  20  22
ENDBRANCH   1  20
BRANCH  10  25
ATOM     25  C   UNL     1      -0.967  13.003  20.046  0.00  0.00    +0.000 C 
BRANCH  25  26
ATOM     26  C   UNL     1       0.345  13.263  20.670  0.00  0.00    +0.000 C 
ATOM     27  N   UNL     1       1.369  13.521  21.145  0.00  0.00    +0.000 NA
ENDBRANCH  25  26
BRANCH  25  28
ATOM     28  C   UNL     1      -0.693  12.661  18.606  0.00  0.00    +0.000 C 
ATOM     29  O   UNL     1       0.382  12.805  18.043  0.00  0.00    +0.000 OA
BRANCH  28  30
ATOM     30  O   UNL     1      -1.858  12.313  17.989  0.00  0.00    +0.000 OA
BRANCH  30  31
ATOM     31  C   UNL     1      -1.755  11.189  17.106  0.00  0.00    +0.000 C 
ATOM     32  C   UNL     1      -2.645  10.088  17.661  0.00  0.00    +0.000 C 
ENDBRANCH  30  31
ENDBRANCH  28  30
ENDBRANCH  25  28
ENDBRANCH  10  25
TORSDOF 10
ENDMDL
MODEL 8
REMARK VINA RESULT:      -6.0      3.839      7.827
REMARK  Name = 
REMARK  12 active torsions:
REMARK  status: ('A' for Active; 'I' for Inactive)
REMARK    1  A    between atoms: C_1  and  C_2
REMARK    2  A    between atoms: C_2  and  O_3
REMARK    3  A    between atoms: O_3  and  C_4
REMARK    4  A    between atoms: C_4  and  C_6
REMARK    5  A    between atoms: C_7  and  N_8
REMARK    6  A    between atoms: C_13  and  C_14
REMARK    7  A    between atoms: C_22  and  C_23
REMARK    8  A    between atoms: C_23  and  C_24
REMARK    9  A    between atoms: C_23  and  C_26
REMARK   10  A    between atoms: C_26  and  O_28
REMARK   11  A    between atoms: O_28  and  C_29
REMARK   12  A    between atoms: C_29  and  C_30
REMARK                            x       y       z     vdW  Elec       q    Type
REMARK                         _______ _______ _______ _____ _____    ______ ____
ROOT
ATOM      1  C   UNL     1       3.549   5.248  17.416  0.00  0.00    +0.000 C 
ATOM      2  C   UNL     1       4.074   6.175  16.587  0.00  0.00    +0.000 C 
ATOM      3  O   UNL     1       3.948   7.533  16.832  0.00  0.00    +0.000 OA
ATOM      4  C   UNL     1       3.081   7.966  17.798  0.00  0.00    +0.000 A 
ATOM      5  C   UNL     1       2.862   9.338  17.861  0.00  0.00    +0.000 A 
ATOM      6  C   UNL     1       2.018   9.868  18.840  0.00  0.00    +0.000 A 
ATOM      7  C   UNL     1       1.342   9.038  19.750  0.00  0.00    +0.000 A 
ATOM      8  C   UNL     1       1.545   7.646  19.622  0.00  0.00    +0.000 A 
ATOM      9  C   UNL     1       2.447   7.103  18.689  0.00  0.00    +0.000 A 
ATOM     10  C   UNL     1       2.779   5.612  18.672  0.00  0.00    +0.000 C 
ENDROOT
BRANCH   7  11
ATOM     11  C   UNL     1       0.496   9.599  20.835  0.00  0.00    +0.000 A 
ATOM     12  C   UNL     1      -0.203  10.812  20.688  0.00  0.00    +0.000 A 
ATOM     13  C   UNL     1      -0.957  11.355  21.736  0.00  0.00    +0.000 A 
ATOM     14  C   UNL     1      -1.045  10.688  22.953  0.00  0.00    +0.000 A 
ATOM     15  C   UNL     1      -0.376   9.482  23.125  0.00  0.00    +0.000 A 
ATOM     16  C   UNL     1       0.390   8.952  22.083  0.00  0.00    +0.000 A 
ENDBRANCH   7  11
BRANCH   2  17
ATOM     17  N   UNL     1       4.788   5.914  15.441  0.00  0.00    +0.000 N 
ATOM     18  H   UNL     1       4.433   6.436  14.632  0.00  0.00    +0.000 HD
ATOM     19  H   UNL     1       4.848   4.916  15.259  0.00  0.00    +0.000 HD
ENDBRANCH   2  17
BRANCH   1  20
ATOM     20  C   UNL     1       3.714   3.819  17.060  0.00  0.00    +0.000 C 
ATOM     21  O   UNL     1       4.784   3.274  16.836  0.00  0.00    +0.000 OA
BRANCH  20  22
ATOM     22  O   UNL     1       2.495   3.226  17.032  0.00  0.00    +0.000 OA
BRANCH  22  24
ATOM     23  C   UNL     1       0.971   2.236  18.577  0.00  0.00    +0.000 C 
ATOM     24  C   UNL     1       2.336   2.123  17.934  0.00  0.00    +0.000 C 
ENDBRANCH  22  24
ENDBRANCH  20  22
ENDBRANCH   1  20
BRANCH  10  25
ATOM     25  C   UNL     1       3.460   5.212  20.010  0.00  0.00    +0.000 C 
BRANCH  25  26
ATOM     26  C   UNL     1       2.684   4.302  20.874  0.00  0.00    +0.000 C 
ATOM     27  N   UNL     1       2.045   3.630  21.568  0.00  0.00    +0.000 NA
ENDBRANCH  25  26
BRANCH  25  28
ATOM     28  C   UNL     1       4.805   4.566  19.808  0.00  0.00    +0.000 C 
ATOM     29  O   UNL     1       5.029   3.369  19.910  0.00  0.00    +0.000 OA
BRANCH  28  30
ATOM     30  O   UNL     1       5.756   5.530  19.647  0.00  0.00    +0.000 OA
BRANCH  30  31
ATOM     31  C   UNL     1       6.829   5.170  18.768  0.00  0.00    +0.000 C 
ATOM     32  C   UNL     1       8.056   5.958  19.197  0.00  0.00    +0.000 C 
ENDBRANCH  30  31
ENDBRANCH  28  30
ENDBRANCH  25  28
ENDBRANCH  10  25
TORSDOF 10
ENDMDL
MODEL 9
REMARK VINA RESULT:      -6.0      2.606      5.240
REMARK  Name = 
REMARK  12 active torsions:
REMARK  status: ('A' for Active; 'I' for Inactive)
REMARK    1  A    between atoms: C_1  and  C_2
REMARK    2  A    between atoms: C_2  and  O_3
REMARK    3  A    between atoms: O_3  and  C_4
REMARK    4  A    between atoms: C_4  and  C_6
REMARK    5  A    between atoms: C_7  and  N_8
REMARK    6  A    between atoms: C_13  and  C_14
REMARK    7  A    between atoms: C_22  and  C_23
REMARK    8  A    between atoms: C_23  and  C_24
REMARK    9  A    between atoms: C_23  and  C_26
REMARK   10  A    between atoms: C_26  and  O_28
REMARK   11  A    between atoms: O_28  and  C_29
REMARK   12  A    between atoms: C_29  and  C_30
REMARK                            x       y       z     vdW  Elec       q    Type
REMARK                         _______ _______ _______ _____ _____    ______ ____
ROOT
ATOM      1  C   UNL     1      -1.895  12.809  21.676  0.00  0.00    +0.000 C 
ATOM      2  C   UNL     1      -1.990  12.297  22.922  0.00  0.00    +0.000 C 
ATOM      3  O   UNL     1      -1.227  11.215  23.330  0.00  0.00    +0.000 OA
ATOM      4  C   UNL     1      -0.532  10.491  22.400  0.00  0.00    +0.000 A 
ATOM      5  C   UNL     1       0.055   9.312  22.847  0.00  0.00    +0.000 A 
ATOM      6  C   UNL     1       0.812   8.531  21.972  0.00  0.00    +0.000 A 
ATOM      7  C   UNL     1       0.966   8.887  20.621  0.00  0.00    +0.000 A 
ATOM      8  C   UNL     1       0.312  10.061  20.189  0.00  0.00    +0.000 A 
ATOM      9  C   UNL     1      -0.394  10.896  21.075  0.00  0.00    +0.000 A 
ATOM     10  C   UNL     1      -0.956  12.243  20.627  0.00  0.00    +0.000 C 
ENDROOT
BRANCH   7  11
ATOM     11  C   UNL     1       1.825   8.096  19.702  0.00  0.00    +0.000 A 
ATOM     12  C   UNL     1       2.197   8.571  18.431  0.00  0.00    +0.000 A 
ATOM     13  C   UNL     1       2.966   7.796  17.555  0.00  0.00    +0.000 A 
ATOM     14  C   UNL     1       3.398   6.530  17.936  0.00  0.00    +0.000 A 
ATOM     15  C   UNL     1       3.058   6.038  19.190  0.00  0.00    +0.000 A 
ATOM     16  C   UNL     1       2.275   6.808  20.055  0.00  0.00    +0.000 A 
ENDBRANCH   7  11
BRANCH   2  17
ATOM     17  N   UNL     1      -2.811  12.766  23.921  0.00  0.00    +0.000 N 
ATOM     18  H   UNL     1      -3.446  13.502  23.592  0.00  0.00    +0.000 HD
ATOM     19  H   UNL     1      -2.277  13.054  24.736  0.00  0.00    +0.000 HD
ENDBRANCH   2  17
BRANCH   1  20
ATOM     20  C   UNL     1      -2.768  13.953  21.322  0.00  0.00    +0.000 C 
ATOM     21  O   UNL     1      -2.675  15.074  21.796  0.00  0.00    +0.000 OA
BRANCH  20  22
ATOM     22  O   UNL     1      -3.669  13.551  20.392  0.00  0.00    +0.000 OA
BRANCH  22  24
ATOM     23  C   UNL     1      -5.673  12.257  20.435  0.00  0.00    +0.000 C 
ATOM     24  C   UNL     1      -5.036  13.574  20.824  0.00  0.00    +0.000 C 
ENDBRANCH  22  24
ENDBRANCH  20  22
ENDBRANCH   1  20
BRANCH  10  25
ATOM     25  C   UNL     1       0.207  13.180  20.199  0.00  0.00    +0.000 C 
BRANCH  25  26
ATOM     26  C   UNL     1      -0.196  14.445  19.555  0.00  0.00    +0.000 C 
ATOM     27  N   UNL     1      -0.537  15.408  19.010  0.00  0.00    +0.000 NA
ENDBRANCH  25  26
BRANCH  25  28
ATOM     28  C   UNL     1       1.106  13.554  21.348  0.00  0.00    +0.000 C 
ATOM     29  O   UNL     1       0.787  14.277  22.280  0.00  0.00    +0.000 OA
BRANCH  28  30
ATOM     30  O   UNL     1       2.366  13.090  21.112  0.00  0.00    +0.000 OA
BRANCH  30  31
ATOM     31  C   UNL     1       3.383  14.100  21.102  0.00  0.00    +0.000 C 
ATOM     32  C   UNL     1       3.641  14.476  19.652  0.00  0.00    +0.000 C 
ENDBRANCH  30  31
ENDBRANCH  28  30
ENDBRANCH  25  28
ENDBRANCH  10  25
TORSDOF 10
ENDMDL
