MODEL 1
REMARK VINA RESULT:      -7.9      0.000      0.000
REMARK  Name = 
REMARK  7 active torsions:
REMARK  status: ('A' for Active; 'I' for Inactive)
REMARK    1  A    between atoms: C_1  and  C_2
REMARK    2  A    between atoms: C_5  and  N_6
REMARK    3  A    between atoms: C_7  and  C_9
REMARK    4  A    between atoms: N_13  and  C_14
REMARK    5  A    between atoms: C_14  and  C_15
REMARK    6  A    between atoms: C_15  and  C_16
REMARK    7  A    between atoms: C_23  and  C_24
REMARK                            x       y       z     vdW  Elec       q    Type
REMARK                         _______ _______ _______ _____ _____    ______ ____
ROOT
ATOM      1  C   UNL     1       1.096   9.581  22.136  0.00  0.00    +0.000 C 
ATOM      2  C   UNL     1       0.147   9.722  23.321  0.00  0.00    +0.000 C 
ATOM      3  C   UNL     1      -0.876  10.717  22.842  0.00  0.00    +0.000 C 
ATOM      4  O   UNL     1      -1.958  10.900  23.373  0.00  0.00    +0.000 OA
ATOM      5  N   UNL     1      -0.373  11.360  21.721  0.00  0.00    +0.000 N 
ATOM      6  C   UNL     1       0.922  10.853  21.325  0.00  0.00    +0.000 C 
ENDROOT
BRANCH   1   8
ATOM      7  N   UNL     1       1.930   7.669  20.867  0.00  0.00    +0.000 N 
ATOM      8  C   UNL     1       0.802   8.328  21.318  0.00  0.00    +0.000 C 
ATOM      9  O   UNL     1      -0.369   8.010  21.115  0.00  0.00    +0.000 OA
ATOM     10  H   UNL     1       2.817   8.058  21.153  0.00  0.00    +0.000 HD
BRANCH   7  15
ATOM     11  C   UNL     1       2.249   2.938  17.623  0.00  0.00    +0.000 C 
ATOM     12  C   UNL     1       2.163   4.169  18.472  0.00  0.00    +0.000 A 
ATOM     13  C   UNL     1       1.793   4.086  19.811  0.00  0.00    +0.000 A 
ATOM     14  C   UNL     1       1.716   5.237  20.596  0.00  0.00    +0.000 A 
ATOM     15  C   UNL     1       2.007   6.503  20.070  0.00  0.00    +0.000 A 
ATOM     16  C   UNL     1       2.384   6.601  18.713  0.00  0.00    +0.000 A 
ATOM     17  C   UNL     1       2.714   7.886  17.992  0.00  0.00    +0.000 C 
ATOM     18  C   UNL     1       2.450   5.427  17.932  0.00  0.00    +0.000 A 
ENDBRANCH   7  15
ENDBRANCH   1   8
BRANCH   5  19
ATOM     19  C   UNL     1      -1.031  12.432  20.969  0.00  0.00    +0.000 C 
BRANCH  19  20
ATOM     20  C   UNL     1      -0.700  12.452  19.472  0.00  0.00    +0.000 C 
BRANCH  20  21
ATOM     21  C   UNL     1      -1.597  11.553  18.657  0.00  0.00    +0.000 A 
ATOM     22  C   UNL     1      -1.061  10.481  17.930  0.00  0.00    +0.000 A 
ATOM     23  C   UNL     1      -1.895   9.639  17.193  0.00  0.00    +0.000 A 
ATOM     24  C   UNL     1      -3.270   9.861  17.175  0.00  0.00    +0.000 A 
ATOM     25  C   UNL     1      -3.812  10.925  17.894  0.00  0.00    +0.000 A 
ATOM     26  C   UNL     1      -2.981  11.768  18.630  0.00  0.00    +0.000 A 
ENDBRANCH  20  21
ENDBRANCH  19  20
ENDBRANCH   5  19
TORSDOF 5
ENDMDL
MODEL 2
REMARK VINA RESULT:      -7.9      4.338      8.797
REMARK  Name = 
REMARK  7 active torsions:
REMARK  status: ('A' for Active; 'I' for Inactive)
REMARK    1  A    between atoms: C_1  and  C_2
REMARK    2  A    between atoms: C_5  and  N_6
REMARK    3  A    between atoms: C_7  and  C_9
REMARK    4  A    between atoms: N_13  and  C_14
REMARK    5  A    between atoms: C_14  and  C_15
REMARK    6  A    between atoms: C_15  and  C_16
REMARK    7  A    between atoms: C_23  and  C_24
REMARK                            x       y       z     vdW  Elec       q    Type
REMARK                         _______ _______ _______ _____ _____    ______ ____
ROOT
ATOM      1  C   UNL     1       3.415   3.885  18.348  0.00  0.00    +0.000 C 
ATOM      2  C   UNL     1       4.285   3.992  19.595  0.00  0.00    +0.000 C 
ATOM      3  C   UNL     1       5.608   4.477  19.066  0.00  0.00    +0.000 C 
ATOM      4  O   UNL     1       6.491   4.955  19.756  0.00  0.00    +0.000 OA
ATOM      5  N   UNL     1       5.629   4.287  17.692  0.00  0.00    +0.000 N 
ATOM      6  C   UNL     1       4.385   3.749  17.189  0.00  0.00    +0.000 C 
ENDROOT
BRANCH   1   8
ATOM      7  N   UNL     1       2.993   6.258  18.734  0.00  0.00    +0.000 N 
ATOM      8  C   UNL     1       2.492   5.088  18.195  0.00  0.00    +0.000 C 
ATOM      9  O   UNL     1       1.406   4.939  17.636  0.00  0.00    +0.000 OA
ATOM     10  H   UNL     1       3.918   6.204  19.133  0.00  0.00    +0.000 HD
BRANCH   7  15
ATOM     11  C   UNL     1       0.521  11.441  18.944  0.00  0.00    +0.000 C 
ATOM     12  C   UNL     1       1.166  10.090  18.884  0.00  0.00    +0.000 A 
ATOM     13  C   UNL     1       1.907   9.704  17.772  0.00  0.00    +0.000 A 
ATOM     14  C   UNL     1       2.506   8.444  17.724  0.00  0.00    +0.000 A 
ATOM     15  C   UNL     1       2.384   7.535  18.783  0.00  0.00    +0.000 A 
ATOM     16  C   UNL     1       1.635   7.915  19.918  0.00  0.00    +0.000 A 
ATOM     17  C   UNL     1       1.397   7.050  21.133  0.00  0.00    +0.000 C 
ATOM     18  C   UNL     1       1.031   9.190  19.946  0.00  0.00    +0.000 A 
ENDBRANCH   7  15
ENDBRANCH   1   8
BRANCH   5  19
ATOM     19  C   UNL     1       6.747   4.584  16.793  0.00  0.00    +0.000 C 
BRANCH  19  20
ATOM     20  C   UNL     1       6.397   5.529  15.637  0.00  0.00    +0.000 C 
BRANCH  20  21
ATOM     21  C   UNL     1       6.533   4.878  14.283  0.00  0.00    +0.000 A 
ATOM     22  C   UNL     1       5.619   3.898  13.869  0.00  0.00    +0.000 A 
ATOM     23  C   UNL     1       5.735   3.311  12.608  0.00  0.00    +0.000 A 
ATOM     24  C   UNL     1       6.764   3.694  11.752  0.00  0.00    +0.000 A 
ATOM     25  C   UNL     1       7.678   4.667  12.154  0.00  0.00    +0.000 A 
ATOM     26  C   UNL     1       7.565   5.255  13.414  0.00  0.00    +0.000 A 
ENDBRANCH  20  21
ENDBRANCH  19  20
ENDBRANCH   5  19
TORSDOF 5
ENDMDL
MODEL 3
REMARK VINA RESULT:      -7.7      5.878      9.502
REMARK  Name = 
REMARK  7 active torsions:
REMARK  status: ('A' for Active; 'I' for Inactive)
REMARK    1  A    between atoms: C_1  and  C_2
REMARK    2  A    between atoms: C_5  and  N_6
REMARK    3  A    between atoms: C_7  and  C_9
REMARK    4  A    between atoms: N_13  and  C_14
REMARK    5  A    between atoms: C_14  and  C_15
REMARK    6  A    between atoms: C_15  and  C_16
REMARK    7  A    between atoms: C_23  and  C_24
REMARK                            x       y       z     vdW  Elec       q    Type
REMARK                         _______ _______ _______ _____ _____    ______ ____
ROOT
ATOM      1  C   UNL     1       7.246   5.759  17.762  0.00  0.00    +0.000 C 
ATOM      2  C   UNL     1       6.629   7.043  17.218  0.00  0.00    +0.000 C 
ATOM      3  C   UNL     1       5.842   6.580  16.021  0.00  0.00    +0.000 C 
ATOM      4  O   UNL     1       4.981   7.241  15.467  0.00  0.00    +0.000 OA
ATOM      5  N   UNL     1       6.266   5.304  15.682  0.00  0.00    +0.000 N 
ATOM      6  C   UNL     1       7.267   4.792  16.593  0.00  0.00    +0.000 C 
ENDROOT
BRANCH   1   8
ATOM      7  N   UNL     1       5.209   4.728  18.630  0.00  0.00    +0.000 N 
ATOM      8  C   UNL     1       6.463   5.213  18.952  0.00  0.00    +0.000 C 
ATOM      9  O   UNL     1       6.975   5.251  20.070  0.00  0.00    +0.000 OA
ATOM     10  H   UNL     1       4.960   4.751  17.652  0.00  0.00    +0.000 HD
BRANCH   7  15
ATOM     11  C   UNL     1       1.225   2.521  22.133  0.00  0.00    +0.000 C 
ATOM     12  C   UNL     1       2.267   3.093  21.221  0.00  0.00    +0.000 A 
ATOM     13  C   UNL     1       3.368   2.335  20.834  0.00  0.00    +0.000 A 
ATOM     14  C   UNL     1       4.335   2.875  19.984  0.00  0.00    +0.000 A 
ATOM     15  C   UNL     1       4.230   4.183  19.494  0.00  0.00    +0.000 A 
ATOM     16  C   UNL     1       3.117   4.963  19.877  0.00  0.00    +0.000 A 
ATOM     17  C   UNL     1       2.865   6.389  19.451  0.00  0.00    +0.000 C 
ATOM     18  C   UNL     1       2.153   4.403  20.743  0.00  0.00    +0.000 A 
ENDBRANCH   7  15
ENDBRANCH   1   8
BRANCH   5  19
ATOM     19  C   UNL     1       5.789   4.504  14.551  0.00  0.00    +0.000 C 
BRANCH  19  20
ATOM     20  C   UNL     1       6.634   4.639  13.278  0.00  0.00    +0.000 C 
BRANCH  20  21
ATOM     21  C   UNL     1       6.488   3.459  12.347  0.00  0.00    +0.000 A 
ATOM     22  C   UNL     1       7.619   2.861  11.773  0.00  0.00    +0.000 A 
ATOM     23  C   UNL     1       7.484   1.758  10.928  0.00  0.00    +0.000 A 
ATOM     24  C   UNL     1       6.219   1.246  10.648  0.00  0.00    +0.000 A 
ATOM     25  C   UNL     1       5.089   1.835  11.212  0.00  0.00    +0.000 A 
ATOM     26  C   UNL     1       5.222   2.937  12.057  0.00  0.00    +0.000 A 
ENDBRANCH  20  21
ENDBRANCH  19  20
ENDBRANCH   5  19
TORSDOF 5
ENDMDL
MODEL 4
REMARK VINA RESULT:      -7.7      4.100      6.985
REMARK  Name = 
REMARK  7 active torsions:
REMARK  status: ('A' for Active; 'I' for Inactive)
REMARK    1  A    between atoms: C_1  and  C_2
REMARK    2  A    between atoms: C_5  and  N_6
REMARK    3  A    between atoms: C_7  and  C_9
REMARK    4  A    between atoms: N_13  and  C_14
REMARK    5  A    between atoms: C_14  and  C_15
REMARK    6  A    between atoms: C_15  and  C_16
REMARK    7  A    between atoms: C_23  and  C_24
REMARK                            x       y       z     vdW  Elec       q    Type
REMARK                         _______ _______ _______ _____ _____    ______ ____
ROOT
ATOM      1  C   UNL     1       3.647   2.760  18.892  0.00  0.00    +0.000 C 
ATOM      2  C   UNL     1       2.395   1.890  18.906  0.00  0.00    +0.000 C 
ATOM      3  C   UNL     1       1.315   2.829  19.373  0.00  0.00    +0.000 C 
ATOM      4  O   UNL     1       0.121   2.614  19.260  0.00  0.00    +0.000 OA
ATOM      5  N   UNL     1       1.915   3.946  19.934  0.00  0.00    +0.000 N 
ATOM      6  C   UNL     1       3.358   3.901  19.850  0.00  0.00    +0.000 C 
ENDROOT
BRANCH   1   8
ATOM      7  N   UNL     1       5.326   3.495  17.279  0.00  0.00    +0.000 N 
ATOM      8  C   UNL     1       3.982   3.252  17.488  0.00  0.00    +0.000 C 
ATOM      9  O   UNL     1       3.069   3.403  16.677  0.00  0.00    +0.000 OA
ATOM     10  H   UNL     1       5.942   3.289  18.052  0.00  0.00    +0.000 HD
BRANCH   7  15
ATOM     11  C   UNL     1       7.909   5.463  12.538  0.00  0.00    +0.000 C 
ATOM     12  C   UNL     1       7.231   4.948  13.771  0.00  0.00    +0.000 A 
ATOM     13  C   UNL     1       6.283   3.933  13.691  0.00  0.00    +0.000 A 
ATOM     14  C   UNL     1       5.657   3.457  14.845  0.00  0.00    +0.000 A 
ATOM     15  C   UNL     1       5.960   3.979  16.110  0.00  0.00    +0.000 A 
ATOM     16  C   UNL     1       6.922   5.008  16.205  0.00  0.00    +0.000 A 
ATOM     17  C   UNL     1       7.349   5.684  17.486  0.00  0.00    +0.000 C 
ATOM     18  C   UNL     1       7.539   5.481  15.027  0.00  0.00    +0.000 A 
ENDBRANCH   7  15
ENDBRANCH   1   8
BRANCH   5  19
ATOM     19  C   UNL     1       1.226   5.083  20.550  0.00  0.00    +0.000 C 
BRANCH  19  20
ATOM     20  C   UNL     1       2.130   6.284  20.856  0.00  0.00    +0.000 C 
BRANCH  20  21
ATOM     21  C   UNL     1       1.957   7.417  19.874  0.00  0.00    +0.000 A 
ATOM     22  C   UNL     1       1.230   8.562  20.230  0.00  0.00    +0.000 A 
ATOM     23  C   UNL     1       1.088   9.618  19.329  0.00  0.00    +0.000 A 
ATOM     24  C   UNL     1       1.666   9.537  18.064  0.00  0.00    +0.000 A 
ATOM     25  C   UNL     1       2.389   8.402  17.700  0.00  0.00    +0.000 A 
ATOM     26  C   UNL     1       2.533   7.346  18.600  0.00  0.00    +0.000 A 
ENDBRANCH  20  21
ENDBRANCH  19  20
ENDBRANCH   5  19
TORSDOF 5
ENDMDL
MODEL 5
REMARK VINA RESULT:      -7.7      4.050      7.178
REMARK  Name = 
REMARK  7 active torsions:
REMARK  status: ('A' for Active; 'I' for Inactive)
REMARK    1  A    between atoms: C_1  and  C_2
REMARK    2  A    between atoms: C_5  and  N_6
REMARK    3  A    between atoms: C_7  and  C_9
REMARK    4  A    between atoms: N_13  and  C_14
REMARK    5  A    between atoms: C_14  and  C_15
REMARK    6  A    between atoms: C_15  and  C_16
REMARK    7  A    between atoms: C_23  and  C_24
REMARK                            x       y       z     vdW  Elec       q    Type
REMARK                         _______ _______ _______ _____ _____    ______ ____
ROOT
ATOM      1  C   UNL     1       4.028   2.711  17.668  0.00  0.00    +0.000 C 
ATOM      2  C   UNL     1       2.784   2.848  16.797  0.00  0.00    +0.000 C 
ATOM      3  C   UNL     1       1.832   3.635  17.657  0.00  0.00    +0.000 C 
ATOM      4  O   UNL     1       0.834   4.196  17.242  0.00  0.00    +0.000 OA
ATOM      5  N   UNL     1       2.292   3.603  18.966  0.00  0.00    +0.000 N 
ATOM      6  C   UNL     1       3.545   2.893  19.095  0.00  0.00    +0.000 C 
ENDROOT
BRANCH   1   8
ATOM      7  N   UNL     1       5.312   4.710  18.230  0.00  0.00    +0.000 N 
ATOM      8  C   UNL     1       5.103   3.723  17.286  0.00  0.00    +0.000 C 
ATOM      9  O   UNL     1       5.676   3.603  16.204  0.00  0.00    +0.000 OA
ATOM     10  H   UNL     1       4.768   4.639  19.077  0.00  0.00    +0.000 HD
BRANCH   7  15
ATOM     11  C   UNL     1       8.944   9.157  18.000  0.00  0.00    +0.000 C 
ATOM     12  C   UNL     1       8.000   7.995  18.062  0.00  0.00    +0.000 A 
ATOM     13  C   UNL     1       8.215   6.951  18.957  0.00  0.00    +0.000 A 
ATOM     14  C   UNL     1       7.331   5.872  19.010  0.00  0.00    +0.000 A 
ATOM     15  C   UNL     1       6.208   5.804  18.174  0.00  0.00    +0.000 A 
ATOM     16  C   UNL     1       5.979   6.857  17.262  0.00  0.00    +0.000 A 
ATOM     17  C   UNL     1       4.828   6.928  16.287  0.00  0.00    +0.000 C 
ATOM     18  C   UNL     1       6.886   7.937  17.218  0.00  0.00    +0.000 A 
ENDBRANCH   7  15
ENDBRANCH   1   8
BRANCH   5  19
ATOM     19  C   UNL     1       1.638   4.207  20.129  0.00  0.00    +0.000 C 
BRANCH  19  20
ATOM     20  C   UNL     1       2.418   5.365  20.765  0.00  0.00    +0.000 C 
BRANCH  20  21
ATOM     21  C   UNL     1       2.058   6.709  20.180  0.00  0.00    +0.000 A 
ATOM     22  C   UNL     1       1.341   7.647  20.937  0.00  0.00    +0.000 A 
ATOM     23  C   UNL     1       1.026   8.896  20.402  0.00  0.00    +0.000 A 
ATOM     24  C   UNL     1       1.421   9.219  19.105  0.00  0.00    +0.000 A 
ATOM     25  C   UNL     1       2.133   8.293  18.344  0.00  0.00    +0.000 A 
ATOM     26  C   UNL     1       2.449   7.044  18.877  0.00  0.00    +0.000 A 
ENDBRANCH  20  21
ENDBRANCH  19  20
ENDBRANCH   5  19
TORSDOF 5
ENDMDL
MODEL 6
REMARK VINA RESULT:      -7.7      0.534      1.082
REMARK  Name = 
REMARK  7 active torsions:
REMARK  status: ('A' for Active; 'I' for Inactive)
REMARK    1  A    between atoms: C_1  and  C_2
REMARK    2  A    between atoms: C_5  and  N_6
REMARK    3  A    between atoms: C_7  and  C_9
REMARK    4  A    between atoms: N_13  and  C_14
REMARK    5  A    between atoms: C_14  and  C_15
REMARK    6  A    between atoms: C_15  and  C_16
REMARK    7  A    between atoms: C_23  and  C_24
REMARK                            x       y       z     vdW  Elec       q    Type
REMARK                         _______ _______ _______ _____ _____    ______ ____
ROOT
ATOM      1  C   UNL     1       0.866   9.578  22.337  0.00  0.00    +0.000 C 
ATOM      2  C   UNL     1      -0.370  10.009  23.119  0.00  0.00    +0.000 C 
ATOM      3  C   UNL     1      -0.975  11.089  22.262  0.00  0.00    +0.000 C 
ATOM      4  O   UNL     1      -2.114  11.505  22.381  0.00  0.00    +0.000 OA
ATOM      5  N   UNL     1      -0.023  11.504  21.341  0.00  0.00    +0.000 N 
ATOM      6  C   UNL     1       1.208  10.753  21.441  0.00  0.00    +0.000 C 
ENDROOT
BRANCH   1   8
ATOM      7  N   UNL     1       1.757   7.753  20.982  0.00  0.00    +0.000 N 
ATOM      8  C   UNL     1       0.619   8.298  21.546  0.00  0.00    +0.000 C 
ATOM      9  O   UNL     1      -0.529   7.864  21.459  0.00  0.00    +0.000 OA
ATOM     10  H   UNL     1       2.625   8.230  21.180  0.00  0.00    +0.000 HD
BRANCH   7  15
ATOM     11  C   UNL     1       2.224   3.062  17.697  0.00  0.00    +0.000 C 
ATOM     12  C   UNL     1       2.099   4.283  18.557  0.00  0.00    +0.000 A 
ATOM     13  C   UNL     1       1.714   4.178  19.889  0.00  0.00    +0.000 A 
ATOM     14  C   UNL     1       1.601   5.320  20.685  0.00  0.00    +0.000 A 
ATOM     15  C   UNL     1       1.871   6.596  20.174  0.00  0.00    +0.000 A 
ATOM     16  C   UNL     1       2.263   6.716  18.823  0.00  0.00    +0.000 A 
ATOM     17  C   UNL     1       2.574   8.016  18.120  0.00  0.00    +0.000 C 
ATOM     18  C   UNL     1       2.366   5.552  18.033  0.00  0.00    +0.000 A 
ENDBRANCH   7  15
ENDBRANCH   1   8
BRANCH   5  19
ATOM     19  C   UNL     1      -0.186  12.568  20.347  0.00  0.00    +0.000 C 
BRANCH  19  20
ATOM     20  C   UNL     1      -0.168  12.085  18.892  0.00  0.00    +0.000 C 
BRANCH  20  21
ATOM     21  C   UNL     1      -1.475  11.468  18.459  0.00  0.00    +0.000 A 
ATOM     22  C   UNL     1      -2.696  12.038  18.852  0.00  0.00    +0.000 A 
ATOM     23  C   UNL     1      -3.904  11.477  18.434  0.00  0.00    +0.000 A 
ATOM     24  C   UNL     1      -3.904  10.343  17.625  0.00  0.00    +0.000 A 
ATOM     25  C   UNL     1      -2.696   9.770  17.231  0.00  0.00    +0.000 A 
ATOM     26  C   UNL     1      -1.488  10.328  17.647  0.00  0.00    +0.000 A 
ENDBRANCH  20  21
ENDBRANCH  19  20
ENDBRANCH   5  19
TORSDOF 5
ENDMDL
MODEL 7
REMARK VINA RESULT:      -7.6      4.260      8.619
REMARK  Name = 
REMARK  7 active torsions:
REMARK  status: ('A' for Active; 'I' for Inactive)
REMARK    1  A    between atoms: C_1  and  C_2
REMARK    2  A    between atoms: C_5  and  N_6
REMARK    3  A    between atoms: C_7  and  C_9
REMARK    4  A    between atoms: N_13  and  C_14
REMARK    5  A    between atoms: C_14  and  C_15
REMARK    6  A    between atoms: C_15  and  C_16
REMARK    7  A    between atoms: C_23  and  C_24
REMARK                            x       y       z     vdW  Elec       q    Type
REMARK                         _______ _______ _______ _____ _____    ______ ____
ROOT
ATOM      1  C   UNL     1       3.423   3.930  18.457  0.00  0.00    +0.000 C 
ATOM      2  C   UNL     1       4.601   3.800  19.417  0.00  0.00    +0.000 C 
ATOM      3  C   UNL     1       5.637   4.725  18.837  0.00  0.00    +0.000 C 
ATOM      4  O   UNL     1       6.616   5.127  19.441  0.00  0.00    +0.000 OA
ATOM      5  N   UNL     1       5.277   5.024  17.531  0.00  0.00    +0.000 N 
ATOM      6  C   UNL     1       4.018   4.422  17.151  0.00  0.00    +0.000 C 
ENDROOT
BRANCH   1   8
ATOM      7  N   UNL     1       2.787   6.165  19.206  0.00  0.00    +0.000 N 
ATOM      8  C   UNL     1       2.351   4.870  18.997  0.00  0.00    +0.000 C 
ATOM      9  O   UNL     1       1.224   4.427  19.211  0.00  0.00    +0.000 OA
ATOM     10  H   UNL     1       3.743   6.360  18.949  0.00  0.00    +0.000 HD
BRANCH   7  15
ATOM     11  C   UNL     1      -0.171  10.634  21.279  0.00  0.00    +0.000 C 
ATOM     12  C   UNL     1       0.602   9.467  20.743  0.00  0.00    +0.000 A 
ATOM     13  C   UNL     1       0.812   8.335  21.523  0.00  0.00    +0.000 A 
ATOM     14  C   UNL     1       1.532   7.251  21.017  0.00  0.00    +0.000 A 
ATOM     15  C   UNL     1       2.059   7.265  19.719  0.00  0.00    +0.000 A 
ATOM     16  C   UNL     1       1.851   8.408  18.916  0.00  0.00    +0.000 A 
ATOM     17  C   UNL     1       2.364   8.586  17.507  0.00  0.00    +0.000 C 
ATOM     18  C   UNL     1       1.127   9.496  19.447  0.00  0.00    +0.000 A 
ENDBRANCH   7  15
ENDBRANCH   1   8
BRANCH   5  19
ATOM     19  C   UNL     1       6.035   5.857  16.593  0.00  0.00    +0.000 C 
BRANCH  19  20
ATOM     20  C   UNL     1       7.269   5.174  15.991  0.00  0.00    +0.000 C 
BRANCH  20  21
ATOM     21  C   UNL     1       7.076   4.773  14.549  0.00  0.00    +0.000 A 
ATOM     22  C   UNL     1       6.099   3.831  14.196  0.00  0.00    +0.000 A 
ATOM     23  C   UNL     1       5.908   3.477  12.860  0.00  0.00    +0.000 A 
ATOM     24  C   UNL     1       6.693   4.057  11.866  0.00  0.00    +0.000 A 
ATOM     25  C   UNL     1       7.667   4.993  12.207  0.00  0.00    +0.000 A 
ATOM     26  C   UNL     1       7.860   5.349  13.542  0.00  0.00    +0.000 A 
ENDBRANCH  20  21
ENDBRANCH  19  20
ENDBRANCH   5  19
TORSDOF 5
ENDMDL
MODEL 8
REMARK VINA RESULT:      -7.6      4.231      8.702
REMARK  Name = 
REMARK  7 active torsions:
REMARK  status: ('A' for Active; 'I' for Inactive)
REMARK    1  A    between atoms: C_1  and  C_2
REMARK    2  A    between atoms: C_5  and  N_6
REMARK    3  A    between atoms: C_7  and  C_9
REMARK    4  A    between atoms: N_13  and  C_14
REMARK    5  A    between atoms: C_14  and  C_15
REMARK    6  A    between atoms: C_15  and  C_16
REMARK    7  A    between atoms: C_23  and  C_24
REMARK                            x       y       z     vdW  Elec       q    Type
REMARK                         _______ _______ _______ _____ _____    ______ ____
ROOT
ATOM      1  C   UNL     1       3.228   4.258  18.913  0.00  0.00    +0.000 C 
ATOM      2  C   UNL     1       4.243   4.586  20.003  0.00  0.00    +0.000 C 
ATOM      3  C   UNL     1       5.528   4.784  19.245  0.00  0.00    +0.000 C 
ATOM      4  O   UNL     1       6.519   5.327  19.701  0.00  0.00    +0.000 OA
ATOM      5  N   UNL     1       5.376   4.250  17.974  0.00  0.00    +0.000 N 
ATOM      6  C   UNL     1       4.044   3.734  17.746  0.00  0.00    +0.000 C 
ENDROOT
BRANCH   1   8
ATOM      7  N   UNL     1       2.749   6.636  19.186  0.00  0.00    +0.000 N 
ATOM      8  C   UNL     1       2.387   5.472  18.535  0.00  0.00    +0.000 C 
ATOM      9  O   UNL     1       1.476   5.334  17.721  0.00  0.00    +0.000 OA
ATOM     10  H   UNL     1       3.544   6.572  19.805  0.00  0.00    +0.000 HD
BRANCH   7  15
ATOM     11  C   UNL     1       0.364  11.848  18.778  0.00  0.00    +0.000 C 
ATOM     12  C   UNL     1       0.986  10.488  18.880  0.00  0.00    +0.000 A 
ATOM     13  C   UNL     1       1.771   9.987  17.847  0.00  0.00    +0.000 A 
ATOM     14  C   UNL     1       2.349   8.720  17.948  0.00  0.00    +0.000 A 
ATOM     15  C   UNL     1       2.162   7.920  19.083  0.00  0.00    +0.000 A 
ATOM     16  C   UNL     1       1.368   8.418  20.139  0.00  0.00    +0.000 A 
ATOM     17  C   UNL     1       1.058   7.677  21.418  0.00  0.00    +0.000 C 
ATOM     18  C   UNL     1       0.787   9.697  20.016  0.00  0.00    +0.000 A 
ENDBRANCH   7  15
ENDBRANCH   1   8
BRANCH   5  19
ATOM     19  C   UNL     1       6.401   4.194  16.929  0.00  0.00    +0.000 C 
BRANCH  19  20
ATOM     20  C   UNL     1       6.314   5.322  15.893  0.00  0.00    +0.000 C 
BRANCH  20  21
ATOM     21  C   UNL     1       6.506   4.836  14.477  0.00  0.00    +0.000 A 
ATOM     22  C   UNL     1       7.560   5.328  13.692  0.00  0.00    +0.000 A 
ATOM     23  C   UNL     1       7.749   4.863  12.390  0.00  0.00    +0.000 A 
ATOM     24  C   UNL     1       6.886   3.907  11.859  0.00  0.00    +0.000 A 
ATOM     25  C   UNL     1       5.835   3.414  12.630  0.00  0.00    +0.000 A 
ATOM     26  C   UNL     1       5.645   3.877  13.932  0.00  0.00    +0.000 A 
ENDBRANCH  20  21
ENDBRANCH  19  20
ENDBRANCH   5  19
TORSDOF 5
ENDMDL
MODEL 9
REMARK VINA RESULT:      -7.5      4.222      8.682
REMARK  Name = 
REMARK  7 active torsions:
REMARK  status: ('A' for Active; 'I' for Inactive)
REMARK    1  A    between atoms: C_1  and  C_2
REMARK    2  A    between atoms: C_5  and  N_6
REMARK    3  A    between atoms: C_7  and  C_9
REMARK    4  A    between atoms: N_13  and  C_14
REMARK    5  A    between atoms: C_14  and  C_15
REMARK    6  A    between atoms: C_15  and  C_16
REMARK    7  A    between atoms: C_23  and  C_24
REMARK                            x       y       z     vdW  Elec       q    Type
REMARK                         _______ _______ _______ _____ _____    ______ ____
ROOT
ATOM      1  C   UNL     1       3.580   4.427  19.577  0.00  0.00    +0.000 C 
ATOM      2  C   UNL     1       4.898   5.187  19.672  0.00  0.00    +0.000 C 
ATOM      3  C   UNL     1       5.302   5.381  18.234  0.00  0.00    +0.000 C 
ATOM      4  O   UNL     1       6.146   6.175  17.858  0.00  0.00    +0.000 OA
ATOM      5  N   UNL     1       4.555   4.516  17.448  0.00  0.00    +0.000 N 
ATOM      6  C   UNL     1       3.598   3.753  18.218  0.00  0.00    +0.000 C 
ENDROOT
BRANCH   1   8
ATOM      7  N   UNL     1       2.706   6.688  19.877  0.00  0.00    +0.000 N 
ATOM      8  C   UNL     1       2.379   5.350  19.751  0.00  0.00    +0.000 C 
ATOM      9  O   UNL     1       1.251   4.861  19.778  0.00  0.00    +0.000 OA
ATOM     10  H   UNL     1       3.687   6.915  19.805  0.00  0.00    +0.000 HD
BRANCH   7  15
ATOM     11  C   UNL     1      -0.810  11.161  20.677  0.00  0.00    +0.000 C 
ATOM     12  C   UNL     1       0.108   9.994  20.474  0.00  0.00    +0.000 A 
ATOM     13  C   UNL     1       0.323   9.072  21.493  0.00  0.00    +0.000 A 
ATOM     14  C   UNL     1       1.178   7.986  21.296  0.00  0.00    +0.000 A 
ATOM     15  C   UNL     1       1.841   7.789  20.077  0.00  0.00    +0.000 A 
ATOM     16  C   UNL     1       1.630   8.717  19.034  0.00  0.00    +0.000 A 
ATOM     17  C   UNL     1       2.277   8.656  17.671  0.00  0.00    +0.000 C 
ATOM     18  C   UNL     1       0.767   9.812  19.254  0.00  0.00    +0.000 A 
ENDBRANCH   7  15
ENDBRANCH   1   8
BRANCH   5  19
ATOM     19  C   UNL     1       4.665   4.353  15.996  0.00  0.00    +0.000 C 
BRANCH  19  20
ATOM     20  C   UNL     1       5.884   3.543  15.539  0.00  0.00    +0.000 C 
BRANCH  20  21
ATOM     21  C   UNL     1       6.426   3.995  14.206  0.00  0.00    +0.000 A 
ATOM     22  C   UNL     1       7.361   5.039  14.134  0.00  0.00    +0.000 A 
ATOM     23  C   UNL     1       7.876   5.443  12.901  0.00  0.00    +0.000 A 
ATOM     24  C   UNL     1       7.461   4.812  11.731  0.00  0.00    +0.000 A 
ATOM     25  C   UNL     1       6.532   3.775  11.792  0.00  0.00    +0.000 A 
ATOM     26  C   UNL     1       6.015   3.369  13.023  0.00  0.00    +0.000 A 
ENDBRANCH  20  21
ENDBRANCH  19  20
ENDBRANCH   5  19
TORSDOF 5
ENDMDL
