MODEL 1
REMARK VINA RESULT:      -6.3      0.000      0.000
REMARK  Name = 
REMARK  11 active torsions:
REMARK  status: ('A' for Active; 'I' for Inactive)
REMARK    1  A    between atoms: C_1  and  N_2
REMARK    2  A    between atoms: N_2  and  C_14
REMARK    3  A    between atoms: C_3  and  C_5
REMARK    4  A    between atoms: C_8  and  C_9
REMARK    5  A    between atoms: C_9  and  C_10
REMARK    6  A    between atoms: C_9  and  C_11
REMARK    7  A    between atoms: C_9  and  C_12
REMARK    8  A    between atoms: C_14  and  C_15
REMARK    9  A    between atoms: C_14  and  C_18
REMARK   10  A    between atoms: C_15  and  C_16
REMARK   11  A    between atoms: C_16  and  O_17
REMARK                            x       y       z     vdW  Elec       q    Type
REMARK                         _______ _______ _______ _____ _____    ______ ____
ROOT
ATOM      1  C   UNL     1       2.743   2.819  21.740  0.00  0.00    +0.000 C 
ATOM      2  N   UNL     1       3.030   3.212  20.366  0.00  0.00    +0.000 N 
ATOM      3  C   UNL     1       4.282   2.759  19.859  0.00  0.00    +0.000 C 
ATOM      4  O   UNL     1       4.965   1.994  20.548  0.00  0.00    +0.000 OA
ENDROOT
BRANCH   3   5
ATOM      5  C   UNL     1       4.801   3.257  18.593  0.00  0.00    +0.000 A 
ATOM      6  N   UNL     1       4.562   2.786  17.389  0.00  0.00    +0.000 NA
ATOM      7  N   UNL     1       5.096   3.592  16.403  0.00  0.00    +0.000 NA
ATOM      8  C   UNL     1       5.742   4.635  16.889  0.00  0.00    +0.000 A 
ATOM      9  S   UNL     1       5.813   4.645  18.608  0.00  0.00    +0.000 S 
BRANCH   8  10
ATOM     10  C   UNL     1       6.372   5.742  16.061  0.00  0.00    +0.000 C 
ATOM     11  C   UNL     1       7.308   6.583  16.949  0.00  0.00    +0.000 C 
ATOM     12  C   UNL     1       7.213   5.150  14.910  0.00  0.00    +0.000 C 
ATOM     13  C   UNL     1       5.286   6.667  15.481  0.00  0.00    +0.000 C 
ENDBRANCH   8  10
ENDBRANCH   3   5
BRANCH   2  14
ATOM     14  C   UNL     1       1.983   3.925  19.568  0.00  0.00    +0.000 C 
BRANCH  14  15
ATOM     15  C   UNL     1       1.896   5.447  19.718  0.00  0.00    +0.000 A 
ATOM     16  C   UNL     1       1.387   6.102  20.850  0.00  0.00    +0.000 A 
ATOM     17  C   UNL     1       1.387   7.501  20.928  0.00  0.00    +0.000 A 
ATOM     18  C   UNL     1       1.864   8.276  19.868  0.00  0.00    +0.000 A 
ATOM     19  C   UNL     1       2.362   7.651  18.733  0.00  0.00    +0.000 A 
ATOM     20  C   UNL     1       2.394   6.257  18.669  0.00  0.00    +0.000 A 
ENDBRANCH  14  15
BRANCH  14  21
ATOM     21  C   UNL     1       0.558   3.292  19.641  0.00  0.00    +0.000 C 
BRANCH  21  22
ATOM     22  C   UNL     1       0.319   2.053  18.777  0.00  0.00    +0.000 C 
BRANCH  22  23
ATOM     23  O   UNL     1       1.463   1.824  17.960  0.00  0.00    +0.000 OA
ATOM     24  H   UNL     1       1.435   0.894  17.674  0.00  0.00    +0.000 HD
ENDBRANCH  22  23
ENDBRANCH  21  22
ENDBRANCH  14  21
ENDBRANCH   2  14
TORSDOF 7
ENDMDL
MODEL 2
REMARK VINA RESULT:      -6.2      2.639      3.799
REMARK  Name = 
REMARK  11 active torsions:
REMARK  status: ('A' for Active; 'I' for Inactive)
REMARK    1  A    between atoms: C_1  and  N_2
REMARK    2  A    between atoms: N_2  and  C_14
REMARK    3  A    between atoms: C_3  and  C_5
REMARK    4  A    between atoms: C_8  and  C_9
REMARK    5  A    between atoms: C_9  and  C_10
REMARK    6  A    between atoms: C_9  and  C_11
REMARK    7  A    between atoms: C_9  and  C_12
REMARK    8  A    between atoms: C_14  and  C_15
REMARK    9  A    between atoms: C_14  and  C_18
REMARK   10  A    between atoms: C_15  and  C_16
REMARK   11  A    between atoms: C_16  and  O_17
REMARK                            x       y       z     vdW  Elec       q    Type
REMARK                         _______ _______ _______ _____ _____    ______ ____
ROOT
ATOM      1  C   UNL     1       5.950   5.080  19.517  0.00  0.00    +0.000 C 
ATOM      2  N   UNL     1       5.721   5.007  18.079  0.00  0.00    +0.000 N 
ATOM      3  C   UNL     1       6.863   4.660  17.303  0.00  0.00    +0.000 C 
ATOM      4  O   UNL     1       7.906   4.341  17.884  0.00  0.00    +0.000 OA
ENDROOT
BRANCH   3   5
ATOM      5  C   UNL     1       6.843   4.768  15.851  0.00  0.00    +0.000 A 
ATOM      6  N   UNL     1       7.489   5.636  15.104  0.00  0.00    +0.000 NA
ATOM      7  N   UNL     1       7.362   5.356  13.758  0.00  0.00    +0.000 NA
ATOM      8  C   UNL     1       6.606   4.300  13.525  0.00  0.00    +0.000 A 
ATOM      9  S   UNL     1       5.922   3.628  14.954  0.00  0.00    +0.000 S 
BRANCH   8  10
ATOM     10  C   UNL     1       6.338   3.696  12.157  0.00  0.00    +0.000 C 
ATOM     11  C   UNL     1       6.980   4.576  11.067  0.00  0.00    +0.000 C 
ATOM     12  C   UNL     1       6.956   2.285  12.053  0.00  0.00    +0.000 C 
ATOM     13  C   UNL     1       4.824   3.615  11.889  0.00  0.00    +0.000 C 
ENDBRANCH   8  10
ENDBRANCH   3   5
BRANCH   2  14
ATOM     14  C   UNL     1       4.331   5.170  17.545  0.00  0.00    +0.000 C 
BRANCH  14  15
ATOM     15  C   UNL     1       3.513   6.359  18.058  0.00  0.00    +0.000 A 
ATOM     16  C   UNL     1       3.339   7.561  17.355  0.00  0.00    +0.000 A 
ATOM     17  C   UNL     1       2.535   8.584  17.874  0.00  0.00    +0.000 A 
ATOM     18  C   UNL     1       1.914   8.445  19.117  0.00  0.00    +0.000 A 
ATOM     19  C   UNL     1       2.080   7.269  19.837  0.00  0.00    +0.000 A 
ATOM     20  C   UNL     1       2.853   6.236  19.305  0.00  0.00    +0.000 A 
ENDBRANCH  14  15
BRANCH  14  21
ATOM     21  C   UNL     1       3.466   3.872  17.559  0.00  0.00    +0.000 C 
BRANCH  21  22
ATOM     22  C   UNL     1       3.890   2.781  18.544  0.00  0.00    +0.000 C 
BRANCH  22  23
ATOM     23  O   UNL     1       4.044   1.551  17.844  0.00  0.00    +0.000 OA
ATOM     24  H   UNL     1       4.556   0.952  18.416  0.00  0.00    +0.000 HD
ENDBRANCH  22  23
ENDBRANCH  21  22
ENDBRANCH  14  21
ENDBRANCH   2  14
TORSDOF 7
ENDMDL
MODEL 3
REMARK VINA RESULT:      -6.2      0.092      1.007
REMARK  Name = 
REMARK  11 active torsions:
REMARK  status: ('A' for Active; 'I' for Inactive)
REMARK    1  A    between atoms: C_1  and  N_2
REMARK    2  A    between atoms: N_2  and  C_14
REMARK    3  A    between atoms: C_3  and  C_5
REMARK    4  A    between atoms: C_8  and  C_9
REMARK    5  A    between atoms: C_9  and  C_10
REMARK    6  A    between atoms: C_9  and  C_11
REMARK    7  A    between atoms: C_9  and  C_12
REMARK    8  A    between atoms: C_14  and  C_15
REMARK    9  A    between atoms: C_14  and  C_18
REMARK   10  A    between atoms: C_15  and  C_16
REMARK   11  A    between atoms: C_16  and  O_17
REMARK                            x       y       z     vdW  Elec       q    Type
REMARK                         _______ _______ _______ _____ _____    ______ ____
ROOT
ATOM      1  C   UNL     1       2.708   2.905  21.732  0.00  0.00    +0.000 C 
ATOM      2  N   UNL     1       3.014   3.279  20.357  0.00  0.00    +0.000 N 
ATOM      3  C   UNL     1       4.260   2.794  19.864  0.00  0.00    +0.000 C 
ATOM      4  O   UNL     1       4.921   2.021  20.566  0.00  0.00    +0.000 OA
ENDROOT
BRANCH   3   5
ATOM      5  C   UNL     1       4.800   3.269  18.599  0.00  0.00    +0.000 A 
ATOM      6  N   UNL     1       4.595   2.766  17.401  0.00  0.00    +0.000 NA
ATOM      7  N   UNL     1       5.138   3.556  16.408  0.00  0.00    +0.000 NA
ATOM      8  C   UNL     1       5.757   4.621  16.882  0.00  0.00    +0.000 A 
ATOM      9  S   UNL     1       5.789   4.674  18.602  0.00  0.00    +0.000 S 
BRANCH   8  10
ATOM     10  C   UNL     1       6.388   5.717  16.041  0.00  0.00    +0.000 C 
ATOM     11  C   UNL     1       7.344   6.553  16.914  0.00  0.00    +0.000 C 
ATOM     12  C   UNL     1       7.210   5.111  14.883  0.00  0.00    +0.000 C 
ATOM     13  C   UNL     1       5.305   6.651  15.470  0.00  0.00    +0.000 C 
ENDBRANCH   8  10
ENDBRANCH   3   5
BRANCH   2  14
ATOM     14  C   UNL     1       1.989   4.007  19.545  0.00  0.00    +0.000 C 
BRANCH  14  15
ATOM     15  C   UNL     1       1.955   5.535  19.658  0.00  0.00    +0.000 A 
ATOM     16  C   UNL     1       2.402   6.411  18.658  0.00  0.00    +0.000 A 
ATOM     17  C   UNL     1       2.293   7.799  18.820  0.00  0.00    +0.000 A 
ATOM     18  C   UNL     1       1.766   8.342  19.994  0.00  0.00    +0.000 A 
ATOM     19  C   UNL     1       1.327   7.495  21.003  0.00  0.00    +0.000 A 
ATOM     20  C   UNL     1       1.404   6.113  20.828  0.00  0.00    +0.000 A 
ENDBRANCH  14  15
BRANCH  14  21
ATOM     21  C   UNL     1       0.544   3.426  19.637  0.00  0.00    +0.000 C 
BRANCH  21  22
ATOM     22  C   UNL     1       0.271   2.152  18.835  0.00  0.00    +0.000 C 
BRANCH  22  23
ATOM     23  O   UNL     1       1.393   1.872  18.005  0.00  0.00    +0.000 OA
ATOM     24  H   UNL     1       2.186   1.897  18.569  0.00  0.00    +0.000 HD
ENDBRANCH  22  23
ENDBRANCH  21  22
ENDBRANCH  14  21
ENDBRANCH   2  14
TORSDOF 7
ENDMDL
MODEL 4
REMARK VINA RESULT:      -6.1      2.645      3.748
REMARK  Name = 
REMARK  11 active torsions:
REMARK  status: ('A' for Active; 'I' for Inactive)
REMARK    1  A    between atoms: C_1  and  N_2
REMARK    2  A    between atoms: N_2  and  C_14
REMARK    3  A    between atoms: C_3  and  C_5
REMARK    4  A    between atoms: C_8  and  C_9
REMARK    5  A    between atoms: C_9  and  C_10
REMARK    6  A    between atoms: C_9  and  C_11
REMARK    7  A    between atoms: C_9  and  C_12
REMARK    8  A    between atoms: C_14  and  C_15
REMARK    9  A    between atoms: C_14  and  C_18
REMARK   10  A    between atoms: C_15  and  C_16
REMARK   11  A    between atoms: C_16  and  O_17
REMARK                            x       y       z     vdW  Elec       q    Type
REMARK                         _______ _______ _______ _____ _____    ______ ____
ROOT
ATOM      1  C   UNL     1       6.040   5.098  19.515  0.00  0.00    +0.000 C 
ATOM      2  N   UNL     1       5.784   5.003  18.082  0.00  0.00    +0.000 N 
ATOM      3  C   UNL     1       6.922   4.685  17.287  0.00  0.00    +0.000 C 
ATOM      4  O   UNL     1       7.986   4.405  17.850  0.00  0.00    +0.000 OA
ENDROOT
BRANCH   3   5
ATOM      5  C   UNL     1       6.870   4.778  15.836  0.00  0.00    +0.000 A 
ATOM      6  N   UNL     1       7.500   5.636  15.065  0.00  0.00    +0.000 NA
ATOM      7  N   UNL     1       7.343   5.342  13.725  0.00  0.00    +0.000 NA
ATOM      8  C   UNL     1       6.581   4.284  13.520  0.00  0.00    +0.000 A 
ATOM      9  S   UNL     1       5.929   3.629  14.971  0.00  0.00    +0.000 S 
BRANCH   8  10
ATOM     10  C   UNL     1       6.283   3.666  12.165  0.00  0.00    +0.000 C 
ATOM     11  C   UNL     1       6.786   2.210  12.138  0.00  0.00    +0.000 C 
ATOM     12  C   UNL     1       4.762   3.648  11.897  0.00  0.00    +0.000 C 
ATOM     13  C   UNL     1       6.993   4.450  11.046  0.00  0.00    +0.000 C 
ENDBRANCH   8  10
ENDBRANCH   3   5
BRANCH   2  14
ATOM     14  C   UNL     1       4.380   5.116  17.575  0.00  0.00    +0.000 C 
BRANCH  14  15
ATOM     15  C   UNL     1       3.495   6.209  18.184  0.00  0.00    +0.000 A 
ATOM     16  C   UNL     1       2.828   6.091  19.413  0.00  0.00    +0.000 A 
ATOM     17  C   UNL     1       2.075   7.157  19.923  0.00  0.00    +0.000 A 
ATOM     18  C   UNL     1       1.945   8.348  19.206  0.00  0.00    +0.000 A 
ATOM     19  C   UNL     1       2.587   8.485  17.983  0.00  0.00    +0.000 A 
ATOM     20  C   UNL     1       3.365   7.436  17.490  0.00  0.00    +0.000 A 
ENDBRANCH  14  15
BRANCH  14  21
ATOM     21  C   UNL     1       3.599   3.768  17.498  0.00  0.00    +0.000 C 
BRANCH  21  22
ATOM     22  C   UNL     1       3.917   2.734  18.580  0.00  0.00    +0.000 C 
BRANCH  22  23
ATOM     23  O   UNL     1       3.926   1.435  17.998  0.00  0.00    +0.000 OA
ATOM     24  H   UNL     1       4.438   0.855  18.588  0.00  0.00    +0.000 HD
ENDBRANCH  22  23
ENDBRANCH  21  22
ENDBRANCH  14  21
ENDBRANCH   2  14
TORSDOF 7
ENDMDL
MODEL 5
REMARK VINA RESULT:      -6.1      2.955      6.264
REMARK  Name = 
REMARK  11 active torsions:
REMARK  status: ('A' for Active; 'I' for Inactive)
REMARK    1  A    between atoms: C_1  and  N_2
REMARK    2  A    between atoms: N_2  and  C_14
REMARK    3  A    between atoms: C_3  and  C_5
REMARK    4  A    between atoms: C_8  and  C_9
REMARK    5  A    between atoms: C_9  and  C_10
REMARK    6  A    between atoms: C_9  and  C_11
REMARK    7  A    between atoms: C_9  and  C_12
REMARK    8  A    between atoms: C_14  and  C_15
REMARK    9  A    between atoms: C_14  and  C_18
REMARK   10  A    between atoms: C_15  and  C_16
REMARK   11  A    between atoms: C_16  and  O_17
REMARK                            x       y       z     vdW  Elec       q    Type
REMARK                         _______ _______ _______ _____ _____    ______ ____
ROOT
ATOM      1  C   UNL     1       3.587   3.316  19.495  0.00  0.00    +0.000 C 
ATOM      2  N   UNL     1       3.607   4.753  19.246  0.00  0.00    +0.000 N 
ATOM      3  C   UNL     1       2.438   5.452  19.663  0.00  0.00    +0.000 C 
ATOM      4  O   UNL     1       1.566   4.840  20.289  0.00  0.00    +0.000 OA
ENDROOT
BRANCH   3   5
ATOM      5  C   UNL     1       2.220   6.839  19.280  0.00  0.00    +0.000 A 
ATOM      6  N   UNL     1       2.394   7.380  18.094  0.00  0.00    +0.000 NA
ATOM      7  N   UNL     1       1.948   8.686  18.050  0.00  0.00    +0.000 NA
ATOM      8  C   UNL     1       1.471   9.102  19.207  0.00  0.00    +0.000 A 
ATOM      9  S   UNL     1       1.623   7.934  20.462  0.00  0.00    +0.000 S 
BRANCH   8  10
ATOM     10  C   UNL     1       0.838  10.461  19.459  0.00  0.00    +0.000 C 
ATOM     11  C   UNL     1      -0.622  10.450  18.967  0.00  0.00    +0.000 C 
ATOM     12  C   UNL     1       0.828  10.786  20.968  0.00  0.00    +0.000 C 
ATOM     13  C   UNL     1       1.601  11.561  18.700  0.00  0.00    +0.000 C 
ENDBRANCH   8  10
ENDBRANCH   3   5
BRANCH   2  14
ATOM     14  C   UNL     1       4.851   5.391  18.710  0.00  0.00    +0.000 C 
BRANCH  14  15
ATOM     15  C   UNL     1       5.151   5.207  17.219  0.00  0.00    +0.000 A 
ATOM     16  C   UNL     1       5.064   6.230  16.263  0.00  0.00    +0.000 A 
ATOM     17  C   UNL     1       5.403   5.990  14.924  0.00  0.00    +0.000 A 
ATOM     18  C   UNL     1       5.803   4.720  14.505  0.00  0.00    +0.000 A 
ATOM     19  C   UNL     1       5.886   3.688  15.430  0.00  0.00    +0.000 A 
ATOM     20  C   UNL     1       5.582   3.935  16.769  0.00  0.00    +0.000 A 
ENDBRANCH  14  15
BRANCH  14  21
ATOM     21  C   UNL     1       6.137   5.138  19.556  0.00  0.00    +0.000 C 
BRANCH  21  22
ATOM     22  C   UNL     1       7.403   5.868  19.105  0.00  0.00    +0.000 C 
BRANCH  22  23
ATOM     23  O   UNL     1       8.482   5.507  19.961  0.00  0.00    +0.000 OA
ATOM     24  H   UNL     1       9.269   5.992  19.657  0.00  0.00    +0.000 HD
ENDBRANCH  22  23
ENDBRANCH  21  22
ENDBRANCH  14  21
ENDBRANCH   2  14
TORSDOF 7
ENDMDL
MODEL 6
REMARK VINA RESULT:      -5.9      2.418      6.352
REMARK  Name = 
REMARK  11 active torsions:
REMARK  status: ('A' for Active; 'I' for Inactive)
REMARK    1  A    between atoms: C_1  and  N_2
REMARK    2  A    between atoms: N_2  and  C_14
REMARK    3  A    between atoms: C_3  and  C_5
REMARK    4  A    between atoms: C_8  and  C_9
REMARK    5  A    between atoms: C_9  and  C_10
REMARK    6  A    between atoms: C_9  and  C_11
REMARK    7  A    between atoms: C_9  and  C_12
REMARK    8  A    between atoms: C_14  and  C_15
REMARK    9  A    between atoms: C_14  and  C_18
REMARK   10  A    between atoms: C_15  and  C_16
REMARK   11  A    between atoms: C_16  and  O_17
REMARK                            x       y       z     vdW  Elec       q    Type
REMARK                         _______ _______ _______ _____ _____    ______ ____
ROOT
ATOM      1  C   UNL     1       7.655   6.457  17.650  0.00  0.00    +0.000 C 
ATOM      2  N   UNL     1       6.404   5.729  17.827  0.00  0.00    +0.000 N 
ATOM      3  C   UNL     1       6.202   5.186  19.127  0.00  0.00    +0.000 C 
ATOM      4  O   UNL     1       7.013   5.454  20.021  0.00  0.00    +0.000 OA
ENDROOT
BRANCH   3   5
ATOM      5  C   UNL     1       5.117   4.251  19.387  0.00  0.00    +0.000 A 
ATOM      6  N   UNL     1       5.208   2.958  19.605  0.00  0.00    +0.000 NA
ATOM      7  N   UNL     1       3.995   2.407  19.967  0.00  0.00    +0.000 NA
ATOM      8  C   UNL     1       3.018   3.293  19.990  0.00  0.00    +0.000 A 
ATOM      9  S   UNL     1       3.512   4.859  19.478  0.00  0.00    +0.000 S 
BRANCH   8  10
ATOM     10  C   UNL     1       1.588   3.012  20.421  0.00  0.00    +0.000 C 
ATOM     11  C   UNL     1       0.937   2.018  19.440  0.00  0.00    +0.000 C 
ATOM     12  C   UNL     1       1.557   2.380  21.829  0.00  0.00    +0.000 C 
ATOM     13  C   UNL     1       0.760   4.310  20.422  0.00  0.00    +0.000 C 
ENDBRANCH   8  10
ENDBRANCH   3   5
BRANCH   2  14
ATOM     14  C   UNL     1       5.400   5.710  16.716  0.00  0.00    +0.000 C 
BRANCH  14  15
ATOM     15  C   UNL     1       5.837   5.103  15.379  0.00  0.00    +0.000 A 
ATOM     16  C   UNL     1       5.054   4.222  14.618  0.00  0.00    +0.000 A 
ATOM     17  C   UNL     1       5.509   3.748  13.380  0.00  0.00    +0.000 A 
ATOM     18  C   UNL     1       6.765   4.116  12.891  0.00  0.00    +0.000 A 
ATOM     19  C   UNL     1       7.563   4.977  13.632  0.00  0.00    +0.000 A 
ATOM     20  C   UNL     1       7.096   5.477  14.848  0.00  0.00    +0.000 A 
ENDBRANCH  14  15
BRANCH  14  21
ATOM     21  C   UNL     1       4.656   7.061  16.480  0.00  0.00    +0.000 C 
BRANCH  21  22
ATOM     22  C   UNL     1       3.578   7.433  17.500  0.00  0.00    +0.000 C 
BRANCH  22  23
ATOM     23  O   UNL     1       2.972   8.662  17.114  0.00  0.00    +0.000 OA
ATOM     24  H   UNL     1       2.456   8.983  17.874  0.00  0.00    +0.000 HD
ENDBRANCH  22  23
ENDBRANCH  21  22
ENDBRANCH  14  21
ENDBRANCH   2  14
TORSDOF 7
ENDMDL
MODEL 7
REMARK VINA RESULT:      -5.9      2.423      6.335
REMARK  Name = 
REMARK  11 active torsions:
REMARK  status: ('A' for Active; 'I' for Inactive)
REMARK    1  A    between atoms: C_1  and  N_2
REMARK    2  A    between atoms: N_2  and  C_14
REMARK    3  A    between atoms: C_3  and  C_5
REMARK    4  A    between atoms: C_8  and  C_9
REMARK    5  A    between atoms: C_9  and  C_10
REMARK    6  A    between atoms: C_9  and  C_11
REMARK    7  A    between atoms: C_9  and  C_12
REMARK    8  A    between atoms: C_14  and  C_15
REMARK    9  A    between atoms: C_14  and  C_18
REMARK   10  A    between atoms: C_15  and  C_16
REMARK   11  A    between atoms: C_16  and  O_17
REMARK                            x       y       z     vdW  Elec       q    Type
REMARK                         _______ _______ _______ _____ _____    ______ ____
ROOT
ATOM      1  C   UNL     1       7.728   6.500  17.752  0.00  0.00    +0.000 C 
ATOM      2  N   UNL     1       6.460   5.793  17.888  0.00  0.00    +0.000 N 
ATOM      3  C   UNL     1       6.224   5.220  19.170  0.00  0.00    +0.000 C 
ATOM      4  O   UNL     1       7.024   5.450  20.084  0.00  0.00    +0.000 OA
ENDROOT
BRANCH   3   5
ATOM      5  C   UNL     1       5.117   4.301  19.387  0.00  0.00    +0.000 A 
ATOM      6  N   UNL     1       5.175   2.995  19.527  0.00  0.00    +0.000 NA
ATOM      7  N   UNL     1       3.951   2.456  19.870  0.00  0.00    +0.000 NA
ATOM      8  C   UNL     1       2.998   3.364  19.957  0.00  0.00    +0.000 A 
ATOM      9  S   UNL     1       3.530   4.945  19.532  0.00  0.00    +0.000 S 
BRANCH   8  10
ATOM     10  C   UNL     1       1.566   3.097  20.387  0.00  0.00    +0.000 C 
ATOM     11  C   UNL     1       0.790   4.426  20.456  0.00  0.00    +0.000 C 
ATOM     12  C   UNL     1       0.853   2.182  19.368  0.00  0.00    +0.000 C 
ATOM     13  C   UNL     1       1.534   2.440  21.779  0.00  0.00    +0.000 C 
ENDBRANCH   8  10
ENDBRANCH   3   5
BRANCH   2  14
ATOM     14  C   UNL     1       5.475   5.822  16.761  0.00  0.00    +0.000 C 
BRANCH  14  15
ATOM     15  C   UNL     1       5.924   5.242  15.416  0.00  0.00    +0.000 A 
ATOM     16  C   UNL     1       7.156   5.524  14.805  0.00  0.00    +0.000 A 
ATOM     17  C   UNL     1       7.511   4.914  13.595  0.00  0.00    +0.000 A 
ATOM     18  C   UNL     1       6.635   4.036  12.953  0.00  0.00    +0.000 A 
ATOM     19  C   UNL     1       5.406   3.750  13.531  0.00  0.00    +0.000 A 
ATOM     20  C   UNL     1       5.066   4.330  14.754  0.00  0.00    +0.000 A 
ENDBRANCH  14  15
BRANCH  14  21
ATOM     21  C   UNL     1       4.761   7.193  16.547  0.00  0.00    +0.000 C 
BRANCH  21  22
ATOM     22  C   UNL     1       3.331   7.305  17.078  0.00  0.00    +0.000 C 
BRANCH  22  23
ATOM     23  O   UNL     1       3.214   8.489  17.861  0.00  0.00    +0.000 OA
ATOM     24  H   UNL     1       4.007   9.029  17.692  0.00  0.00    +0.000 HD
ENDBRANCH  22  23
ENDBRANCH  21  22
ENDBRANCH  14  21
ENDBRANCH   2  14
TORSDOF 7
ENDMDL
MODEL 8
REMARK VINA RESULT:      -5.8      2.074      5.538
REMARK  Name = 
REMARK  11 active torsions:
REMARK  status: ('A' for Active; 'I' for Inactive)
REMARK    1  A    between atoms: C_1  and  N_2
REMARK    2  A    between atoms: N_2  and  C_14
REMARK    3  A    between atoms: C_3  and  C_5
REMARK    4  A    between atoms: C_8  and  C_9
REMARK    5  A    between atoms: C_9  and  C_10
REMARK    6  A    between atoms: C_9  and  C_11
REMARK    7  A    between atoms: C_9  and  C_12
REMARK    8  A    between atoms: C_14  and  C_15
REMARK    9  A    between atoms: C_14  and  C_18
REMARK   10  A    between atoms: C_15  and  C_16
REMARK   11  A    between atoms: C_16  and  O_17
REMARK                            x       y       z     vdW  Elec       q    Type
REMARK                         _______ _______ _______ _____ _____    ______ ____
ROOT
ATOM      1  C   UNL     1       6.174   5.576  15.123  0.00  0.00    +0.000 C 
ATOM      2  N   UNL     1       5.655   5.245  16.445  0.00  0.00    +0.000 N 
ATOM      3  C   UNL     1       5.256   3.888  16.612  0.00  0.00    +0.000 C 
ATOM      4  O   UNL     1       5.476   3.083  15.701  0.00  0.00    +0.000 OA
ENDROOT
BRANCH   3   5
ATOM      5  C   UNL     1       4.517   3.466  17.793  0.00  0.00    +0.000 A 
ATOM      6  N   UNL     1       5.001   3.184  18.983  0.00  0.00    +0.000 NA
ATOM      7  N   UNL     1       4.002   2.964  19.910  0.00  0.00    +0.000 NA
ATOM      8  C   UNL     1       2.793   3.064  19.391  0.00  0.00    +0.000 A 
ATOM      9  S   UNL     1       2.806   3.348  17.694  0.00  0.00    +0.000 S 
BRANCH   8  10
ATOM     10  C   UNL     1       1.492   2.952  20.167  0.00  0.00    +0.000 C 
ATOM     11  C   UNL     1       1.767   2.329  21.550  0.00  0.00    +0.000 C 
ATOM     12  C   UNL     1       0.868   4.346  20.389  0.00  0.00    +0.000 C 
ATOM     13  C   UNL     1       0.491   2.053  19.418  0.00  0.00    +0.000 C 
ENDBRANCH   8  10
ENDBRANCH   3   5
BRANCH   2  14
ATOM     14  C   UNL     1       5.693   6.275  17.530  0.00  0.00    +0.000 C 
BRANCH  14  15
ATOM     15  C   UNL     1       4.368   6.939  17.920  0.00  0.00    +0.000 A 
ATOM     16  C   UNL     1       3.692   7.879  17.127  0.00  0.00    +0.000 A 
ATOM     17  C   UNL     1       2.459   8.404  17.534  0.00  0.00    +0.000 A 
ATOM     18  C   UNL     1       1.889   8.029  18.753  0.00  0.00    +0.000 A 
ATOM     19  C   UNL     1       2.545   7.109  19.560  0.00  0.00    +0.000 A 
ATOM     20  C   UNL     1       3.756   6.559  19.139  0.00  0.00    +0.000 A 
ENDBRANCH  14  15
BRANCH  14  21
ATOM     21  C   UNL     1       6.813   7.351  17.377  0.00  0.00    +0.000 C 
BRANCH  21  22
ATOM     22  C   UNL     1       8.007   7.229  18.325  0.00  0.00    +0.000 C 
BRANCH  22  23
ATOM     23  O   UNL     1       7.951   5.970  18.989  0.00  0.00    +0.000 OA
ATOM     24  H   UNL     1       8.862   5.732  19.237  0.00  0.00    +0.000 HD
ENDBRANCH  22  23
ENDBRANCH  21  22
ENDBRANCH  14  21
ENDBRANCH   2  14
TORSDOF 7
ENDMDL
MODEL 9
REMARK VINA RESULT:      -5.8      3.078      6.241
REMARK  Name = 
REMARK  11 active torsions:
REMARK  status: ('A' for Active; 'I' for Inactive)
REMARK    1  A    between atoms: C_1  and  N_2
REMARK    2  A    between atoms: N_2  and  C_14
REMARK    3  A    between atoms: C_3  and  C_5
REMARK    4  A    between atoms: C_8  and  C_9
REMARK    5  A    between atoms: C_9  and  C_10
REMARK    6  A    between atoms: C_9  and  C_11
REMARK    7  A    between atoms: C_9  and  C_12
REMARK    8  A    between atoms: C_14  and  C_15
REMARK    9  A    between atoms: C_14  and  C_18
REMARK   10  A    between atoms: C_15  and  C_16
REMARK   11  A    between atoms: C_16  and  O_17
REMARK                            x       y       z     vdW  Elec       q    Type
REMARK                         _______ _______ _______ _____ _____    ______ ____
ROOT
ATOM      1  C   UNL     1       3.897   3.450  19.590  0.00  0.00    +0.000 C 
ATOM      2  N   UNL     1       3.857   4.872  19.271  0.00  0.00    +0.000 N 
ATOM      3  C   UNL     1       2.697   5.559  19.729  0.00  0.00    +0.000 C 
ATOM      4  O   UNL     1       1.886   4.956  20.441  0.00  0.00    +0.000 OA
ENDROOT
BRANCH   3   5
ATOM      5  C   UNL     1       2.412   6.920  19.296  0.00  0.00    +0.000 A 
ATOM      6  N   UNL     1       2.621   7.442  18.107  0.00  0.00    +0.000 NA
ATOM      7  N   UNL     1       2.095   8.713  18.000  0.00  0.00    +0.000 NA
ATOM      8  C   UNL     1       1.523   9.125  19.115  0.00  0.00    +0.000 A 
ATOM      9  S   UNL     1       1.676   8.001  20.409  0.00  0.00    +0.000 S 
BRANCH   8  10
ATOM     10  C   UNL     1       0.790  10.444  19.292  0.00  0.00    +0.000 C 
ATOM     11  C   UNL     1       0.637  10.755  20.793  0.00  0.00    +0.000 C 
ATOM     12  C   UNL     1       1.584  11.600  18.645  0.00  0.00    +0.000 C 
ATOM     13  C   UNL     1      -0.614  10.370  18.663  0.00  0.00    +0.000 C 
ENDBRANCH   8  10
ENDBRANCH   3   5
BRANCH   2  14
ATOM     14  C   UNL     1       5.043   5.517  18.624  0.00  0.00    +0.000 C 
BRANCH  14  15
ATOM     15  C   UNL     1       5.321   5.172  17.157  0.00  0.00    +0.000 A 
ATOM     16  C   UNL     1       5.732   3.909  16.706  0.00  0.00    +0.000 A 
ATOM     17  C   UNL     1       5.919   3.663  15.340  0.00  0.00    +0.000 A 
ATOM     18  C   UNL     1       5.732   4.677  14.398  0.00  0.00    +0.000 A 
ATOM     19  C   UNL     1       5.336   5.939  14.821  0.00  0.00    +0.000 A 
ATOM     20  C   UNL     1       5.117   6.176  16.179  0.00  0.00    +0.000 A 
ENDBRANCH  14  15
BRANCH  14  21
ATOM     21  C   UNL     1       6.362   5.448  19.455  0.00  0.00    +0.000 C 
BRANCH  21  22
ATOM     22  C   UNL     1       7.668   5.602  18.673  0.00  0.00    +0.000 C 
BRANCH  22  23
ATOM     23  O   UNL     1       8.015   6.982  18.609  0.00  0.00    +0.000 OA
ATOM     24  H   UNL     1       8.687   7.145  19.295  0.00  0.00    +0.000 HD
ENDBRANCH  22  23
ENDBRANCH  21  22
ENDBRANCH  14  21
ENDBRANCH   2  14
TORSDOF 7
ENDMDL
