MODEL 1
REMARK VINA RESULT:      -8.2      0.000      0.000
REMARK  Name = 
REMARK  7 active torsions:
REMARK  status: ('A' for Active; 'I' for Inactive)
REMARK    1  A    between atoms: C_1  and  O_2
REMARK    2  A    between atoms: O_2  and  C_3
REMARK    3  A    between atoms: C_5  and  C_6
REMARK    4  A    between atoms: C_14  and  C_15
REMARK    5  A    between atoms: C_21  and  C_22
REMARK    6  A    between atoms: C_28  and  C_29
REMARK    7  A    between atoms: C_32  and  C_33
REMARK                            x       y       z     vdW  Elec       q    Type
REMARK                         _______ _______ _______ _____ _____    ______ ____
ROOT
ATOM      1  C   UNL     1       0.619   9.821  20.612  0.00  0.00    +0.000 A 
ATOM      2  N   UNL     1       0.800  10.269  21.846  0.00  0.00    +0.000 NA
ATOM      3  N   UNL     1       0.031  11.387  22.044  0.00  0.00    +0.000 NA
ATOM      4  C   UNL     1      -0.642  11.602  20.939  0.00  0.00    +0.000 A 
ATOM      5  N   UNL     1      -0.384  10.578  20.051  0.00  0.00    +0.000 N 
ATOM      6  C   UNL     1      -1.167  10.345  18.857  0.00  0.00    +0.000 C 
ATOM      7  C   UNL     1      -2.104  11.500  18.486  0.00  0.00    +0.000 C 
ATOM      8  C   UNL     1      -2.658  12.222  19.713  0.00  0.00    +0.000 C 
ATOM      9  C   UNL     1      -1.520  12.781  20.595  0.00  0.00    +0.000 C 
ENDROOT
BRANCH   9  10
ATOM     10  C   UNL     1      -0.741  13.973  19.980  0.00  0.00    +0.000 A 
ATOM     11  C   UNL     1       0.457  13.725  19.260  0.00  0.00    +0.000 A 
ATOM     12  C   UNL     1       1.256  14.750  18.745  0.00  0.00    +0.000 A 
ATOM     13  C   UNL     1       0.883  16.066  18.932  0.00  0.00    +0.000 A 
ATOM     14 CL   UNL     1       1.880  17.337  18.345  0.00  0.00    +0.000 Cl
ATOM     15  C   UNL     1      -0.291  16.357  19.614  0.00  0.00    +0.000 A 
ATOM     16  C   UNL     1      -1.117  15.334  20.153  0.00  0.00    +0.000 A 
BRANCH  16  17
ATOM     17  C   UNL     1      -2.342  15.849  20.886  0.00  0.00    +0.000 C 
ATOM     18  F   UNL     1      -3.530  15.339  20.481  0.00  0.00    +0.000 F 
ATOM     19  F   UNL     1      -2.280  15.600  22.225  0.00  0.00    +0.000 F 
ATOM     20  F   UNL     1      -2.456  17.204  20.771  0.00  0.00    +0.000 F 
ENDBRANCH  16  17
ENDBRANCH   9  10
BRANCH   1  23
ATOM     21  C   UNL     1       2.263   6.435  19.978  0.00  0.00    +0.000 A 
ATOM     22  C   UNL     1       1.657   7.521  20.650  0.00  0.00    +0.000 A 
ATOM     23  C   UNL     1       1.430   8.748  20.017  0.00  0.00    +0.000 A 
ATOM     24  C   UNL     1       1.854   8.881  18.691  0.00  0.00    +0.000 A 
ATOM     25  C   UNL     1       2.478   7.825  18.023  0.00  0.00    +0.000 A 
ATOM     26  C   UNL     1       2.691   6.580  18.638  0.00  0.00    +0.000 A 
BRANCH  26  27
ATOM     27  C   UNL     1       3.294   5.493  17.856  0.00  0.00    +0.000 A 
ATOM     28  C   UNL     1       2.952   4.224  17.440  0.00  0.00    +0.000 A 
ATOM     29  N   UNL     1       3.960   3.671  16.677  0.00  0.00    +0.000 NA
ATOM     30  C   UNL     1       4.873   4.616  16.650  0.00  0.00    +0.000 A 
ATOM     31  C   UNL     1       6.198   4.624  15.985  0.00  0.00    +0.000 C 
ATOM     32  O   UNL     1       4.546   5.745  17.336  0.00  0.00    +0.000 OA
ENDBRANCH  26  27
BRANCH  21  34
ATOM     33  C   UNL     1       1.298   4.392  20.708  0.00  0.00    +0.000 C 
ATOM     34  O   UNL     1       2.456   5.222  20.590  0.00  0.00    +0.000 OA
ENDBRANCH  21  34
ENDBRANCH   1  23
TORSDOF 5
ENDMDL
MODEL 2
REMARK VINA RESULT:      -7.8      2.306      2.862
REMARK  Name = 
REMARK  7 active torsions:
REMARK  status: ('A' for Active; 'I' for Inactive)
REMARK    1  A    between atoms: C_1  and  O_2
REMARK    2  A    between atoms: O_2  and  C_3
REMARK    3  A    between atoms: C_5  and  C_6
REMARK    4  A    between atoms: C_14  and  C_15
REMARK    5  A    between atoms: C_21  and  C_22
REMARK    6  A    between atoms: C_28  and  C_29
REMARK    7  A    between atoms: C_32  and  C_33
REMARK                            x       y       z     vdW  Elec       q    Type
REMARK                         _______ _______ _______ _____ _____    ______ ____
ROOT
ATOM      1  C   UNL     1       1.721   8.034  19.777  0.00  0.00    +0.000 A 
ATOM      2  N   UNL     1       1.443   7.809  21.053  0.00  0.00    +0.000 NA
ATOM      3  N   UNL     1       0.484   8.694  21.474  0.00  0.00    +0.000 NA
ATOM      4  C   UNL     1       0.157   9.439  20.445  0.00  0.00    +0.000 A 
ATOM      5  N   UNL     1       0.832   8.985  19.331  0.00  0.00    +0.000 N 
ATOM      6  C   UNL     1       0.501   9.385  17.981  0.00  0.00    +0.000 C 
ATOM      7  C   UNL     1      -0.447  10.587  17.899  0.00  0.00    +0.000 C 
ATOM      8  C   UNL     1      -1.457  10.615  19.044  0.00  0.00    +0.000 C 
ATOM      9  C   UNL     1      -0.748  10.646  20.416  0.00  0.00    +0.000 C 
ENDROOT
BRANCH   9  10
ATOM     10  C   UNL     1      -0.017  11.974  20.744  0.00  0.00    +0.000 A 
ATOM     11  C   UNL     1       1.142  12.332  20.006  0.00  0.00    +0.000 A 
ATOM     12  C   UNL     1       1.901  13.471  20.294  0.00  0.00    +0.000 A 
ATOM     13  C   UNL     1       1.526  14.296  21.335  0.00  0.00    +0.000 A 
ATOM     14 CL   UNL     1       2.475  15.674  21.730  0.00  0.00    +0.000 Cl
ATOM     15  C   UNL     1       0.388  13.997  22.073  0.00  0.00    +0.000 A 
ATOM     16  C   UNL     1      -0.397  12.843  21.805  0.00  0.00    +0.000 A 
BRANCH  16  17
ATOM     17  C   UNL     1      -1.584  12.671  22.734  0.00  0.00    +0.000 C 
ATOM     18  F   UNL     1      -2.802  12.663  22.141  0.00  0.00    +0.000 F 
ATOM     19  F   UNL     1      -1.518  11.508  23.441  0.00  0.00    +0.000 F 
ATOM     20  F   UNL     1      -1.629  13.664  23.670  0.00  0.00    +0.000 F 
ENDBRANCH  16  17
ENDBRANCH   9  10
BRANCH   1  23
ATOM     21  C   UNL     1       4.241   5.425  18.586  0.00  0.00    +0.000 A 
ATOM     22  C   UNL     1       3.315   6.112  19.403  0.00  0.00    +0.000 A 
ATOM     23  C   UNL     1       2.835   7.383  19.069  0.00  0.00    +0.000 A 
ATOM     24  C   UNL     1       3.328   7.975  17.902  0.00  0.00    +0.000 A 
ATOM     25  C   UNL     1       4.263   7.319  17.098  0.00  0.00    +0.000 A 
ATOM     26  C   UNL     1       4.736   6.034  17.410  0.00  0.00    +0.000 A 
BRANCH  26  27
ATOM     27  C   UNL     1       5.670   5.375  16.486  0.00  0.00    +0.000 A 
ATOM     28  C   UNL     1       7.005   5.036  16.455  0.00  0.00    +0.000 A 
ATOM     29  N   UNL     1       7.316   4.381  15.280  0.00  0.00    +0.000 NA
ATOM     30  C   UNL     1       6.167   4.339  14.642  0.00  0.00    +0.000 A 
ATOM     31  C   UNL     1       5.849   3.760  13.316  0.00  0.00    +0.000 C 
ATOM     32  O   UNL     1       5.127   4.916  15.304  0.00  0.00    +0.000 OA
ENDBRANCH  26  27
BRANCH  21  34
ATOM     33  C   UNL     1       3.728   3.298  19.509  0.00  0.00    +0.000 C 
ATOM     34  O   UNL     1       4.687   4.165  18.899  0.00  0.00    +0.000 OA
ENDBRANCH  21  34
ENDBRANCH   1  23
TORSDOF 5
ENDMDL
MODEL 3
REMARK VINA RESULT:      -7.7      1.004      1.147
REMARK  Name = 
REMARK  7 active torsions:
REMARK  status: ('A' for Active; 'I' for Inactive)
REMARK    1  A    between atoms: C_1  and  O_2
REMARK    2  A    between atoms: O_2  and  C_3
REMARK    3  A    between atoms: C_5  and  C_6
REMARK    4  A    between atoms: C_14  and  C_15
REMARK    5  A    between atoms: C_21  and  C_22
REMARK    6  A    between atoms: C_28  and  C_29
REMARK    7  A    between atoms: C_32  and  C_33
REMARK                            x       y       z     vdW  Elec       q    Type
REMARK                         _______ _______ _______ _____ _____    ______ ____
ROOT
ATOM      1  C   UNL     1       0.551   9.516  20.407  0.00  0.00    +0.000 A 
ATOM      2  N   UNL     1       0.484   9.728  21.714  0.00  0.00    +0.000 NA
ATOM      3  N   UNL     1      -0.327  10.806  21.961  0.00  0.00    +0.000 NA
ATOM      4  C   UNL     1      -0.777  11.232  20.805  0.00  0.00    +0.000 A 
ATOM      5  N   UNL     1      -0.337  10.382  19.811  0.00  0.00    +0.000 N 
ATOM      6  C   UNL     1      -0.870  10.386  18.467  0.00  0.00    +0.000 C 
ATOM      7  C   UNL     1      -1.736  11.608  18.140  0.00  0.00    +0.000 C 
ATOM      8  C   UNL     1      -2.528  12.105  19.348  0.00  0.00    +0.000 C 
ATOM      9  C   UNL     1      -1.591  12.471  20.519  0.00  0.00    +0.000 C 
ENDROOT
BRANCH   9  10
ATOM     10  C   UNL     1      -0.727  13.739  20.295  0.00  0.00    +0.000 A 
ATOM     11  C   UNL     1      -0.028  13.898  19.069  0.00  0.00    +0.000 A 
ATOM     12  C   UNL     1       0.832  14.972  18.822  0.00  0.00    +0.000 A 
ATOM     13  C   UNL     1       1.024  15.931  19.797  0.00  0.00    +0.000 A 
ATOM     14 CL   UNL     1       2.113  17.232  19.524  0.00  0.00    +0.000 Cl
ATOM     15  C   UNL     1       0.346  15.829  21.005  0.00  0.00    +0.000 A 
ATOM     16  C   UNL     1      -0.528  14.744  21.283  0.00  0.00    +0.000 A 
BRANCH  16  17
ATOM     17  C   UNL     1      -1.155  14.791  22.664  0.00  0.00    +0.000 C 
ATOM     18  F   UNL     1      -2.508  14.858  22.697  0.00  0.00    +0.000 F 
ATOM     19  F   UNL     1      -0.829  13.700  23.412  0.00  0.00    +0.000 F 
ATOM     20  F   UNL     1      -0.708  15.867  23.375  0.00  0.00    +0.000 F 
ENDBRANCH  16  17
ENDBRANCH   9  10
BRANCH   1  23
ATOM     21  C   UNL     1       2.557   6.345  19.703  0.00  0.00    +0.000 A 
ATOM     22  C   UNL     1       1.831   7.340  20.397  0.00  0.00    +0.000 A 
ATOM     23  C   UNL     1       1.479   8.552  19.794  0.00  0.00    +0.000 A 
ATOM     24  C   UNL     1       1.898   8.767  18.477  0.00  0.00    +0.000 A 
ATOM     25  C   UNL     1       2.638   7.804  17.788  0.00  0.00    +0.000 A 
ATOM     26  C   UNL     1       2.979   6.573  18.373  0.00  0.00    +0.000 A 
BRANCH  26  27
ATOM     27  C   UNL     1       3.703   5.578  17.570  0.00  0.00    +0.000 A 
ATOM     28  C   UNL     1       3.655   4.220  17.343  0.00  0.00    +0.000 A 
ATOM     29  N   UNL     1       4.616   3.843  16.426  0.00  0.00    +0.000 NA
ATOM     30  C   UNL     1       5.208   4.977  16.124  0.00  0.00    +0.000 A 
ATOM     31  C   UNL     1       6.330   5.231  15.189  0.00  0.00    +0.000 C 
ATOM     32  O   UNL     1       4.715   6.068  16.771  0.00  0.00    +0.000 OA
ENDBRANCH  26  27
BRANCH  21  34
ATOM     33  C   UNL     1       1.781   4.418  20.853  0.00  0.00    +0.000 C 
ATOM     34  O   UNL     1       2.874   5.143  20.285  0.00  0.00    +0.000 OA
ENDBRANCH  21  34
ENDBRANCH   1  23
TORSDOF 5
ENDMDL
MODEL 4
REMARK VINA RESULT:      -7.7      2.621      3.812
REMARK  Name = 
REMARK  7 active torsions:
REMARK  status: ('A' for Active; 'I' for Inactive)
REMARK    1  A    between atoms: C_1  and  O_2
REMARK    2  A    between atoms: O_2  and  C_3
REMARK    3  A    between atoms: C_5  and  C_6
REMARK    4  A    between atoms: C_14  and  C_15
REMARK    5  A    between atoms: C_21  and  C_22
REMARK    6  A    between atoms: C_28  and  C_29
REMARK    7  A    between atoms: C_32  and  C_33
REMARK                            x       y       z     vdW  Elec       q    Type
REMARK                         _______ _______ _______ _____ _____    ______ ____
ROOT
ATOM      1  C   UNL     1       1.207  10.174  19.401  0.00  0.00    +0.000 A 
ATOM      2  N   UNL     1       1.445  11.163  18.552  0.00  0.00    +0.000 NA
ATOM      3  N   UNL     1       0.673  12.247  18.885  0.00  0.00    +0.000 NA
ATOM      4  C   UNL     1      -0.013  11.927  19.956  0.00  0.00    +0.000 A 
ATOM      5  N   UNL     1       0.373  10.671  20.377  0.00  0.00    +0.000 N 
ATOM      6  C   UNL     1       0.034  10.128  21.674  0.00  0.00    +0.000 C 
ATOM      7  C   UNL     1      -1.046  10.918  22.422  0.00  0.00    +0.000 C 
ATOM      8  C   UNL     1      -0.971  12.419  22.145  0.00  0.00    +0.000 C 
ATOM      9  C   UNL     1      -1.104  12.717  20.635  0.00  0.00    +0.000 C 
ENDROOT
BRANCH   9  10
ATOM     10  C   UNL     1      -2.514  12.462  20.040  0.00  0.00    +0.000 A 
ATOM     11  C   UNL     1      -2.651  11.604  18.918  0.00  0.00    +0.000 A 
ATOM     12  C   UNL     1      -3.874  11.386  18.276  0.00  0.00    +0.000 A 
ATOM     13  C   UNL     1      -5.009  12.021  18.737  0.00  0.00    +0.000 A 
ATOM     14 CL   UNL     1      -6.510  11.799  17.930  0.00  0.00    +0.000 Cl
ATOM     15  C   UNL     1      -4.928  12.855  19.845  0.00  0.00    +0.000 A 
ATOM     16  C   UNL     1      -3.696  13.098  20.511  0.00  0.00    +0.000 A 
BRANCH  16  17
ATOM     17  C   UNL     1      -3.803  14.058  21.681  0.00  0.00    +0.000 C 
ATOM     18  F   UNL     1      -2.860  15.029  21.737  0.00  0.00    +0.000 F 
ATOM     19  F   UNL     1      -4.998  14.713  21.699  0.00  0.00    +0.000 F 
ATOM     20  F   UNL     1      -3.732  13.397  22.873  0.00  0.00    +0.000 F 
ENDBRANCH  16  17
ENDBRANCH   9  10
BRANCH   1  23
ATOM     21  C   UNL     1       3.136   7.174  18.040  0.00  0.00    +0.000 A 
ATOM     22  C   UNL     1       2.472   8.421  18.098  0.00  0.00    +0.000 A 
ATOM     23  C   UNL     1       1.731   8.811  19.219  0.00  0.00    +0.000 A 
ATOM     24  C   UNL     1       1.640   7.907  20.282  0.00  0.00    +0.000 A 
ATOM     25  C   UNL     1       2.269   6.661  20.228  0.00  0.00    +0.000 A 
ATOM     26  C   UNL     1       3.035   6.266  19.118  0.00  0.00    +0.000 A 
BRANCH  26  27
ATOM     27  C   UNL     1       3.723   4.969  19.154  0.00  0.00    +0.000 A 
ATOM     28  C   UNL     1       4.938   4.470  19.573  0.00  0.00    +0.000 A 
ATOM     29  N   UNL     1       5.006   3.107  19.361  0.00  0.00    +0.000 NA
ATOM     30  C   UNL     1       3.838   2.824  18.830  0.00  0.00    +0.000 A 
ATOM     31  C   UNL     1       3.302   1.517  18.378  0.00  0.00    +0.000 C 
ATOM     32  O   UNL     1       3.008   3.892  18.674  0.00  0.00    +0.000 OA
ENDBRANCH  26  27
BRANCH  21  34
ATOM     33  C   UNL     1       5.271   7.167  17.000  0.00  0.00    +0.000 C 
ATOM     34  O   UNL     1       3.889   6.806  16.953  0.00  0.00    +0.000 OA
ENDBRANCH  21  34
ENDBRANCH   1  23
TORSDOF 5
ENDMDL
MODEL 5
REMARK VINA RESULT:      -7.7      1.798      2.600
REMARK  Name = 
REMARK  7 active torsions:
REMARK  status: ('A' for Active; 'I' for Inactive)
REMARK    1  A    between atoms: C_1  and  O_2
REMARK    2  A    between atoms: O_2  and  C_3
REMARK    3  A    between atoms: C_5  and  C_6
REMARK    4  A    between atoms: C_14  and  C_15
REMARK    5  A    between atoms: C_21  and  C_22
REMARK    6  A    between atoms: C_28  and  C_29
REMARK    7  A    between atoms: C_32  and  C_33
REMARK                            x       y       z     vdW  Elec       q    Type
REMARK                         _______ _______ _______ _____ _____    ______ ____
ROOT
ATOM      1  C   UNL     1       1.008   9.165  20.619  0.00  0.00    +0.000 A 
ATOM      2  N   UNL     1       1.419   9.665  21.775  0.00  0.00    +0.000 NA
ATOM      3  N   UNL     1       1.036  10.979  21.867  0.00  0.00    +0.000 NA
ATOM      4  C   UNL     1       0.364  11.269  20.778  0.00  0.00    +0.000 A 
ATOM      5  N   UNL     1       0.230  10.127  20.016  0.00  0.00    +0.000 N 
ATOM      6  C   UNL     1      -0.687  10.016  18.903  0.00  0.00    +0.000 C 
ATOM      7  C   UNL     1      -1.268  11.355  18.434  0.00  0.00    +0.000 C 
ATOM      8  C   UNL     1      -1.475  12.338  19.584  0.00  0.00    +0.000 C 
ATOM      9  C   UNL     1      -0.152  12.615  20.330  0.00  0.00    +0.000 C 
ENDROOT
BRANCH   9  10
ATOM     10  C   UNL     1       0.890  13.441  19.531  0.00  0.00    +0.000 A 
ATOM     11  C   UNL     1       1.938  12.767  18.849  0.00  0.00    +0.000 A 
ATOM     12  C   UNL     1       2.958  13.443  18.173  0.00  0.00    +0.000 A 
ATOM     13  C   UNL     1       2.966  14.824  18.154  0.00  0.00    +0.000 A 
ATOM     14 CL   UNL     1       4.240  15.668  17.368  0.00  0.00    +0.000 Cl
ATOM     15  C   UNL     1       1.951  15.526  18.791  0.00  0.00    +0.000 A 
ATOM     16  C   UNL     1       0.906  14.863  19.490  0.00  0.00    +0.000 A 
BRANCH  16  17
ATOM     17  C   UNL     1      -0.093  15.799  20.143  0.00  0.00    +0.000 C 
ATOM     18  F   UNL     1      -0.259  15.646  21.479  0.00  0.00    +0.000 F 
ATOM     19  F   UNL     1       0.240  17.109  19.967  0.00  0.00    +0.000 F 
ATOM     20  F   UNL     1      -1.334  15.661  19.593  0.00  0.00    +0.000 F 
ENDBRANCH  16  17
ENDBRANCH   9  10
BRANCH   1  23
ATOM     21  C   UNL     1       2.712   6.392  18.624  0.00  0.00    +0.000 A 
ATOM     22  C   UNL     1       2.165   7.650  18.965  0.00  0.00    +0.000 A 
ATOM     23  C   UNL     1       1.410   7.838  20.127  0.00  0.00    +0.000 A 
ATOM     24  C   UNL     1       1.183   6.722  20.939  0.00  0.00    +0.000 A 
ATOM     25  C   UNL     1       1.694   5.466  20.601  0.00  0.00    +0.000 A 
ATOM     26  C   UNL     1       2.473   5.269  19.449  0.00  0.00    +0.000 A 
BRANCH  26  27
ATOM     27  C   UNL     1       3.034   3.937  19.189  0.00  0.00    +0.000 A 
ATOM     28  C   UNL     1       3.044   3.016  18.164  0.00  0.00    +0.000 A 
ATOM     29  N   UNL     1       3.793   1.909  18.507  0.00  0.00    +0.000 NA
ATOM     30  C   UNL     1       4.216   2.192  19.719  0.00  0.00    +0.000 A 
ATOM     31  C   UNL     1       5.070   1.392  20.628  0.00  0.00    +0.000 C 
ATOM     32  O   UNL     1       3.803   3.397  20.200  0.00  0.00    +0.000 OA
ENDBRANCH  26  27
BRANCH  21  34
ATOM     33  C   UNL     1       4.811   6.732  17.568  0.00  0.00    +0.000 C 
ATOM     34  O   UNL     1       3.480   6.217  17.500  0.00  0.00    +0.000 OA
ENDBRANCH  21  34
ENDBRANCH   1  23
TORSDOF 5
ENDMDL
MODEL 6
REMARK VINA RESULT:      -7.7      1.629      1.720
REMARK  Name = 
REMARK  7 active torsions:
REMARK  status: ('A' for Active; 'I' for Inactive)
REMARK    1  A    between atoms: C_1  and  O_2
REMARK    2  A    between atoms: O_2  and  C_3
REMARK    3  A    between atoms: C_5  and  C_6
REMARK    4  A    between atoms: C_14  and  C_15
REMARK    5  A    between atoms: C_21  and  C_22
REMARK    6  A    between atoms: C_28  and  C_29
REMARK    7  A    between atoms: C_32  and  C_33
REMARK                            x       y       z     vdW  Elec       q    Type
REMARK                         _______ _______ _______ _____ _____    ______ ____
ROOT
ATOM      1  C   UNL     1       0.650   9.159  21.318  0.00  0.00    +0.000 A 
ATOM      2  N   UNL     1       0.610   9.191  22.643  0.00  0.00    +0.000 NA
ATOM      3  N   UNL     1      -0.067  10.311  23.053  0.00  0.00    +0.000 NA
ATOM      4  C   UNL     1      -0.465  10.946  21.976  0.00  0.00    +0.000 A 
ATOM      5  N   UNL     1      -0.129  10.199  20.865  0.00  0.00    +0.000 N 
ATOM      6  C   UNL     1      -0.660  10.455  19.544  0.00  0.00    +0.000 C 
ATOM      7  C   UNL     1      -1.376  11.804  19.407  0.00  0.00    +0.000 C 
ATOM      8  C   UNL     1      -2.102  12.214  20.687  0.00  0.00    +0.000 C 
ATOM      9  C   UNL     1      -1.127  12.299  21.881  0.00  0.00    +0.000 C 
ENDROOT
BRANCH   9  10
ATOM     10  C   UNL     1      -0.119  13.476  21.821  0.00  0.00    +0.000 A 
ATOM     11  C   UNL     1       1.101  13.314  21.113  0.00  0.00    +0.000 A 
ATOM     12  C   UNL     1       2.093  14.298  21.079  0.00  0.00    +0.000 A 
ATOM     13  C   UNL     1       1.900  15.486  21.754  0.00  0.00    +0.000 A 
ATOM     14 CL   UNL     1       3.130  16.686  21.760  0.00  0.00    +0.000 Cl
ATOM     15  C   UNL     1       0.714  15.698  22.446  0.00  0.00    +0.000 A 
ATOM     16  C   UNL     1      -0.307  14.712  22.501  0.00  0.00    +0.000 A 
BRANCH  16  17
ATOM     17  C   UNL     1      -1.515  15.116  23.326  0.00  0.00    +0.000 C 
ATOM     18  F   UNL     1      -2.710  15.064  22.688  0.00  0.00    +0.000 F 
ATOM     19  F   UNL     1      -1.663  14.337  24.434  0.00  0.00    +0.000 F 
ATOM     20  F   UNL     1      -1.393  16.393  23.791  0.00  0.00    +0.000 F 
ENDBRANCH  16  17
ENDBRANCH   9  10
BRANCH   1  23
ATOM     21  C   UNL     1       2.249   5.903  20.129  0.00  0.00    +0.000 A 
ATOM     22  C   UNL     1       1.647   6.866  20.970  0.00  0.00    +0.000 A 
ATOM     23  C   UNL     1       1.457   8.190  20.560  0.00  0.00    +0.000 A 
ATOM     24  C   UNL     1       1.915   8.546  19.287  0.00  0.00    +0.000 A 
ATOM     25  C   UNL     1       2.536   7.612  18.455  0.00  0.00    +0.000 A 
ATOM     26  C   UNL     1       2.712   6.274  18.845  0.00  0.00    +0.000 A 
BRANCH  26  27
ATOM     27  C   UNL     1       3.315   5.329  17.896  0.00  0.00    +0.000 A 
ATOM     28  C   UNL     1       3.092   4.041  17.457  0.00  0.00    +0.000 A 
ATOM     29  N   UNL     1       4.013   3.686  16.493  0.00  0.00    +0.000 NA
ATOM     30  C   UNL     1       4.758   4.763  16.374  0.00  0.00    +0.000 A 
ATOM     31  C   UNL     1       5.923   5.006  15.491  0.00  0.00    +0.000 C 
ATOM     32  O   UNL     1       4.400   5.796  17.184  0.00  0.00    +0.000 OA
ENDBRANCH  26  27
BRANCH  21  34
ATOM     33  C   UNL     1       1.202   3.839  20.657  0.00  0.00    +0.000 C 
ATOM     34  O   UNL     1       2.406   4.597  20.520  0.00  0.00    +0.000 OA
ENDBRANCH  21  34
ENDBRANCH   1  23
TORSDOF 5
ENDMDL
MODEL 7
REMARK VINA RESULT:      -7.7      2.436      3.449
REMARK  Name = 
REMARK  7 active torsions:
REMARK  status: ('A' for Active; 'I' for Inactive)
REMARK    1  A    between atoms: C_1  and  O_2
REMARK    2  A    between atoms: O_2  and  C_3
REMARK    3  A    between atoms: C_5  and  C_6
REMARK    4  A    between atoms: C_14  and  C_15
REMARK    5  A    between atoms: C_21  and  C_22
REMARK    6  A    between atoms: C_28  and  C_29
REMARK    7  A    between atoms: C_32  and  C_33
REMARK                            x       y       z     vdW  Elec       q    Type
REMARK                         _______ _______ _______ _____ _____    ______ ____
ROOT
ATOM      1  C   UNL     1       0.337  10.435  18.772  0.00  0.00    +0.000 A 
ATOM      2  N   UNL     1      -0.791  10.359  18.080  0.00  0.00    +0.000 NA
ATOM      3  N   UNL     1      -1.546  11.479  18.313  0.00  0.00    +0.000 NA
ATOM      4  C   UNL     1      -0.864  12.252  19.124  0.00  0.00    +0.000 A 
ATOM      5  N   UNL     1       0.373  11.683  19.351  0.00  0.00    +0.000 N 
ATOM      6  C   UNL     1       1.475  12.392  19.962  0.00  0.00    +0.000 C 
ATOM      7  C   UNL     1       1.079  13.718  20.622  0.00  0.00    +0.000 C 
ATOM      8  C   UNL     1      -0.054  14.425  19.882  0.00  0.00    +0.000 C 
ATOM      9  C   UNL     1      -1.310  13.530  19.792  0.00  0.00    +0.000 C 
ENDROOT
BRANCH   9  10
ATOM     10  C   UNL     1      -2.046  13.300  21.137  0.00  0.00    +0.000 A 
ATOM     11  C   UNL     1      -1.748  12.144  21.906  0.00  0.00    +0.000 A 
ATOM     12  C   UNL     1      -2.423  11.825  23.088  0.00  0.00    +0.000 A 
ATOM     13  C   UNL     1      -3.427  12.656  23.546  0.00  0.00    +0.000 A 
ATOM     14 CL   UNL     1      -4.297  12.252  24.972  0.00  0.00    +0.000 Cl
ATOM     15  C   UNL     1      -3.741  13.808  22.837  0.00  0.00    +0.000 A 
ATOM     16  C   UNL     1      -3.074  14.151  21.631  0.00  0.00    +0.000 A 
BRANCH  16  17
ATOM     17  C   UNL     1      -3.574  15.431  20.989  0.00  0.00    +0.000 C 
ATOM     18  F   UNL     1      -2.638  16.178  20.352  0.00  0.00    +0.000 F 
ATOM     19  F   UNL     1      -4.541  15.194  20.058  0.00  0.00    +0.000 F 
ATOM     20  F   UNL     1      -4.149  16.257  21.910  0.00  0.00    +0.000 F 
ENDBRANCH  16  17
ENDBRANCH   9  10
BRANCH   1  23
ATOM     21  C   UNL     1       2.052   7.231  19.943  0.00  0.00    +0.000 A 
ATOM     22  C   UNL     1       1.270   8.409  19.954  0.00  0.00    +0.000 A 
ATOM     23  C   UNL     1       1.286   9.317  18.890  0.00  0.00    +0.000 A 
ATOM     24  C   UNL     1       2.134   9.037  17.813  0.00  0.00    +0.000 A 
ATOM     25  C   UNL     1       2.932   7.891  17.800  0.00  0.00    +0.000 A 
ATOM     26  C   UNL     1       2.908   6.959  18.852  0.00  0.00    +0.000 A 
BRANCH  26  27
ATOM     27  C   UNL     1       3.723   5.742  18.743  0.00  0.00    +0.000 A 
ATOM     28  C   UNL     1       4.979   5.319  19.120  0.00  0.00    +0.000 A 
ATOM     29  N   UNL     1       5.186   4.006  18.748  0.00  0.00    +0.000 NA
ATOM     30  C   UNL     1       4.055   3.674  18.165  0.00  0.00    +0.000 A 
ATOM     31  C   UNL     1       3.656   2.386  17.551  0.00  0.00    +0.000 C 
ATOM     32  O   UNL     1       3.122   4.666  18.124  0.00  0.00    +0.000 OA
ENDBRANCH  26  27
BRANCH  21  34
ATOM     33  C   UNL     1       1.236   5.148  20.738  0.00  0.00    +0.000 C 
ATOM     34  O   UNL     1       2.010   6.326  20.974  0.00  0.00    +0.000 OA
ENDBRANCH  21  34
ENDBRANCH   1  23
TORSDOF 5
ENDMDL
MODEL 8
REMARK VINA RESULT:      -7.6      2.648      3.701
REMARK  Name = 
REMARK  7 active torsions:
REMARK  status: ('A' for Active; 'I' for Inactive)
REMARK    1  A    between atoms: C_1  and  O_2
REMARK    2  A    between atoms: O_2  and  C_3
REMARK    3  A    between atoms: C_5  and  C_6
REMARK    4  A    between atoms: C_14  and  C_15
REMARK    5  A    between atoms: C_21  and  C_22
REMARK    6  A    between atoms: C_28  and  C_29
REMARK    7  A    between atoms: C_32  and  C_33
REMARK                            x       y       z     vdW  Elec       q    Type
REMARK                         _______ _______ _______ _____ _____    ______ ____
ROOT
ATOM      1  C   UNL     1       0.240  10.181  18.603  0.00  0.00    +0.000 A 
ATOM      2  N   UNL     1      -0.877  10.014  17.910  0.00  0.00    +0.000 NA
ATOM      3  N   UNL     1      -1.689  11.106  18.082  0.00  0.00    +0.000 NA
ATOM      4  C   UNL     1      -1.052  11.952  18.857  0.00  0.00    +0.000 A 
ATOM      5  N   UNL     1       0.209  11.457  19.119  0.00  0.00    +0.000 N 
ATOM      6  C   UNL     1       1.271  12.250  19.698  0.00  0.00    +0.000 C 
ATOM      7  C   UNL     1       0.804  13.586  20.288  0.00  0.00    +0.000 C 
ATOM      8  C   UNL     1      -0.357  14.198  19.506  0.00  0.00    +0.000 C 
ATOM      9  C   UNL     1      -1.565  13.238  19.456  0.00  0.00    +0.000 C 
ENDROOT
BRANCH   9  10
ATOM     10  C   UNL     1      -2.300  13.040  20.807  0.00  0.00    +0.000 A 
ATOM     11  C   UNL     1      -1.544  12.954  22.006  0.00  0.00    +0.000 A 
ATOM     12  C   UNL     1      -2.125  12.698  23.251  0.00  0.00    +0.000 A 
ATOM     13  C   UNL     1      -3.491  12.517  23.343  0.00  0.00    +0.000 A 
ATOM     14 CL   UNL     1      -4.213  12.155  24.860  0.00  0.00    +0.000 Cl
ATOM     15  C   UNL     1      -4.275  12.612  22.200  0.00  0.00    +0.000 A 
ATOM     16  C   UNL     1      -3.708  12.865  20.922  0.00  0.00    +0.000 A 
BRANCH  16  17
ATOM     17  C   UNL     1      -4.720  12.905  19.793  0.00  0.00    +0.000 C 
ATOM     18  F   UNL     1      -4.330  12.329  18.630  0.00  0.00    +0.000 F 
ATOM     19  F   UNL     1      -5.888  12.288  20.128  0.00  0.00    +0.000 F 
ATOM     20  F   UNL     1      -5.062  14.188  19.479  0.00  0.00    +0.000 F 
ENDBRANCH  16  17
ENDBRANCH   9  10
BRANCH   1  23
ATOM     21  C   UNL     1       2.066   7.089  19.900  0.00  0.00    +0.000 A 
ATOM     22  C   UNL     1       1.221   8.222  19.857  0.00  0.00    +0.000 A 
ATOM     23  C   UNL     1       1.242   9.119  18.784  0.00  0.00    +0.000 A 
ATOM     24  C   UNL     1       2.158   8.877  17.755  0.00  0.00    +0.000 A 
ATOM     25  C   UNL     1       3.018   7.777  17.797  0.00  0.00    +0.000 A 
ATOM     26  C   UNL     1       2.991   6.855  18.857  0.00  0.00    +0.000 A 
BRANCH  26  27
ATOM     27  C   UNL     1       3.877   5.685  18.805  0.00  0.00    +0.000 A 
ATOM     28  C   UNL     1       5.166   5.364  19.174  0.00  0.00    +0.000 A 
ATOM     29  N   UNL     1       5.444   4.043  18.881  0.00  0.00    +0.000 NA
ATOM     30  C   UNL     1       4.322   3.607  18.353  0.00  0.00    +0.000 A 
ATOM     31  C   UNL     1       3.989   2.259  17.834  0.00  0.00    +0.000 C 
ATOM     32  O   UNL     1       3.330   4.536  18.273  0.00  0.00    +0.000 OA
ENDBRANCH  26  27
BRANCH  21  34
ATOM     33  C   UNL     1       1.231   5.022  20.716  0.00  0.00    +0.000 C 
ATOM     34  O   UNL     1       2.021   6.192  20.937  0.00  0.00    +0.000 OA
ENDBRANCH  21  34
ENDBRANCH   1  23
TORSDOF 5
ENDMDL
MODEL 9
REMARK VINA RESULT:      -7.6      2.539      3.448
REMARK  Name = 
REMARK  7 active torsions:
REMARK  status: ('A' for Active; 'I' for Inactive)
REMARK    1  A    between atoms: C_1  and  O_2
REMARK    2  A    between atoms: O_2  and  C_3
REMARK    3  A    between atoms: C_5  and  C_6
REMARK    4  A    between atoms: C_14  and  C_15
REMARK    5  A    between atoms: C_21  and  C_22
REMARK    6  A    between atoms: C_28  and  C_29
REMARK    7  A    between atoms: C_32  and  C_33
REMARK                            x       y       z     vdW  Elec       q    Type
REMARK                         _______ _______ _______ _____ _____    ______ ____
ROOT
ATOM      1  C   UNL     1       1.114  10.560  19.549  0.00  0.00    +0.000 A 
ATOM      2  N   UNL     1       1.266  11.675  18.850  0.00  0.00    +0.000 NA
ATOM      3  N   UNL     1       0.398  12.629  19.316  0.00  0.00    +0.000 NA
ATOM      4  C   UNL     1      -0.261  12.103  20.321  0.00  0.00    +0.000 A 
ATOM      5  N   UNL     1       0.234  10.840  20.570  0.00  0.00    +0.000 N 
ATOM      6  C   UNL     1      -0.062  10.093  21.773  0.00  0.00    +0.000 C 
ATOM      7  C   UNL     1      -1.212  10.672  22.604  0.00  0.00    +0.000 C 
ATOM      8  C   UNL     1      -1.271  12.197  22.540  0.00  0.00    +0.000 C 
ATOM      9  C   UNL     1      -1.423  12.691  21.084  0.00  0.00    +0.000 C 
ENDROOT
BRANCH   9  10
ATOM     10  C   UNL     1      -2.801  12.398  20.435  0.00  0.00    +0.000 A 
ATOM     11  C   UNL     1      -2.852  11.760  19.167  0.00  0.00    +0.000 A 
ATOM     12  C   UNL     1      -4.049  11.533  18.482  0.00  0.00    +0.000 A 
ATOM     13  C   UNL     1      -5.244  11.937  19.042  0.00  0.00    +0.000 A 
ATOM     14 CL   UNL     1      -6.719  11.706  18.190  0.00  0.00    +0.000 Cl
ATOM     15  C   UNL     1      -5.246  12.548  20.290  0.00  0.00    +0.000 A 
ATOM     16  C   UNL     1      -4.043  12.795  21.004  0.00  0.00    +0.000 A 
BRANCH  16  17
ATOM     17  C   UNL     1      -4.245  13.495  22.335  0.00  0.00    +0.000 C 
ATOM     18  F   UNL     1      -3.415  14.536  22.587  0.00  0.00    +0.000 F 
ATOM     19  F   UNL     1      -5.505  13.999  22.463  0.00  0.00    +0.000 F 
ATOM     20  F   UNL     1      -4.090  12.631  23.379  0.00  0.00    +0.000 F 
ENDBRANCH  16  17
ENDBRANCH   9  10
BRANCH   1  23
ATOM     21  C   UNL     1       2.284   6.927  19.630  0.00  0.00    +0.000 A 
ATOM     22  C   UNL     1       1.846   8.199  20.063  0.00  0.00    +0.000 A 
ATOM     23  C   UNL     1       1.759   9.288  19.189  0.00  0.00    +0.000 A 
ATOM     24  C   UNL     1       2.154   9.086  17.862  0.00  0.00    +0.000 A 
ATOM     25  C   UNL     1       2.614   7.842  17.426  0.00  0.00    +0.000 A 
ATOM     26  C   UNL     1       2.684   6.734  18.288  0.00  0.00    +0.000 A 
BRANCH  26  27
ATOM     27  C   UNL     1       3.115   5.438  17.747  0.00  0.00    +0.000 A 
ATOM     28  C   UNL     1       2.616   4.157  17.647  0.00  0.00    +0.000 A 
ATOM     29  N   UNL     1       3.506   3.335  16.985  0.00  0.00    +0.000 NA
ATOM     30  C   UNL     1       4.507   4.138  16.702  0.00  0.00    +0.000 A 
ATOM     31  C   UNL     1       5.776   3.845  15.994  0.00  0.00    +0.000 C 
ATOM     32  O   UNL     1       4.347   5.422  17.127  0.00  0.00    +0.000 OA
ENDBRANCH  26  27
BRANCH  21  34
ATOM     33  C   UNL     1       1.125   5.109  20.626  0.00  0.00    +0.000 C 
ATOM     34  O   UNL     1       2.338   5.852  20.481  0.00  0.00    +0.000 OA
ENDBRANCH  21  34
ENDBRANCH   1  23
TORSDOF 5
ENDMDL
