MODEL 1
REMARK VINA RESULT:      -9.6      0.000      0.000
REMARK  Name = 
REMARK  5 active torsions:
REMARK  status: ('A' for Active; 'I' for Inactive)
REMARK    1  A    between atoms: C_1  and  C_2
REMARK    2  A    between atoms: C_2  and  O_3
REMARK    3  A    between atoms: C_2  and  C_24
REMARK    4  A    between atoms: O_3  and  C_4
REMARK    5  A    between atoms: C_6  and  C_7
REMARK                            x       y       z     vdW  Elec       q    Type
REMARK                         _______ _______ _______ _____ _____    ______ ____
ROOT
ATOM      1  C   UNL     1       3.768   5.585  18.584  0.00  0.00    +0.000 A 
ATOM      2  C   UNL     1       3.093   6.791  18.778  0.00  0.00    +0.000 A 
ATOM      3  C   UNL     1       2.164   6.959  19.813  0.00  0.00    +0.000 A 
ATOM      4  C   UNL     1       1.939   5.853  20.650  0.00  0.00    +0.000 A 
ATOM      5  C   UNL     1       2.607   4.645  20.508  0.00  0.00    +0.000 A 
ATOM      6  N   UNL     1       2.306   3.652  21.362  0.00  0.00    +0.000 NA
ATOM      7  C   UNL     1       2.970   2.483  21.238  0.00  0.00    +0.000 A 
ATOM      8  C   UNL     1       3.953   2.257  20.296  0.00  0.00    +0.000 A 
ATOM      9  C   UNL     1       4.251   3.284  19.407  0.00  0.00    +0.000 A 
ATOM     10  C   UNL     1       3.563   4.512  19.482  0.00  0.00    +0.000 A 
ENDROOT
BRANCH   3  11
ATOM     11  C   UNL     1       1.456   8.242  19.999  0.00  0.00    +0.000 A 
ATOM     12  C   UNL     1       1.412   9.220  19.000  0.00  0.00    +0.000 A 
ATOM     13  N   UNL     1       0.767  10.406  19.085  0.00  0.00    +0.000 NA
ATOM     14  C   UNL     1       0.138  10.673  20.241  0.00  0.00    +0.000 A 
ATOM     15  C   UNL     1       0.138   9.803  21.327  0.00  0.00    +0.000 A 
ATOM     16  C   UNL     1       0.782   8.567  21.183  0.00  0.00    +0.000 A 
ATOM     17  C   UNL     1      -0.546  10.155  22.611  0.00  0.00    +0.000 C 
ATOM     18  C   UNL     1      -0.845  11.645  22.656  0.00  0.00    +0.000 C 
ATOM     19  C   UNL     1      -1.420  12.063  21.315  0.00  0.00    +0.000 C 
ATOM     20  O   UNL     1      -0.468  11.899  20.265  0.00  0.00    +0.000 OA
ENDBRANCH   3  11
BRANCH   1  21
ATOM     21  O   UNL     1       4.639   5.386  17.542  0.00  0.00    +0.000 OA
BRANCH  21  23
ATOM     22  C   UNL     1       4.915   6.974  15.695  0.00  0.00    +0.000 C 
ATOM     23  C   UNL     1       5.407   6.510  17.074  0.00  0.00    +0.000 C 
BRANCH  23  24
ATOM     24  C   UNL     1       6.907   6.122  17.008  0.00  0.00    +0.000 C 
ATOM     25  C   UNL     1       7.819   7.266  17.452  0.00  0.00    +0.000 C 
ATOM     26  N   UNL     1       8.040   7.022  18.844  0.00  0.00    +0.000 N 
ATOM     27  C   UNL     1       7.728   5.731  19.211  0.00  0.00    +0.000 C 
ATOM     28  O   UNL     1       7.833   5.269  20.333  0.00  0.00    +0.000 OA
ATOM     29  C   UNL     1       7.290   4.992  17.974  0.00  0.00    +0.000 C 
ATOM     30  H   UNL     1       8.367   7.695  19.525  0.00  0.00    +0.000 HD
ENDBRANCH  23  24
ENDBRANCH  21  23
ENDBRANCH   1  21
TORSDOF 4
ENDMDL
MODEL 2
REMARK VINA RESULT:      -9.2      0.934      1.010
REMARK  Name = 
REMARK  5 active torsions:
REMARK  status: ('A' for Active; 'I' for Inactive)
REMARK    1  A    between atoms: C_1  and  C_2
REMARK    2  A    between atoms: C_2  and  O_3
REMARK    3  A    between atoms: C_2  and  C_24
REMARK    4  A    between atoms: O_3  and  C_4
REMARK    5  A    between atoms: C_6  and  C_7
REMARK                            x       y       z     vdW  Elec       q    Type
REMARK                         _______ _______ _______ _____ _____    ______ ____
ROOT
ATOM      1  C   UNL     1       4.040   5.075  18.596  0.00  0.00    +0.000 A 
ATOM      2  C   UNL     1       3.494   6.357  18.513  0.00  0.00    +0.000 A 
ATOM      3  C   UNL     1       2.482   6.785  19.381  0.00  0.00    +0.000 A 
ATOM      4  C   UNL     1       2.035   5.861  20.342  0.00  0.00    +0.000 A 
ATOM      5  C   UNL     1       2.568   4.586  20.474  0.00  0.00    +0.000 A 
ATOM      6  N   UNL     1       2.059   3.784  21.424  0.00  0.00    +0.000 NA
ATOM      7  C   UNL     1       2.590   2.552  21.567  0.00  0.00    +0.000 A 
ATOM      8  C   UNL     1       3.639   2.076  20.807  0.00  0.00    +0.000 A 
ATOM      9  C   UNL     1       4.154   2.907  19.818  0.00  0.00    +0.000 A 
ATOM     10  C   UNL     1       3.611   4.191  19.613  0.00  0.00    +0.000 A 
ENDROOT
BRANCH   3  11
ATOM     11  C   UNL     1       1.913   8.145  19.275  0.00  0.00    +0.000 A 
ATOM     12  C   UNL     1       2.002   8.899  18.101  0.00  0.00    +0.000 A 
ATOM     13  N   UNL     1       1.489  10.137  17.918  0.00  0.00    +0.000 NA
ATOM     14  C   UNL     1       0.862  10.695  18.966  0.00  0.00    +0.000 A 
ATOM     15  C   UNL     1       0.739  10.067  20.202  0.00  0.00    +0.000 A 
ATOM     16  C   UNL     1       1.248   8.769  20.337  0.00  0.00    +0.000 A 
ATOM     17  C   UNL     1       0.065  10.740  21.357  0.00  0.00    +0.000 C 
ATOM     18  C   UNL     1      -0.071  12.231  21.091  0.00  0.00    +0.000 C 
ATOM     19  C   UNL     1      -0.561  12.424  19.667  0.00  0.00    +0.000 C 
ATOM     20  O   UNL     1       0.394  11.956  18.718  0.00  0.00    +0.000 OA
ENDBRANCH   3  11
BRANCH   1  21
ATOM     21  O   UNL     1       4.994   4.621  17.718  0.00  0.00    +0.000 OA
BRANCH  21  23
ATOM     22  C   UNL     1       5.096   5.194  15.337  0.00  0.00    +0.000 C 
ATOM     23  C   UNL     1       5.537   5.551  16.764  0.00  0.00    +0.000 C 
BRANCH  23  24
ATOM     24  C   UNL     1       7.085   5.552  16.865  0.00  0.00    +0.000 C 
ATOM     25  C   UNL     1       7.640   6.936  17.202  0.00  0.00    +0.000 C 
ATOM     26  N   UNL     1       7.764   6.931  18.627  0.00  0.00    +0.000 N 
ATOM     27  C   UNL     1       7.735   5.659  19.155  0.00  0.00    +0.000 C 
ATOM     28  O   UNL     1       7.828   5.381  20.338  0.00  0.00    +0.000 OA
ATOM     29  C   UNL     1       7.625   4.685  18.011  0.00  0.00    +0.000 C 
ATOM     30  H   UNL     1       7.842   7.744  19.224  0.00  0.00    +0.000 HD
ENDBRANCH  23  24
ENDBRANCH  21  23
ENDBRANCH   1  21
TORSDOF 4
ENDMDL
MODEL 3
REMARK VINA RESULT:      -9.2      1.966      4.557
REMARK  Name = 
REMARK  5 active torsions:
REMARK  status: ('A' for Active; 'I' for Inactive)
REMARK    1  A    between atoms: C_1  and  C_2
REMARK    2  A    between atoms: C_2  and  O_3
REMARK    3  A    between atoms: C_2  and  C_24
REMARK    4  A    between atoms: O_3  and  C_4
REMARK    5  A    between atoms: C_6  and  C_7
REMARK                            x       y       z     vdW  Elec       q    Type
REMARK                         _______ _______ _______ _____ _____    ______ ____
ROOT
ATOM      1  C   UNL     1       4.140   4.576  18.165  0.00  0.00    +0.000 A 
ATOM      2  C   UNL     1       3.340   5.613  18.647  0.00  0.00    +0.000 A 
ATOM      3  C   UNL     1       3.317   6.873  18.034  0.00  0.00    +0.000 A 
ATOM      4  C   UNL     1       4.142   7.047  16.909  0.00  0.00    +0.000 A 
ATOM      5  C   UNL     1       4.934   6.035  16.385  0.00  0.00    +0.000 A 
ATOM      6  N   UNL     1       5.689   6.317  15.309  0.00  0.00    +0.000 NA
ATOM      7  C   UNL     1       6.443   5.327  14.785  0.00  0.00    +0.000 A 
ATOM      8  C   UNL     1       6.467   4.039  15.279  0.00  0.00    +0.000 A 
ATOM      9  C   UNL     1       5.692   3.756  16.398  0.00  0.00    +0.000 A 
ATOM     10  C   UNL     1       4.912   4.766  16.996  0.00  0.00    +0.000 A 
ENDROOT
BRANCH   3  11
ATOM     11  C   UNL     1       2.467   7.960  18.561  0.00  0.00    +0.000 A 
ATOM     12  C   UNL     1       2.199   9.118  17.824  0.00  0.00    +0.000 A 
ATOM     13  N   UNL     1       1.415  10.145  18.226  0.00  0.00    +0.000 NA
ATOM     14  C   UNL     1       0.871  10.050  19.450  0.00  0.00    +0.000 A 
ATOM     15  C   UNL     1       1.091   8.970  20.299  0.00  0.00    +0.000 A 
ATOM     16  C   UNL     1       1.875   7.908  19.828  0.00  0.00    +0.000 A 
ATOM     17  C   UNL     1       0.495   8.921  21.671  0.00  0.00    +0.000 C 
ATOM     18  C   UNL     1       0.008  10.301  22.084  0.00  0.00    +0.000 C 
ATOM     19  C   UNL     1      -0.743  10.916  20.917  0.00  0.00    +0.000 C 
ATOM     20  O   UNL     1       0.116  11.135  19.800  0.00  0.00    +0.000 OA
ENDBRANCH   3  11
BRANCH   1  21
ATOM     21  O   UNL     1       4.215   3.353  18.787  0.00  0.00    +0.000 OA
BRANCH  21  23
ATOM     22  C   UNL     1       2.290   2.868  17.350  0.00  0.00    +0.000 C 
ATOM     23  C   UNL     1       3.239   2.354  18.442  0.00  0.00    +0.000 C 
BRANCH  23  24
ATOM     24  C   UNL     1       2.438   1.952  19.707  0.00  0.00    +0.000 C 
ATOM     25  C   UNL     1       3.092   2.462  20.991  0.00  0.00    +0.000 C 
ATOM     26  N   UNL     1       2.448   3.713  21.245  0.00  0.00    +0.000 N 
ATOM     27  C   UNL     1       1.267   3.850  20.548  0.00  0.00    +0.000 C 
ATOM     28  O   UNL     1       0.527   4.816  20.593  0.00  0.00    +0.000 OA
ATOM     29  C   UNL     1       1.039   2.580  19.771  0.00  0.00    +0.000 C 
ATOM     30  H   UNL     1       2.792   4.453  21.843  0.00  0.00    +0.000 HD
ENDBRANCH  23  24
ENDBRANCH  21  23
ENDBRANCH   1  21
TORSDOF 4
ENDMDL
MODEL 4
REMARK VINA RESULT:      -9.2      2.021      4.752
REMARK  Name = 
REMARK  5 active torsions:
REMARK  status: ('A' for Active; 'I' for Inactive)
REMARK    1  A    between atoms: C_1  and  C_2
REMARK    2  A    between atoms: C_2  and  O_3
REMARK    3  A    between atoms: C_2  and  C_24
REMARK    4  A    between atoms: O_3  and  C_4
REMARK    5  A    between atoms: C_6  and  C_7
REMARK                            x       y       z     vdW  Elec       q    Type
REMARK                         _______ _______ _______ _____ _____    ______ ____
ROOT
ATOM      1  C   UNL     1       3.622   4.562  18.135  0.00  0.00    +0.000 A 
ATOM      2  C   UNL     1       2.876   5.637  18.622  0.00  0.00    +0.000 A 
ATOM      3  C   UNL     1       3.053   6.938  18.135  0.00  0.00    +0.000 A 
ATOM      4  C   UNL     1       4.022   7.116  17.132  0.00  0.00    +0.000 A 
ATOM      5  C   UNL     1       4.767   6.070  16.603  0.00  0.00    +0.000 A 
ATOM      6  N   UNL     1       5.672   6.357  15.652  0.00  0.00    +0.000 NA
ATOM      7  C   UNL     1       6.383   5.339  15.122  0.00  0.00    +0.000 A 
ATOM      8  C   UNL     1       6.219   4.019  15.489  0.00  0.00    +0.000 A 
ATOM      9  C   UNL     1       5.289   3.730  16.482  0.00  0.00    +0.000 A 
ATOM     10  C   UNL     1       4.546   4.764  17.083  0.00  0.00    +0.000 A 
ENDROOT
BRANCH   3  11
ATOM     11  C   UNL     1       2.258   8.064  18.665  0.00  0.00    +0.000 A 
ATOM     12  C   UNL     1       2.033   9.230  17.926  0.00  0.00    +0.000 A 
ATOM     13  N   UNL     1       1.299  10.292  18.332  0.00  0.00    +0.000 NA
ATOM     14  C   UNL     1       0.764  10.225  19.562  0.00  0.00    +0.000 A 
ATOM     15  C   UNL     1       0.945   9.139  20.413  0.00  0.00    +0.000 A 
ATOM     16  C   UNL     1       1.676   8.043  19.939  0.00  0.00    +0.000 A 
ATOM     17  C   UNL     1       0.361   9.121  21.791  0.00  0.00    +0.000 C 
ATOM     18  C   UNL     1      -0.060  10.523  22.203  0.00  0.00    +0.000 C 
ATOM     19  C   UNL     1      -0.796  11.166  21.042  0.00  0.00    +0.000 C 
ATOM     20  O   UNL     1       0.060  11.343  19.915  0.00  0.00    +0.000 OA
ENDBRANCH   3  11
BRANCH   1  21
ATOM     21  O   UNL     1       3.500   3.291  18.640  0.00  0.00    +0.000 OA
BRANCH  21  23
ATOM     22  C   UNL     1       5.007   2.179  20.221  0.00  0.00    +0.000 C 
ATOM     23  C   UNL     1       3.781   3.084  20.036  0.00  0.00    +0.000 C 
BRANCH  23  24
ATOM     24  C   UNL     1       2.541   2.459  20.727  0.00  0.00    +0.000 C 
ATOM     25  C   UNL     1       1.576   3.522  21.254  0.00  0.00    +0.000 C 
ATOM     26  N   UNL     1       0.629   3.696  20.197  0.00  0.00    +0.000 N 
ATOM     27  C   UNL     1       0.646   2.654  19.295  0.00  0.00    +0.000 C 
ATOM     28  O   UNL     1      -0.066   2.557  18.311  0.00  0.00    +0.000 OA
ATOM     29  C   UNL     1       1.655   1.644  19.774  0.00  0.00    +0.000 C 
ATOM     30  H   UNL     1       0.012   4.487  20.070  0.00  0.00    +0.000 HD
ENDBRANCH  23  24
ENDBRANCH  21  23
ENDBRANCH   1  21
TORSDOF 4
ENDMDL
MODEL 5
REMARK VINA RESULT:      -9.1      1.044      1.203
REMARK  Name = 
REMARK  5 active torsions:
REMARK  status: ('A' for Active; 'I' for Inactive)
REMARK    1  A    between atoms: C_1  and  C_2
REMARK    2  A    between atoms: C_2  and  O_3
REMARK    3  A    between atoms: C_2  and  C_24
REMARK    4  A    between atoms: O_3  and  C_4
REMARK    5  A    between atoms: C_6  and  C_7
REMARK                            x       y       z     vdW  Elec       q    Type
REMARK                         _______ _______ _______ _____ _____    ______ ____
ROOT
ATOM      1  C   UNL     1       3.610   5.622  19.294  0.00  0.00    +0.000 A 
ATOM      2  C   UNL     1       2.969   6.854  19.432  0.00  0.00    +0.000 A 
ATOM      3  C   UNL     1       1.848   7.014  20.257  0.00  0.00    +0.000 A 
ATOM      4  C   UNL     1       1.394   5.873  20.941  0.00  0.00    +0.000 A 
ATOM      5  C   UNL     1       2.018   4.636  20.851  0.00  0.00    +0.000 A 
ATOM      6  N   UNL     1       1.492   3.612  21.544  0.00  0.00    +0.000 NA
ATOM      7  C   UNL     1       2.109   2.413  21.474  0.00  0.00    +0.000 A 
ATOM      8  C   UNL     1       3.260   2.186  20.746  0.00  0.00    +0.000 A 
ATOM      9  C   UNL     1       3.793   3.247  20.023  0.00  0.00    +0.000 A 
ATOM     10  C   UNL     1       3.165   4.508  20.043  0.00  0.00    +0.000 A 
ENDROOT
BRANCH   3  11
ATOM     11  C   UNL     1       1.179   8.325  20.387  0.00  0.00    +0.000 A 
ATOM     12  C   UNL     1       1.206   9.278  19.365  0.00  0.00    +0.000 A 
ATOM     13  N   UNL     1       0.601  10.488  19.398  0.00  0.00    +0.000 NA
ATOM     14  C   UNL     1      -0.060  10.805  20.523  0.00  0.00    +0.000 A 
ATOM     15  C   UNL     1      -0.130   9.962  21.628  0.00  0.00    +0.000 A 
ATOM     16  C   UNL     1       0.475   8.702  21.537  0.00  0.00    +0.000 A 
ATOM     17  C   UNL     1      -0.847  10.370  22.877  0.00  0.00    +0.000 C 
ATOM     18  C   UNL     1      -1.095  11.870  22.877  0.00  0.00    +0.000 C 
ATOM     19  C   UNL     1      -1.605  12.274  21.505  0.00  0.00    +0.000 C 
ATOM     20  O   UNL     1      -0.621  12.052  20.496  0.00  0.00    +0.000 OA
ENDBRANCH   3  11
BRANCH   1  21
ATOM     21  O   UNL     1       4.675   5.436  18.448  0.00  0.00    +0.000 OA
BRANCH  21  23
ATOM     22  C   UNL     1       3.979   4.113  16.505  0.00  0.00    +0.000 C 
ATOM     23  C   UNL     1       4.433   5.482  17.030  0.00  0.00    +0.000 C 
BRANCH  23  24
ATOM     24  C   UNL     1       5.722   5.939  16.298  0.00  0.00    +0.000 C 
ATOM     25  C   UNL     1       6.512   6.968  17.107  0.00  0.00    +0.000 C 
ATOM     26  N   UNL     1       7.462   6.191  17.839  0.00  0.00    +0.000 N 
ATOM     27  C   UNL     1       7.622   4.924  17.319  0.00  0.00    +0.000 C 
ATOM     28  O   UNL     1       8.374   4.070  17.753  0.00  0.00    +0.000 OA
ATOM     29  C   UNL     1       6.745   4.812  16.100  0.00  0.00    +0.000 C 
ATOM     30  H   UNL     1       7.969   6.485  18.664  0.00  0.00    +0.000 HD
ENDBRANCH  23  24
ENDBRANCH  21  23
ENDBRANCH   1  21
TORSDOF 4
ENDMDL
MODEL 6
REMARK VINA RESULT:      -9.1      1.275      1.641
REMARK  Name = 
REMARK  5 active torsions:
REMARK  status: ('A' for Active; 'I' for Inactive)
REMARK    1  A    between atoms: C_1  and  C_2
REMARK    2  A    between atoms: C_2  and  O_3
REMARK    3  A    between atoms: C_2  and  C_24
REMARK    4  A    between atoms: O_3  and  C_4
REMARK    5  A    between atoms: C_6  and  C_7
REMARK                            x       y       z     vdW  Elec       q    Type
REMARK                         _______ _______ _______ _____ _____    ______ ____
ROOT
ATOM      1  C   UNL     1       3.748   5.366  18.489  0.00  0.00    +0.000 A 
ATOM      2  C   UNL     1       3.306   6.610  18.942  0.00  0.00    +0.000 A 
ATOM      3  C   UNL     1       2.167   6.740  19.747  0.00  0.00    +0.000 A 
ATOM      4  C   UNL     1       1.483   5.557  20.077  0.00  0.00    +0.000 A 
ATOM      5  C   UNL     1       1.904   4.298  19.669  0.00  0.00    +0.000 A 
ATOM      6  N   UNL     1       1.169   3.236  20.038  0.00  0.00    +0.000 NA
ATOM      7  C   UNL     1       1.588   2.010  19.659  0.00  0.00    +0.000 A 
ATOM      8  C   UNL     1       2.738   1.785  18.931  0.00  0.00    +0.000 A 
ATOM      9  C   UNL     1       3.489   2.889  18.542  0.00  0.00    +0.000 A 
ATOM     10  C   UNL     1       3.073   4.190  18.890  0.00  0.00    +0.000 A 
ENDROOT
BRANCH   3  11
ATOM     11  C   UNL     1       1.710   8.066  20.212  0.00  0.00    +0.000 A 
ATOM     12  C   UNL     1       1.519   8.353  21.567  0.00  0.00    +0.000 A 
ATOM     13  N   UNL     1       1.127   9.546  22.073  0.00  0.00    +0.000 NA
ATOM     14  C   UNL     1       0.876  10.526  21.190  0.00  0.00    +0.000 A 
ATOM     15  C   UNL     1       0.990  10.358  19.813  0.00  0.00    +0.000 A 
ATOM     16  C   UNL     1       1.439   9.121  19.333  0.00  0.00    +0.000 A 
ATOM     17  C   UNL     1       0.665  11.467  18.862  0.00  0.00    +0.000 C 
ATOM     18  C   UNL     1      -0.128  12.554  19.570  0.00  0.00    +0.000 C 
ATOM     19  C   UNL     1       0.524  12.830  20.913  0.00  0.00    +0.000 C 
ATOM     20  O   UNL     1       0.458  11.692  21.770  0.00  0.00    +0.000 OA
ENDBRANCH   3  11
BRANCH   1  21
ATOM     21  O   UNL     1       4.830   5.227  17.655  0.00  0.00    +0.000 OA
BRANCH  21  23
ATOM     22  C   UNL     1       4.912   6.832  15.805  0.00  0.00    +0.000 C 
ATOM     23  C   UNL     1       5.475   6.419  17.173  0.00  0.00    +0.000 C 
BRANCH  23  24
ATOM     24  C   UNL     1       7.004   6.180  17.077  0.00  0.00    +0.000 C 
ATOM     25  C   UNL     1       7.809   7.376  17.587  0.00  0.00    +0.000 C 
ATOM     26  N   UNL     1       8.066   7.071  18.960  0.00  0.00    +0.000 N 
ATOM     27  C   UNL     1       7.880   5.736  19.248  0.00  0.00    +0.000 C 
ATOM     28  O   UNL     1       8.040   5.218  20.340  0.00  0.00    +0.000 OA
ATOM     29  C   UNL     1       7.502   5.035  17.970  0.00  0.00    +0.000 C 
ATOM     30  H   UNL     1       8.334   7.729  19.679  0.00  0.00    +0.000 HD
ENDBRANCH  23  24
ENDBRANCH  21  23
ENDBRANCH   1  21
TORSDOF 4
ENDMDL
MODEL 7
REMARK VINA RESULT:      -9.0      1.561      1.995
REMARK  Name = 
REMARK  5 active torsions:
REMARK  status: ('A' for Active; 'I' for Inactive)
REMARK    1  A    between atoms: C_1  and  C_2
REMARK    2  A    between atoms: C_2  and  O_3
REMARK    3  A    between atoms: C_2  and  C_24
REMARK    4  A    between atoms: O_3  and  C_4
REMARK    5  A    between atoms: C_6  and  C_7
REMARK                            x       y       z     vdW  Elec       q    Type
REMARK                         _______ _______ _______ _____ _____    ______ ____
ROOT
ATOM      1  C   UNL     1       3.073   5.742  18.674  0.00  0.00    +0.000 A 
ATOM      2  C   UNL     1       2.647   7.004  19.093  0.00  0.00    +0.000 A 
ATOM      3  C   UNL     1       1.749   7.164  20.156  0.00  0.00    +0.000 A 
ATOM      4  C   UNL     1       1.291   5.992  20.783  0.00  0.00    +0.000 A 
ATOM      5  C   UNL     1       1.709   4.721  20.414  0.00  0.00    +0.000 A 
ATOM      6  N   UNL     1       1.200   3.670  21.079  0.00  0.00    +0.000 NA
ATOM      7  C   UNL     1       1.621   2.434  20.735  0.00  0.00    +0.000 A 
ATOM      8  C   UNL     1       2.559   2.191  19.752  0.00  0.00    +0.000 A 
ATOM      9  C   UNL     1       3.073   3.282  19.059  0.00  0.00    +0.000 A 
ATOM     10  C   UNL     1       2.641   4.587  19.365  0.00  0.00    +0.000 A 
ENDROOT
BRANCH   3  11
ATOM     11  C   UNL     1       1.305   8.507  20.583  0.00  0.00    +0.000 A 
ATOM     12  C   UNL     1       1.209   8.865  21.931  0.00  0.00    +0.000 A 
ATOM     13  N   UNL     1       0.834  10.078  22.400  0.00  0.00    +0.000 NA
ATOM     14  C   UNL     1       0.503  11.005  21.487  0.00  0.00    +0.000 A 
ATOM     15  C   UNL     1       0.518  10.764  20.117  0.00  0.00    +0.000 A 
ATOM     16  C   UNL     1       0.952   9.509  19.671  0.00  0.00    +0.000 A 
ATOM     17  C   UNL     1       0.105  11.816  19.134  0.00  0.00    +0.000 C 
ATOM     18  C   UNL     1      -0.653  12.928  19.840  0.00  0.00    +0.000 C 
ATOM     19  C   UNL     1       0.092  13.286  21.114  0.00  0.00    +0.000 C 
ATOM     20  O   UNL     1       0.108  12.195  22.033  0.00  0.00    +0.000 OA
ENDBRANCH   3  11
BRANCH   1  21
ATOM     21  O   UNL     1       3.909   5.566  17.599  0.00  0.00    +0.000 OA
BRANCH  21  23
ATOM     22  C   UNL     1       5.063   6.623  15.713  0.00  0.00    +0.000 C 
ATOM     23  C   UNL     1       4.768   6.656  17.219  0.00  0.00    +0.000 C 
BRANCH  23  24
ATOM     24  C   UNL     1       6.088   6.583  18.029  0.00  0.00    +0.000 C 
ATOM     25  C   UNL     1       6.091   5.423  19.025  0.00  0.00    +0.000 C 
ATOM     26  N   UNL     1       6.718   4.350  18.318  0.00  0.00    +0.000 N 
ATOM     27  C   UNL     1       7.424   4.784  17.217  0.00  0.00    +0.000 C 
ATOM     28  O   UNL     1       8.052   4.073  16.453  0.00  0.00    +0.000 OA
ATOM     29  C   UNL     1       7.321   6.286  17.164  0.00  0.00    +0.000 C 
ATOM     30  H   UNL     1       6.662   3.367  18.549  0.00  0.00    +0.000 HD
ENDBRANCH  23  24
ENDBRANCH  21  23
ENDBRANCH   1  21
TORSDOF 4
ENDMDL
MODEL 8
REMARK VINA RESULT:      -9.0      1.868      4.199
REMARK  Name = 
REMARK  5 active torsions:
REMARK  status: ('A' for Active; 'I' for Inactive)
REMARK    1  A    between atoms: C_1  and  C_2
REMARK    2  A    between atoms: C_2  and  O_3
REMARK    3  A    between atoms: C_2  and  C_24
REMARK    4  A    between atoms: O_3  and  C_4
REMARK    5  A    between atoms: C_6  and  C_7
REMARK                            x       y       z     vdW  Elec       q    Type
REMARK                         _______ _______ _______ _____ _____    ______ ____
ROOT
ATOM      1  C   UNL     1       3.169   4.588  17.293  0.00  0.00    +0.000 A 
ATOM      2  C   UNL     1       2.465   5.645  17.874  0.00  0.00    +0.000 A 
ATOM      3  C   UNL     1       3.006   6.934  17.956  0.00  0.00    +0.000 A 
ATOM      4  C   UNL     1       4.297   7.117  17.429  0.00  0.00    +0.000 A 
ATOM      5  C   UNL     1       5.019   6.099  16.822  0.00  0.00    +0.000 A 
ATOM      6  N   UNL     1       6.248   6.387  16.359  0.00  0.00    +0.000 NA
ATOM      7  C   UNL     1       6.944   5.403  15.750  0.00  0.00    +0.000 A 
ATOM      8  C   UNL     1       6.457   4.126  15.558  0.00  0.00    +0.000 A 
ATOM      9  C   UNL     1       5.190   3.832  16.049  0.00  0.00    +0.000 A 
ATOM     10  C   UNL     1       4.439   4.820  16.718  0.00  0.00    +0.000 A 
ENDROOT
BRANCH   3  11
ATOM     11  C   UNL     1       2.249   8.039  18.579  0.00  0.00    +0.000 A 
ATOM     12  C   UNL     1       2.045   9.261  17.929  0.00  0.00    +0.000 A 
ATOM     13  N   UNL     1       1.346  10.309  18.421  0.00  0.00    +0.000 NA
ATOM     14  C   UNL     1       0.826  10.168  19.651  0.00  0.00    +0.000 A 
ATOM     15  C   UNL     1       0.989   9.019  20.419  0.00  0.00    +0.000 A 
ATOM     16  C   UNL     1       1.685   7.941  19.856  0.00  0.00    +0.000 A 
ATOM     17  C   UNL     1       0.424   8.917  21.802  0.00  0.00    +0.000 C 
ATOM     18  C   UNL     1       0.047  10.296  22.320  0.00  0.00    +0.000 C 
ATOM     19  C   UNL     1      -0.687  11.040  21.219  0.00  0.00    +0.000 C 
ATOM     20  O   UNL     1       0.158  11.276  20.094  0.00  0.00    +0.000 OA
ENDBRANCH   3  11
BRANCH   1  21
ATOM     21  O   UNL     1       2.675   3.307  17.254  0.00  0.00    +0.000 OA
BRANCH  21  23
ATOM     22  C   UNL     1       0.912   2.449  18.724  0.00  0.00    +0.000 C 
ATOM     23  C   UNL     1       2.420   2.638  18.501  0.00  0.00    +0.000 C 
BRANCH  23  24
ATOM     24  C   UNL     1       3.038   3.457  19.665  0.00  0.00    +0.000 C 
ATOM     25  C   UNL     1       2.398   3.119  21.012  0.00  0.00    +0.000 C 
ATOM     26  N   UNL     1       3.245   2.107  21.562  0.00  0.00    +0.000 N 
ATOM     27  C   UNL     1       4.478   2.058  20.949  0.00  0.00    +0.000 C 
ATOM     28  O   UNL     1       5.381   1.291  21.234  0.00  0.00    +0.000 OA
ATOM     29  C   UNL     1       4.521   3.148  19.910  0.00  0.00    +0.000 C 
ATOM     30  H   UNL     1       3.003   1.461  22.303  0.00  0.00    +0.000 HD
ENDBRANCH  23  24
ENDBRANCH  21  23
ENDBRANCH   1  21
TORSDOF 4
ENDMDL
MODEL 9
REMARK VINA RESULT:      -9.0      1.443      1.602
REMARK  Name = 
REMARK  5 active torsions:
REMARK  status: ('A' for Active; 'I' for Inactive)
REMARK    1  A    between atoms: C_1  and  C_2
REMARK    2  A    between atoms: C_2  and  O_3
REMARK    3  A    between atoms: C_2  and  C_24
REMARK    4  A    between atoms: O_3  and  C_4
REMARK    5  A    between atoms: C_6  and  C_7
REMARK                            x       y       z     vdW  Elec       q    Type
REMARK                         _______ _______ _______ _____ _____    ______ ____
ROOT
ATOM      1  C   UNL     1       4.028   4.819  17.792  0.00  0.00    +0.000 A 
ATOM      2  C   UNL     1       3.645   6.156  17.913  0.00  0.00    +0.000 A 
ATOM      3  C   UNL     1       2.460   6.529  18.560  0.00  0.00    +0.000 A 
ATOM      4  C   UNL     1       1.666   5.492  19.081  0.00  0.00    +0.000 A 
ATOM      5  C   UNL     1       2.023   4.152  19.003  0.00  0.00    +0.000 A 
ATOM      6  N   UNL     1       1.183   3.244  19.530  0.00  0.00    +0.000 NA
ATOM      7  C   UNL     1       1.538   1.943  19.474  0.00  0.00    +0.000 A 
ATOM      8  C   UNL     1       2.722   1.494  18.924  0.00  0.00    +0.000 A 
ATOM      9  C   UNL     1       3.581   2.438  18.371  0.00  0.00    +0.000 A 
ATOM     10  C   UNL     1       3.238   3.805  18.380  0.00  0.00    +0.000 A 
ENDROOT
BRANCH   3  11
ATOM     11  C   UNL     1       2.069   7.949  18.674  0.00  0.00    +0.000 A 
ATOM     12  C   UNL     1       2.327   8.876  17.660  0.00  0.00    +0.000 A 
ATOM     13  N   UNL     1       1.981  10.184  17.679  0.00  0.00    +0.000 NA
ATOM     14  C   UNL     1       1.359  10.630  18.782  0.00  0.00    +0.000 A 
ATOM     15  C   UNL     1       1.078   9.821  19.878  0.00  0.00    +0.000 A 
ATOM     16  C   UNL     1       1.415   8.463  19.801  0.00  0.00    +0.000 A 
ATOM     17  C   UNL     1       0.415  10.368  21.104  0.00  0.00    +0.000 C 
ATOM     18  C   UNL     1       0.480  11.886  21.104  0.00  0.00    +0.000 C 
ATOM     19  C   UNL     1       0.113  12.385  19.718  0.00  0.00    +0.000 C 
ATOM     20  O   UNL     1       1.065  11.965  18.743  0.00  0.00    +0.000 OA
ENDBRANCH   3  11
BRANCH   1  21
ATOM     21  O   UNL     1       5.158   4.434  17.114  0.00  0.00    +0.000 OA
BRANCH  21  23
ATOM     22  C   UNL     1       5.605   4.878  14.745  0.00  0.00    +0.000 C 
ATOM     23  C   UNL     1       5.750   5.368  16.193  0.00  0.00    +0.000 C 
BRANCH  23  24
ATOM     24  C   UNL     1       7.246   5.568  16.548  0.00  0.00    +0.000 C 
ATOM     25  C   UNL     1       7.542   6.990  17.026  0.00  0.00    +0.000 C 
ATOM     26  N   UNL     1       7.438   6.915  18.450  0.00  0.00    +0.000 N 
ATOM     27  C   UNL     1       7.506   5.619  18.917  0.00  0.00    +0.000 C 
ATOM     28  O   UNL     1       7.449   5.285  20.086  0.00  0.00    +0.000 OA
ATOM     29  C   UNL     1       7.714   4.712  17.733  0.00  0.00    +0.000 C 
ATOM     30  H   UNL     1       7.307   7.692  19.083  0.00  0.00    +0.000 HD
ENDBRANCH  23  24
ENDBRANCH  21  23
ENDBRANCH   1  21
TORSDOF 4
ENDMDL
