MODEL 1
REMARK VINA RESULT:      -6.6      0.000      0.000
REMARK  Name = 
REMARK  7 active torsions:
REMARK  status: ('A' for Active; 'I' for Inactive)
REMARK    1  A    between atoms: C_2  and  O_3
REMARK    2  A    between atoms: C_2  and  C_4
REMARK    3  A    between atoms: N_8  and  C_9
REMARK    4  A    between atoms: C_9  and  C_10
REMARK    5  A    between atoms: C_10  and  C_11
REMARK    6  A    between atoms: C_11  and  O_12
REMARK    7  A    between atoms: O_12  and  C_13
REMARK                            x       y       z     vdW  Elec       q    Type
REMARK                         _______ _______ _______ _____ _____    ______ ____
ROOT
ATOM      1  C   UNL     1       4.576   6.597  16.442  0.00  0.00    +0.000 C 
ENDROOT
BRANCH   1   6
ATOM      2  C   UNL     1       6.748   5.558  16.831  0.00  0.00    +0.000 C 
ATOM      3  C   UNL     1       7.101   5.082  15.435  0.00  0.00    +0.000 C 
ATOM      4  C   UNL     1       6.155   3.921  15.202  0.00  0.00    +0.000 C 
ATOM      5  C   UNL     1       4.945   4.201  16.083  0.00  0.00    +0.000 C 
ATOM      6  N   UNL     1       5.257   5.377  16.935  0.00  0.00    +0.000 NA
BRANCH   2   8
ATOM      7  O   UNL     1       8.470   4.070  17.742  0.00  0.00    +0.000 OA
ATOM      8  C   UNL     1       7.447   4.712  17.912  0.00  0.00    +0.000 C 
BRANCH   8   9
ATOM      9  O   UNL     1       6.801   4.775  19.105  0.00  0.00    +0.000 OA
ATOM     10  H   UNL     1       6.238   5.585  19.071  0.00  0.00    +0.000 HD
ENDBRANCH   8   9
ENDBRANCH   2   8
ENDBRANCH   1   6
BRANCH   1  11
ATOM     11  C   UNL     1       3.811   7.366  17.524  0.00  0.00    +0.000 C 
BRANCH  11  12
ATOM     12  C   UNL     1       3.588   6.529  18.776  0.00  0.00    +0.000 C 
BRANCH  12  13
ATOM     13  O   UNL     1       2.215   6.144  18.825  0.00  0.00    +0.000 OA
BRANCH  13  14
ATOM     14  C   UNL     1       1.972   4.800  18.932  0.00  0.00    +0.000 A 
ATOM     15  C   UNL     1       1.887   3.899  17.867  0.00  0.00    +0.000 A 
ATOM     16  C   UNL     1       1.649   2.544  18.106  0.00  0.00    +0.000 A 
ATOM     17  C   UNL     1       1.495   2.085  19.413  0.00  0.00    +0.000 A 
ATOM     18  C   UNL     1       1.572   2.983  20.473  0.00  0.00    +0.000 A 
ATOM     19 CL   UNL     1       1.377   2.416  22.086  0.00  0.00    +0.000 Cl
ATOM     20  C   UNL     1       1.808   4.336  20.238  0.00  0.00    +0.000 A 
ENDBRANCH  13  14
ENDBRANCH  12  13
ENDBRANCH  11  12
ENDBRANCH   1  11
TORSDOF 7
ENDMDL
MODEL 2
REMARK VINA RESULT:      -6.6      2.779      5.342
REMARK  Name = 
REMARK  7 active torsions:
REMARK  status: ('A' for Active; 'I' for Inactive)
REMARK    1  A    between atoms: C_2  and  O_3
REMARK    2  A    between atoms: C_2  and  C_4
REMARK    3  A    between atoms: N_8  and  C_9
REMARK    4  A    between atoms: C_9  and  C_10
REMARK    5  A    between atoms: C_10  and  C_11
REMARK    6  A    between atoms: C_11  and  O_12
REMARK    7  A    between atoms: O_12  and  C_13
REMARK                            x       y       z     vdW  Elec       q    Type
REMARK                         _______ _______ _______ _____ _____    ______ ____
ROOT
ATOM      1  C   UNL     1       2.393   5.678  19.617  0.00  0.00    +0.000 C 
ENDROOT
BRANCH   1   6
ATOM      2  C   UNL     1       2.666   3.298  19.156  0.00  0.00    +0.000 C 
ATOM      3  C   UNL     1       1.291   2.769  19.514  0.00  0.00    +0.000 C 
ATOM      4  C   UNL     1       1.253   2.866  21.026  0.00  0.00    +0.000 C 
ATOM      5  C   UNL     1       2.216   3.990  21.385  0.00  0.00    +0.000 C 
ATOM      6  N   UNL     1       2.926   4.401  20.147  0.00  0.00    +0.000 NA
BRANCH   2   8
ATOM      7  O   UNL     1       4.735   2.298  20.009  0.00  0.00    +0.000 OA
ATOM      8  C   UNL     1       3.747   2.210  19.299  0.00  0.00    +0.000 C 
BRANCH   8   9
ATOM      9  O   UNL     1       3.468   1.113  18.550  0.00  0.00    +0.000 OA
ATOM     10  H   UNL     1       4.201   0.473  18.713  0.00  0.00    +0.000 HD
ENDBRANCH   8   9
ENDBRANCH   2   8
ENDBRANCH   1   6
BRANCH   1  11
ATOM     11  C   UNL     1       2.662   5.896  18.124  0.00  0.00    +0.000 C 
BRANCH  11  12
ATOM     12  C   UNL     1       3.344   7.229  17.851  0.00  0.00    +0.000 C 
BRANCH  12  13
ATOM     13  O   UNL     1       4.129   7.103  16.667  0.00  0.00    +0.000 OA
BRANCH  13  14
ATOM     14  C   UNL     1       5.165   6.209  16.727  0.00  0.00    +0.000 A 
ATOM     15  C   UNL     1       5.425   5.197  15.798  0.00  0.00    +0.000 A 
ATOM     16  C   UNL     1       6.527   4.355  15.961  0.00  0.00    +0.000 A 
ATOM     17  C   UNL     1       7.374   4.523  17.055  0.00  0.00    +0.000 A 
ATOM     18  C   UNL     1       7.112   5.526  17.984  0.00  0.00    +0.000 A 
ATOM     19 CL   UNL     1       8.157   5.729  19.336  0.00  0.00    +0.000 Cl
ATOM     20  C   UNL     1       6.013   6.367  17.825  0.00  0.00    +0.000 A 
ENDBRANCH  13  14
ENDBRANCH  12  13
ENDBRANCH  11  12
ENDBRANCH   1  11
TORSDOF 7
ENDMDL
MODEL 3
REMARK VINA RESULT:      -6.5      3.031      5.135
REMARK  Name = 
REMARK  7 active torsions:
REMARK  status: ('A' for Active; 'I' for Inactive)
REMARK    1  A    between atoms: C_2  and  O_3
REMARK    2  A    between atoms: C_2  and  C_4
REMARK    3  A    between atoms: N_8  and  C_9
REMARK    4  A    between atoms: C_9  and  C_10
REMARK    5  A    between atoms: C_10  and  C_11
REMARK    6  A    between atoms: C_11  and  O_12
REMARK    7  A    between atoms: O_12  and  C_13
REMARK                            x       y       z     vdW  Elec       q    Type
REMARK                         _______ _______ _______ _____ _____    ______ ____
ROOT
ATOM      1  C   UNL     1       1.779   5.041  18.913  0.00  0.00    +0.000 C 
ENDROOT
BRANCH   1   6
ATOM      2  C   UNL     1       3.598   3.460  19.288  0.00  0.00    +0.000 C 
ATOM      3  C   UNL     1       3.790   2.896  17.893  0.00  0.00    +0.000 C 
ATOM      4  C   UNL     1       2.565   2.030  17.685  0.00  0.00    +0.000 C 
ATOM      5  C   UNL     1       1.487   2.630  18.578  0.00  0.00    +0.000 C 
ATOM      6  N   UNL     1       2.115   3.686  19.412  0.00  0.00    +0.000 NA
BRANCH   2   8
ATOM      7  O   UNL     1       3.569   2.367  21.482  0.00  0.00    +0.000 OA
ATOM      8  C   UNL     1       4.061   2.466  20.370  0.00  0.00    +0.000 C 
BRANCH   8   9
ATOM      9  O   UNL     1       5.082   1.682  19.939  0.00  0.00    +0.000 OA
ATOM     10  H   UNL     1       5.343   1.122  20.707  0.00  0.00    +0.000 HD
ENDBRANCH   8   9
ENDBRANCH   2   8
ENDBRANCH   1   6
BRANCH   1  11
ATOM     11  C   UNL     1       2.892   6.074  19.111  0.00  0.00    +0.000 C 
BRANCH  11  12
ATOM     12  C   UNL     1       3.168   6.872  17.844  0.00  0.00    +0.000 C 
BRANCH  12  13
ATOM     13  O   UNL     1       4.547   7.239  17.831  0.00  0.00    +0.000 OA
BRANCH  13  14
ATOM     14  C   UNL     1       5.416   6.287  17.368  0.00  0.00    +0.000 A 
ATOM     15  C   UNL     1       6.516   5.779  18.065  0.00  0.00    +0.000 A 
ATOM     16  C   UNL     1       7.323   4.795  17.490  0.00  0.00    +0.000 A 
ATOM     17  C   UNL     1       7.032   4.315  16.215  0.00  0.00    +0.000 A 
ATOM     18  C   UNL     1       5.941   4.825  15.517  0.00  0.00    +0.000 A 
ATOM     19 CL   UNL     1       5.586   4.235  13.941  0.00  0.00    +0.000 Cl
ATOM     20  C   UNL     1       5.135   5.808  16.087  0.00  0.00    +0.000 A 
ENDBRANCH  13  14
ENDBRANCH  12  13
ENDBRANCH  11  12
ENDBRANCH   1  11
TORSDOF 7
ENDMDL
MODEL 4
REMARK VINA RESULT:      -6.5      1.265      2.059
REMARK  Name = 
REMARK  7 active torsions:
REMARK  status: ('A' for Active; 'I' for Inactive)
REMARK    1  A    between atoms: C_2  and  O_3
REMARK    2  A    between atoms: C_2  and  C_4
REMARK    3  A    between atoms: N_8  and  C_9
REMARK    4  A    between atoms: C_9  and  C_10
REMARK    5  A    between atoms: C_10  and  C_11
REMARK    6  A    between atoms: C_11  and  O_12
REMARK    7  A    between atoms: O_12  and  C_13
REMARK                            x       y       z     vdW  Elec       q    Type
REMARK                         _______ _______ _______ _____ _____    ______ ____
ROOT
ATOM      1  C   UNL     1       5.146   7.416  17.141  0.00  0.00    +0.000 C 
ENDROOT
BRANCH   1   6
ATOM      2  C   UNL     1       6.647   5.556  17.629  0.00  0.00    +0.000 C 
ATOM      3  C   UNL     1       7.212   5.979  18.971  0.00  0.00    +0.000 C 
ATOM      4  C   UNL     1       8.131   7.133  18.625  0.00  0.00    +0.000 C 
ATOM      5  C   UNL     1       7.569   7.728  17.341  0.00  0.00    +0.000 C 
ATOM      6  N   UNL     1       6.482   6.838  16.858  0.00  0.00    +0.000 NA
BRANCH   2   8
ATOM      7  O   UNL     1       7.683   4.524  15.661  0.00  0.00    +0.000 OA
ATOM      8  C   UNL     1       7.613   4.622  16.875  0.00  0.00    +0.000 C 
BRANCH   8   9
ATOM      9  O   UNL     1       8.409   3.921  17.723  0.00  0.00    +0.000 OA
ATOM     10  H   UNL     1       8.296   4.333  18.612  0.00  0.00    +0.000 HD
ENDBRANCH   8   9
ENDBRANCH   2   8
ENDBRANCH   1   6
BRANCH   1  11
ATOM     11  C   UNL     1       4.028   6.376  17.256  0.00  0.00    +0.000 C 
BRANCH  11  12
ATOM     12  C   UNL     1       3.132   6.625  18.462  0.00  0.00    +0.000 C 
BRANCH  12  13
ATOM     13  O   UNL     1       1.889   5.957  18.249  0.00  0.00    +0.000 OA
BRANCH  13  14
ATOM     14  C   UNL     1       1.877   4.613  18.512  0.00  0.00    +0.000 A 
ATOM     15  C   UNL     1       2.124   3.598  17.583  0.00  0.00    +0.000 A 
ATOM     16  C   UNL     1       2.098   2.259  17.978  0.00  0.00    +0.000 A 
ATOM     17  C   UNL     1       1.824   1.930  19.304  0.00  0.00    +0.000 A 
ATOM     18  C   UNL     1       1.571   2.940  20.228  0.00  0.00    +0.000 A 
ATOM     19 CL   UNL     1       1.229   2.533  21.864  0.00  0.00    +0.000 Cl
ATOM     20  C   UNL     1       1.595   4.277  19.837  0.00  0.00    +0.000 A 
ENDBRANCH  13  14
ENDBRANCH  12  13
ENDBRANCH  11  12
ENDBRANCH   1  11
TORSDOF 7
ENDMDL
MODEL 5
REMARK VINA RESULT:      -6.5      1.231      1.821
REMARK  Name = 
REMARK  7 active torsions:
REMARK  status: ('A' for Active; 'I' for Inactive)
REMARK    1  A    between atoms: C_2  and  O_3
REMARK    2  A    between atoms: C_2  and  C_4
REMARK    3  A    between atoms: N_8  and  C_9
REMARK    4  A    between atoms: C_9  and  C_10
REMARK    5  A    between atoms: C_10  and  C_11
REMARK    6  A    between atoms: C_11  and  O_12
REMARK    7  A    between atoms: O_12  and  C_13
REMARK                            x       y       z     vdW  Elec       q    Type
REMARK                         _______ _______ _______ _____ _____    ______ ____
ROOT
ATOM      1  C   UNL     1       4.570   6.708  16.602  0.00  0.00    +0.000 C 
ENDROOT
BRANCH   1   6
ATOM      2  C   UNL     1       6.706   5.604  17.013  0.00  0.00    +0.000 C 
ATOM      3  C   UNL     1       7.021   5.052  15.637  0.00  0.00    +0.000 C 
ATOM      4  C   UNL     1       6.029   3.919  15.469  0.00  0.00    +0.000 C 
ATOM      5  C   UNL     1       4.842   4.286  16.350  0.00  0.00    +0.000 C 
ATOM      6  N   UNL     1       5.211   5.486  17.143  0.00  0.00    +0.000 NA
BRANCH   2   8
ATOM      7  O   UNL     1       7.066   4.800  19.301  0.00  0.00    +0.000 OA
ATOM      8  C   UNL     1       7.386   4.782  18.124  0.00  0.00    +0.000 C 
BRANCH   8   9
ATOM      9  O   UNL     1       8.387   4.002  17.640  0.00  0.00    +0.000 OA
ATOM     10  H   UNL     1       8.251   3.105  18.029  0.00  0.00    +0.000 HD
ENDBRANCH   8   9
ENDBRANCH   2   8
ENDBRANCH   1   6
BRANCH   1  11
ATOM     11  C   UNL     1       3.762   7.499  17.635  0.00  0.00    +0.000 C 
BRANCH  11  12
ATOM     12  C   UNL     1       2.466   6.795  18.013  0.00  0.00    +0.000 C 
BRANCH  12  13
ATOM     13  O   UNL     1       2.479   6.547  19.419  0.00  0.00    +0.000 OA
BRANCH  13  14
ATOM     14  C   UNL     1       2.286   5.245  19.799  0.00  0.00    +0.000 A 
ATOM     15  C   UNL     1       1.965   4.811  21.089  0.00  0.00    +0.000 A 
ATOM     16  C   UNL     1       1.777   3.453  21.350  0.00  0.00    +0.000 A 
ATOM     17  C   UNL     1       1.912   2.522  20.322  0.00  0.00    +0.000 A 
ATOM     18  C   UNL     1       2.239   2.952  19.039  0.00  0.00    +0.000 A 
ATOM     19 CL   UNL     1       2.408   1.802  17.771  0.00  0.00    +0.000 Cl
ATOM     20  C   UNL     1       2.427   4.307  18.775  0.00  0.00    +0.000 A 
ENDBRANCH  13  14
ENDBRANCH  12  13
ENDBRANCH  11  12
ENDBRANCH   1  11
TORSDOF 7
ENDMDL
MODEL 6
REMARK VINA RESULT:      -6.5      3.305      5.846
REMARK  Name = 
REMARK  7 active torsions:
REMARK  status: ('A' for Active; 'I' for Inactive)
REMARK    1  A    between atoms: C_2  and  O_3
REMARK    2  A    between atoms: C_2  and  C_4
REMARK    3  A    between atoms: N_8  and  C_9
REMARK    4  A    between atoms: C_9  and  C_10
REMARK    5  A    between atoms: C_10  and  C_11
REMARK    6  A    between atoms: C_11  and  O_12
REMARK    7  A    between atoms: O_12  and  C_13
REMARK                            x       y       z     vdW  Elec       q    Type
REMARK                         _______ _______ _______ _____ _____    ______ ____
ROOT
ATOM      1  C   UNL     1       2.112   5.333  19.558  0.00  0.00    +0.000 C 
ENDROOT
BRANCH   1   6
ATOM      2  C   UNL     1       2.773   3.002  19.271  0.00  0.00    +0.000 C 
ATOM      3  C   UNL     1       1.539   2.282  19.777  0.00  0.00    +0.000 C 
ATOM      4  C   UNL     1       1.578   2.511  21.274  0.00  0.00    +0.000 C 
ATOM      5  C   UNL     1       2.347   3.811  21.465  0.00  0.00    +0.000 C 
ATOM      6  N   UNL     1       2.895   4.221  20.147  0.00  0.00    +0.000 NA
BRANCH   2   8
ATOM      7  O   UNL     1       4.932   2.334  20.223  0.00  0.00    +0.000 OA
ATOM      8  C   UNL     1       4.037   2.134  19.417  0.00  0.00    +0.000 C 
BRANCH   8   9
ATOM      9  O   UNL     1       4.040   1.089  18.551  0.00  0.00    +0.000 OA
ATOM     10  H   UNL     1       4.183   1.474  17.654  0.00  0.00    +0.000 HD
ENDBRANCH   8   9
ENDBRANCH   2   8
ENDBRANCH   1   6
BRANCH   1  11
ATOM     11  C   UNL     1       2.242   5.451  18.036  0.00  0.00    +0.000 C 
BRANCH  11  12
ATOM     12  C   UNL     1       3.324   6.440  17.626  0.00  0.00    +0.000 C 
BRANCH  12  13
ATOM     13  O   UNL     1       4.418   5.711  17.071  0.00  0.00    +0.000 OA
BRANCH  13  14
ATOM     14  C   UNL     1       5.639   5.923  17.655  0.00  0.00    +0.000 A 
ATOM     15  C   UNL     1       6.324   5.014  18.466  0.00  0.00    +0.000 A 
ATOM     16  C   UNL     1       7.575   5.341  18.992  0.00  0.00    +0.000 A 
ATOM     17  C   UNL     1       8.145   6.581  18.710  0.00  0.00    +0.000 A 
ATOM     18  C   UNL     1       7.460   7.490  17.909  0.00  0.00    +0.000 A 
ATOM     19 CL   UNL     1       8.164   9.022  17.565  0.00  0.00    +0.000 Cl
ATOM     20  C   UNL     1       6.212   7.167  17.383  0.00  0.00    +0.000 A 
ENDBRANCH  13  14
ENDBRANCH  12  13
ENDBRANCH  11  12
ENDBRANCH   1  11
TORSDOF 7
ENDMDL
MODEL 7
REMARK VINA RESULT:      -6.4      2.878      5.455
REMARK  Name = 
REMARK  7 active torsions:
REMARK  status: ('A' for Active; 'I' for Inactive)
REMARK    1  A    between atoms: C_2  and  O_3
REMARK    2  A    between atoms: C_2  and  C_4
REMARK    3  A    between atoms: N_8  and  C_9
REMARK    4  A    between atoms: C_9  and  C_10
REMARK    5  A    between atoms: C_10  and  C_11
REMARK    6  A    between atoms: C_11  and  O_12
REMARK    7  A    between atoms: O_12  and  C_13
REMARK                            x       y       z     vdW  Elec       q    Type
REMARK                         _______ _______ _______ _____ _____    ______ ____
ROOT
ATOM      1  C   UNL     1       2.009   4.945  18.337  0.00  0.00    +0.000 C 
ENDROOT
BRANCH   1   6
ATOM      2  C   UNL     1       3.143   3.015  19.306  0.00  0.00    +0.000 C 
ATOM      3  C   UNL     1       2.044   2.434  20.174  0.00  0.00    +0.000 C 
ATOM      4  C   UNL     1       1.926   3.424  21.315  0.00  0.00    +0.000 C 
ATOM      5  C   UNL     1       2.404   4.754  20.748  0.00  0.00    +0.000 C 
ATOM      6  N   UNL     1       2.954   4.506  19.391  0.00  0.00    +0.000 NA
BRANCH   2   8
ATOM      7  O   UNL     1       4.764   1.774  20.663  0.00  0.00    +0.000 OA
ATOM      8  C   UNL     1       4.540   2.641  19.835  0.00  0.00    +0.000 C 
BRANCH   8   9
ATOM      9  O   UNL     1       5.519   3.380  19.252  0.00  0.00    +0.000 OA
ATOM     10  H   UNL     1       5.333   4.320  19.487  0.00  0.00    +0.000 HD
ENDBRANCH   8   9
ENDBRANCH   2   8
ENDBRANCH   1   6
BRANCH   1  11
ATOM     11  C   UNL     1       2.104   6.435  17.994  0.00  0.00    +0.000 C 
BRANCH  11  12
ATOM     12  C   UNL     1       3.492   7.000  18.264  0.00  0.00    +0.000 C 
BRANCH  12  13
ATOM     13  O   UNL     1       4.164   7.167  17.016  0.00  0.00    +0.000 OA
BRANCH  13  14
ATOM     14  C   UNL     1       5.259   6.371  16.812  0.00  0.00    +0.000 A 
ATOM     15  C   UNL     1       6.361   6.266  17.665  0.00  0.00    +0.000 A 
ATOM     16  C   UNL     1       7.415   5.403  17.354  0.00  0.00    +0.000 A 
ATOM     17  C   UNL     1       7.369   4.642  16.187  0.00  0.00    +0.000 A 
ATOM     18  C   UNL     1       6.275   4.752  15.334  0.00  0.00    +0.000 A 
ATOM     19 CL   UNL     1       6.222   3.815  13.891  0.00  0.00    +0.000 Cl
ATOM     20  C   UNL     1       5.223   5.612  15.640  0.00  0.00    +0.000 A 
ENDBRANCH  13  14
ENDBRANCH  12  13
ENDBRANCH  11  12
ENDBRANCH   1  11
TORSDOF 7
ENDMDL
MODEL 8
REMARK VINA RESULT:      -6.4      2.028      2.527
REMARK  Name = 
REMARK  7 active torsions:
REMARK  status: ('A' for Active; 'I' for Inactive)
REMARK    1  A    between atoms: C_2  and  O_3
REMARK    2  A    between atoms: C_2  and  C_4
REMARK    3  A    between atoms: N_8  and  C_9
REMARK    4  A    between atoms: C_9  and  C_10
REMARK    5  A    between atoms: C_10  and  C_11
REMARK    6  A    between atoms: C_11  and  O_12
REMARK    7  A    between atoms: O_12  and  C_13
REMARK                            x       y       z     vdW  Elec       q    Type
REMARK                         _______ _______ _______ _____ _____    ______ ____
ROOT
ATOM      1  C   UNL     1       4.528   6.934  16.094  0.00  0.00    +0.000 C 
ENDROOT
BRANCH   1   6
ATOM      2  C   UNL     1       5.635   5.024  15.055  0.00  0.00    +0.000 C 
ATOM      3  C   UNL     1       5.534   3.990  16.160  0.00  0.00    +0.000 C 
ATOM      4  C   UNL     1       6.516   4.483  17.203  0.00  0.00    +0.000 C 
ATOM      5  C   UNL     1       6.600   5.990  17.001  0.00  0.00    +0.000 C 
ATOM      6  N   UNL     1       5.843   6.333  15.770  0.00  0.00    +0.000 NA
BRANCH   2   8
ATOM      7  O   UNL     1       7.811   5.466  14.018  0.00  0.00    +0.000 OA
ATOM      8  C   UNL     1       6.831   4.747  14.126  0.00  0.00    +0.000 C 
BRANCH   8   9
ATOM      9  O   UNL     1       6.687   3.584  13.442  0.00  0.00    +0.000 OA
ATOM     10  H   UNL     1       7.439   3.542  12.805  0.00  0.00    +0.000 HD
ENDBRANCH   8   9
ENDBRANCH   2   8
ENDBRANCH   1   6
BRANCH   1  11
ATOM     11  C   UNL     1       4.389   7.386  17.551  0.00  0.00    +0.000 C 
BRANCH  11  12
ATOM     12  C   UNL     1       2.982   7.170  18.089  0.00  0.00    +0.000 C 
BRANCH  12  13
ATOM     13  O   UNL     1       3.049   6.248  19.177  0.00  0.00    +0.000 OA
BRANCH  13  14
ATOM     14  C   UNL     1       2.985   4.921  18.844  0.00  0.00    +0.000 A 
ATOM     15  C   UNL     1       2.221   4.376  17.808  0.00  0.00    +0.000 A 
ATOM     16  C   UNL     1       2.251   3.003  17.556  0.00  0.00    +0.000 A 
ATOM     17  C   UNL     1       3.046   2.169  18.341  0.00  0.00    +0.000 A 
ATOM     18  C   UNL     1       3.800   2.710  19.377  0.00  0.00    +0.000 A 
ATOM     19 CL   UNL     1       4.778   1.679  20.348  0.00  0.00    +0.000 Cl
ATOM     20  C   UNL     1       3.772   4.080  19.632  0.00  0.00    +0.000 A 
ENDBRANCH  13  14
ENDBRANCH  12  13
ENDBRANCH  11  12
ENDBRANCH   1  11
TORSDOF 7
ENDMDL
MODEL 9
REMARK VINA RESULT:      -6.3      3.029      5.859
REMARK  Name = 
REMARK  7 active torsions:
REMARK  status: ('A' for Active; 'I' for Inactive)
REMARK    1  A    between atoms: C_2  and  O_3
REMARK    2  A    between atoms: C_2  and  C_4
REMARK    3  A    between atoms: N_8  and  C_9
REMARK    4  A    between atoms: C_9  and  C_10
REMARK    5  A    between atoms: C_10  and  C_11
REMARK    6  A    between atoms: C_11  and  O_12
REMARK    7  A    between atoms: O_12  and  C_13
REMARK                            x       y       z     vdW  Elec       q    Type
REMARK                         _______ _______ _______ _____ _____    ______ ____
ROOT
ATOM      1  C   UNL     1       2.216   5.978  20.125  0.00  0.00    +0.000 C 
ENDROOT
BRANCH   1   6
ATOM      2  C   UNL     1       1.275   3.825  19.469  0.00  0.00    +0.000 C 
ATOM      3  C   UNL     1       1.156   3.134  20.813  0.00  0.00    +0.000 C 
ATOM      4  C   UNL     1       2.591   2.829  21.189  0.00  0.00    +0.000 C 
ATOM      5  C   UNL     1       3.430   3.877  20.471  0.00  0.00    +0.000 C 
ATOM      6  N   UNL     1       2.535   4.643  19.566  0.00  0.00    +0.000 NA
BRANCH   2   8
ATOM      7  O   UNL     1       2.011   3.008  17.277  0.00  0.00    +0.000 OA
ATOM      8  C   UNL     1       1.408   2.808  18.319  0.00  0.00    +0.000 C 
BRANCH   8   9
ATOM      9  O   UNL     1       0.788   1.635  18.602  0.00  0.00    +0.000 OA
ATOM     10  H   UNL     1       0.493   1.698  19.542  0.00  0.00    +0.000 HD
ENDBRANCH   8   9
ENDBRANCH   2   8
ENDBRANCH   1   6
BRANCH   1  11
ATOM     11  C   UNL     1       2.507   7.140  19.171  0.00  0.00    +0.000 C 
BRANCH  11  12
ATOM     12  C   UNL     1       2.958   6.659  17.798  0.00  0.00    +0.000 C 
BRANCH  12  13
ATOM     13  O   UNL     1       4.238   7.224  17.519  0.00  0.00    +0.000 OA
BRANCH  13  14
ATOM     14  C   UNL     1       5.249   6.330  17.280  0.00  0.00    +0.000 A 
ATOM     15  C   UNL     1       6.196   5.902  18.214  0.00  0.00    +0.000 A 
ATOM     16  C   UNL     1       7.173   4.971  17.853  0.00  0.00    +0.000 A 
ATOM     17  C   UNL     1       7.205   4.466  16.554  0.00  0.00    +0.000 A 
ATOM     18  C   UNL     1       6.266   4.897  15.622  0.00  0.00    +0.000 A 
ATOM     19 CL   UNL     1       6.310   4.275  14.018  0.00  0.00    +0.000 Cl
ATOM     20  C   UNL     1       5.292   5.826  15.979  0.00  0.00    +0.000 A 
ENDBRANCH  13  14
ENDBRANCH  12  13
ENDBRANCH  11  12
ENDBRANCH   1  11
TORSDOF 7
ENDMDL
