MODEL 1
REMARK VINA RESULT:      -9.0      0.000      0.000
REMARK  Name = 
REMARK  7 active torsions:
REMARK  status: ('A' for Active; 'I' for Inactive)
REMARK    1  A    between atoms: C_1  and  C_2
REMARK    2  A    between atoms: C_2  and  C_3
REMARK    3  A    between atoms: C_7  and  C_8
REMARK    4  A    between atoms: C_11  and  C_12
REMARK    5  A    between atoms: C_21  and  N_22
REMARK    6  A    between atoms: C_27  and  C_28
REMARK    7  A    between atoms: C_29  and  C_30
REMARK                            x       y       z     vdW  Elec       q    Type
REMARK                         _______ _______ _______ _____ _____    ______ ____
ROOT
ATOM      1  C   UNL     1       2.191   6.290  19.737  0.00  0.00    +0.000 A 
ATOM      2  C   UNL     1       1.756   7.196  20.712  0.00  0.00    +0.000 A 
ATOM      3  C   UNL     1       1.475   8.523  20.397  0.00  0.00    +0.000 A 
ATOM      4  C   UNL     1       1.693   9.026  19.116  0.00  0.00    +0.000 A 
ATOM      5  C   UNL     1       2.184   8.147  18.150  0.00  0.00    +0.000 A 
ATOM      6  F   UNL     1       2.395   8.541  16.886  0.00  0.00    +0.000 F 
ATOM      7  C   UNL     1       2.446   6.806  18.457  0.00  0.00    +0.000 A 
ENDROOT
BRANCH   4   8
ATOM      8  C   UNL     1       1.245  10.389  18.732  0.00  0.00    +0.000 C 
ATOM      9  O   UNL     1       2.060  11.102  18.144  0.00  0.00    +0.000 OA
ATOM     10  N   UNL     1      -0.074  10.810  18.936  0.00  0.00    +0.000 N 
ATOM     11  C   UNL     1      -0.552  11.967  18.188  0.00  0.00    +0.000 C 
ATOM     12  C   UNL     1      -1.689  11.538  17.263  0.00  0.00    +0.000 C 
ATOM     13  C   UNL     1      -2.816  10.832  18.044  0.00  0.00    +0.000 C 
ATOM     14  C   UNL     1      -2.269   9.710  18.944  0.00  0.00    +0.000 C 
ATOM     15  C   UNL     1      -1.098  10.217  19.795  0.00  0.00    +0.000 C 
ATOM     16  C   UNL     1      -3.965  10.320  17.116  0.00  0.00    +0.000 C 
ATOM     17  C   UNL     1      -4.856  11.484  17.580  0.00  0.00    +0.000 C 
ATOM     18  C   UNL     1      -3.873  11.746  18.737  0.00  0.00    +0.000 C 
BRANCH  17  19
ATOM     19  N   UNL     1      -4.791  12.575  16.611  0.00  0.00    +0.000 NA
ATOM     20  H   UNL     1      -4.000  13.210  16.690  0.00  0.00    +0.000 HD
ATOM     21  H   UNL     1      -5.628  13.153  16.569  0.00  0.00    +0.000 HD
ENDBRANCH  17  19
ENDBRANCH   4   8
BRANCH   1  26
ATOM     22  C   UNL     1       2.980   2.614  19.905  0.00  0.00    +0.000 A 
ATOM     23  N   UNL     1       2.117   2.244  20.884  0.00  0.00    +0.000 NA
ATOM     24  C   UNL     1       1.377   3.212  21.422  0.00  0.00    +0.000 A 
ATOM     25  N   UNL     1       1.434   4.504  21.094  0.00  0.00    +0.000 NA
ATOM     26  C   UNL     1       2.297   4.862  20.101  0.00  0.00    +0.000 A 
ATOM     27  C   UNL     1       3.100   3.923  19.450  0.00  0.00    +0.000 A 
BRANCH  22  29
ATOM     28  C   UNL     1       5.029   1.304  20.383  0.00  0.00    +0.000 C 
ATOM     29  C   UNL     1       3.873   1.504  19.408  0.00  0.00    +0.000 C 
ENDBRANCH  22  29
BRANCH  27  30
ATOM     30  C   UNL     1       3.960   4.259  18.343  0.00  0.00    +0.000 C 
ATOM     31  C   UNL     1       4.691   4.513  17.427  0.00  0.00    +0.000 C 
BRANCH  31  32
ATOM     32  C   UNL     1       5.568   4.790  16.330  0.00  0.00    +0.000 A 
ATOM     33  C   UNL     1       5.321   4.278  15.061  0.00  0.00    +0.000 A 
ATOM     34  C   UNL     1       6.222   4.549  14.030  0.00  0.00    +0.000 A 
ATOM     35  C   UNL     1       7.348   5.318  14.301  0.00  0.00    +0.000 A 
ATOM     36  N   UNL     1       8.268   5.602  13.297  0.00  0.00    +0.000 N 
ATOM     37  N   UNL     1       7.593   5.847  15.510  0.00  0.00    +0.000 NA
ATOM     38  C   UNL     1       6.694   5.580  16.495  0.00  0.00    +0.000 A 
ATOM     39  H   UNL     1       8.591   4.763  12.832  0.00  0.00    +0.000 HD
ATOM     40  H   UNL     1       9.032   6.117  13.729  0.00  0.00    +0.000 HD
ENDBRANCH  31  32
ENDBRANCH  27  30
ENDBRANCH   1  26
TORSDOF 6
ENDMDL
MODEL 2
REMARK VINA RESULT:      -8.7      1.794      2.281
REMARK  Name = 
REMARK  7 active torsions:
REMARK  status: ('A' for Active; 'I' for Inactive)
REMARK    1  A    between atoms: C_1  and  C_2
REMARK    2  A    between atoms: C_2  and  C_3
REMARK    3  A    between atoms: C_7  and  C_8
REMARK    4  A    between atoms: C_11  and  C_12
REMARK    5  A    between atoms: C_21  and  N_22
REMARK    6  A    between atoms: C_27  and  C_28
REMARK    7  A    between atoms: C_29  and  C_30
REMARK                            x       y       z     vdW  Elec       q    Type
REMARK                         _______ _______ _______ _____ _____    ______ ____
ROOT
ATOM      1  C   UNL     1       2.322   6.152  20.007  0.00  0.00    +0.000 A 
ATOM      2  C   UNL     1       1.596   6.991  20.861  0.00  0.00    +0.000 A 
ATOM      3  C   UNL     1       1.173   8.254  20.453  0.00  0.00    +0.000 A 
ATOM      4  C   UNL     1       1.523   8.768  19.206  0.00  0.00    +0.000 A 
ATOM      5  C   UNL     1       2.297   7.965  18.368  0.00  0.00    +0.000 A 
ATOM      6  F   UNL     1       2.654   8.370  17.141  0.00  0.00    +0.000 F 
ATOM      7  C   UNL     1       2.705   6.685  18.766  0.00  0.00    +0.000 A 
ENDROOT
BRANCH   4   8
ATOM      8  C   UNL     1       0.943  10.039  18.701  0.00  0.00    +0.000 C 
ATOM      9  O   UNL     1       0.651  10.085  17.505  0.00  0.00    +0.000 OA
ATOM     10  N   UNL     1       0.648  11.101  19.563  0.00  0.00    +0.000 N 
ATOM     11  C   UNL     1      -0.272  12.132  19.097  0.00  0.00    +0.000 C 
ATOM     12  C   UNL     1      -1.520  12.134  19.977  0.00  0.00    +0.000 C 
ATOM     13  C   UNL     1      -1.158  12.295  21.468  0.00  0.00    +0.000 C 
ATOM     14  C   UNL     1      -0.073  11.293  21.902  0.00  0.00    +0.000 C 
ATOM     15  C   UNL     1       1.114  11.322  20.932  0.00  0.00    +0.000 C 
ATOM     16  C   UNL     1      -2.409  12.233  22.404  0.00  0.00    +0.000 C 
ATOM     17  C   UNL     1      -2.343  13.758  22.589  0.00  0.00    +0.000 C 
ATOM     18  C   UNL     1      -0.926  13.748  21.984  0.00  0.00    +0.000 C 
BRANCH  17  19
ATOM     19  N   UNL     1      -3.274  14.409  21.671  0.00  0.00    +0.000 NA
ATOM     20  H   UNL     1      -3.330  14.028  20.729  0.00  0.00    +0.000 HD
ATOM     21  H   UNL     1      -3.138  15.414  21.573  0.00  0.00    +0.000 HD
ENDBRANCH  17  19
ENDBRANCH   4   8
BRANCH   1  26
ATOM     22  C   UNL     1       3.464   2.580  20.320  0.00  0.00    +0.000 A 
ATOM     23  N   UNL     1       2.693   2.189  21.367  0.00  0.00    +0.000 NA
ATOM     24  C   UNL     1       1.895   3.115  21.895  0.00  0.00    +0.000 A 
ATOM     25  N   UNL     1       1.812   4.386  21.497  0.00  0.00    +0.000 NA
ATOM     26  C   UNL     1       2.582   4.763  20.437  0.00  0.00    +0.000 A 
ATOM     27  C   UNL     1       3.434   3.866  19.791  0.00  0.00    +0.000 A 
BRANCH  22  29
ATOM     28  C   UNL     1       3.945   0.973  18.495  0.00  0.00    +0.000 C 
ATOM     29  C   UNL     1       4.430   1.530  19.830  0.00  0.00    +0.000 C 
ENDBRANCH  22  29
BRANCH  27  30
ATOM     30  C   UNL     1       4.198   4.215  18.619  0.00  0.00    +0.000 C 
ATOM     31  C   UNL     1       4.853   4.484  17.652  0.00  0.00    +0.000 C 
BRANCH  31  32
ATOM     32  C   UNL     1       5.646   4.780  16.496  0.00  0.00    +0.000 A 
ATOM     33  C   UNL     1       5.312   4.277  15.244  0.00  0.00    +0.000 A 
ATOM     34  C   UNL     1       6.133   4.567  14.153  0.00  0.00    +0.000 A 
ATOM     35  C   UNL     1       7.268   5.345  14.350  0.00  0.00    +0.000 A 
ATOM     36  N   UNL     1       8.110   5.648  13.284  0.00  0.00    +0.000 N 
ATOM     37  N   UNL     1       7.595   5.866  15.543  0.00  0.00    +0.000 NA
ATOM     38  C   UNL     1       6.773   5.580  16.588  0.00  0.00    +0.000 A 
ATOM     39  H   UNL     1       8.407   4.818  12.789  0.00  0.00    +0.000 HD
ATOM     40  H   UNL     1       8.898   6.168  13.665  0.00  0.00    +0.000 HD
ENDBRANCH  31  32
ENDBRANCH  27  30
ENDBRANCH   1  26
TORSDOF 6
ENDMDL
MODEL 3
REMARK VINA RESULT:      -8.4      7.411     10.063
REMARK  Name = 
REMARK  7 active torsions:
REMARK  status: ('A' for Active; 'I' for Inactive)
REMARK    1  A    between atoms: C_1  and  C_2
REMARK    2  A    between atoms: C_2  and  C_3
REMARK    3  A    between atoms: C_7  and  C_8
REMARK    4  A    between atoms: C_11  and  C_12
REMARK    5  A    between atoms: C_21  and  N_22
REMARK    6  A    between atoms: C_27  and  C_28
REMARK    7  A    between atoms: C_29  and  C_30
REMARK                            x       y       z     vdW  Elec       q    Type
REMARK                         _______ _______ _______ _____ _____    ______ ____
ROOT
ATOM      1  C   UNL     1       7.199  15.580  18.628  0.00  0.00    +0.000 A 
ATOM      2  C   UNL     1       6.888  16.584  19.552  0.00  0.00    +0.000 A 
ATOM      3  C   UNL     1       5.570  16.961  19.799  0.00  0.00    +0.000 A 
ATOM      4  C   UNL     1       4.512  16.413  19.078  0.00  0.00    +0.000 A 
ATOM      5  C   UNL     1       4.815  15.454  18.110  0.00  0.00    +0.000 A 
ATOM      6  F   UNL     1       3.855  14.855  17.391  0.00  0.00    +0.000 F 
ATOM      7  C   UNL     1       6.137  15.055  17.875  0.00  0.00    +0.000 A 
ENDROOT
BRANCH   4   8
ATOM      8  C   UNL     1       3.099  16.688  19.444  0.00  0.00    +0.000 C 
ATOM      9  O   UNL     1       2.658  17.807  19.178  0.00  0.00    +0.000 OA
ATOM     10  N   UNL     1       2.274  15.689  19.974  0.00  0.00    +0.000 N 
ATOM     11  C   UNL     1       0.831  15.890  19.929  0.00  0.00    +0.000 C 
ATOM     12  C   UNL     1       0.195  14.816  19.049  0.00  0.00    +0.000 C 
ATOM     13  C   UNL     1       0.580  13.400  19.522  0.00  0.00    +0.000 C 
ATOM     14  C   UNL     1       2.101  13.254  19.709  0.00  0.00    +0.000 C 
ATOM     15  C   UNL     1       2.657  14.403  20.557  0.00  0.00    +0.000 C 
ATOM     16  C   UNL     1       0.001  12.277  18.600  0.00  0.00    +0.000 C 
ATOM     17  C   UNL     1      -1.064  11.958  19.662  0.00  0.00    +0.000 C 
ATOM     18  C   UNL     1      -0.265  12.791  20.683  0.00  0.00    +0.000 C 
BRANCH  17  19
ATOM     19  N   UNL     1      -2.314  12.638  19.331  0.00  0.00    +0.000 NA
ATOM     20  H   UNL     1      -2.678  13.288  20.024  0.00  0.00    +0.000 HD
ATOM     21  H   UNL     1      -3.080  12.016  19.081  0.00  0.00    +0.000 HD
ENDBRANCH  17  19
ENDBRANCH   4   8
BRANCH   1  26
ATOM     22  C   UNL     1      10.572  14.034  19.257  0.00  0.00    +0.000 A 
ATOM     23  N   UNL     1      11.261  14.567  18.216  0.00  0.00    +0.000 NA
ATOM     24  C   UNL     1      10.575  15.355  17.390  0.00  0.00    +0.000 A 
ATOM     25  N   UNL     1       9.275  15.638  17.491  0.00  0.00    +0.000 NA
ATOM     26  C   UNL     1       8.596  15.106  18.547  0.00  0.00    +0.000 A 
ATOM     27  C   UNL     1       9.225  14.289  19.488  0.00  0.00    +0.000 A 
BRANCH  22  29
ATOM     28  C   UNL     1      11.403  11.703  19.404  0.00  0.00    +0.000 C 
ATOM     29  C   UNL     1      11.364  13.063  20.096  0.00  0.00    +0.000 C 
ENDBRANCH  22  29
BRANCH  27  30
ATOM     30  C   UNL     1       8.553  13.780  20.658  0.00  0.00    +0.000 C 
ATOM     31  C   UNL     1       8.001  13.382  21.646  0.00  0.00    +0.000 C 
BRANCH  31  32
ATOM     32  C   UNL     1       7.338  12.933  22.832  0.00  0.00    +0.000 A 
ATOM     33  C   UNL     1       7.880  11.929  23.627  0.00  0.00    +0.000 A 
ATOM     34  C   UNL     1       7.180  11.503  24.758  0.00  0.00    +0.000 A 
ATOM     35  C   UNL     1       5.954  12.088  25.053  0.00  0.00    +0.000 A 
ATOM     36  N   UNL     1       5.229  11.682  26.170  0.00  0.00    +0.000 N 
ATOM     37  N   UNL     1       5.424  13.078  24.318  0.00  0.00    +0.000 NA
ATOM     38  C   UNL     1       6.131  13.485  23.229  0.00  0.00    +0.000 A 
ATOM     39  H   UNL     1       5.087  10.681  26.184  0.00  0.00    +0.000 HD
ATOM     40  H   UNL     1       4.349  12.193  26.155  0.00  0.00    +0.000 HD
ENDBRANCH  31  32
ENDBRANCH  27  30
ENDBRANCH   1  26
TORSDOF 6
ENDMDL
MODEL 4
REMARK VINA RESULT:      -8.3      7.600     10.051
REMARK  Name = 
REMARK  7 active torsions:
REMARK  status: ('A' for Active; 'I' for Inactive)
REMARK    1  A    between atoms: C_1  and  C_2
REMARK    2  A    between atoms: C_2  and  C_3
REMARK    3  A    between atoms: C_7  and  C_8
REMARK    4  A    between atoms: C_11  and  C_12
REMARK    5  A    between atoms: C_21  and  N_22
REMARK    6  A    between atoms: C_27  and  C_28
REMARK    7  A    between atoms: C_29  and  C_30
REMARK                            x       y       z     vdW  Elec       q    Type
REMARK                         _______ _______ _______ _____ _____    ______ ____
ROOT
ATOM      1  C   UNL     1       6.945  15.393  18.752  0.00  0.00    +0.000 A 
ATOM      2  C   UNL     1       6.093  14.613  17.962  0.00  0.00    +0.000 A 
ATOM      3  C   UNL     1       4.724  14.862  17.905  0.00  0.00    +0.000 A 
ATOM      4  C   UNL     1       4.133  15.846  18.695  0.00  0.00    +0.000 A 
ATOM      5  C   UNL     1       4.964  16.591  19.533  0.00  0.00    +0.000 A 
ATOM      6  F   UNL     1       4.482  17.576  20.304  0.00  0.00    +0.000 F 
ATOM      7  C   UNL     1       6.345  16.358  19.575  0.00  0.00    +0.000 A 
ENDROOT
BRANCH   4   8
ATOM      8  C   UNL     1       2.708  16.227  18.522  0.00  0.00    +0.000 C 
ATOM      9  O   UNL     1       2.438  16.982  17.586  0.00  0.00    +0.000 OA
ATOM     10  N   UNL     1       1.701  15.674  19.323  0.00  0.00    +0.000 N 
ATOM     11  C   UNL     1       0.323  15.761  18.856  0.00  0.00    +0.000 C 
ATOM     12  C   UNL     1      -0.221  14.355  18.614  0.00  0.00    +0.000 C 
ATOM     13  C   UNL     1      -0.076  13.470  19.869  0.00  0.00    +0.000 C 
ATOM     14  C   UNL     1       1.355  13.513  20.435  0.00  0.00    +0.000 C 
ATOM     15  C   UNL     1       1.835  14.960  20.592  0.00  0.00    +0.000 C 
ATOM     16  C   UNL     1      -0.562  12.003  19.633  0.00  0.00    +0.000 C 
ATOM     17  C   UNL     1      -1.845  12.302  20.425  0.00  0.00    +0.000 C 
ATOM     18  C   UNL     1      -1.193  13.595  20.951  0.00  0.00    +0.000 C 
BRANCH  17  19
ATOM     19  N   UNL     1      -2.931  12.628  19.505  0.00  0.00    +0.000 NA
ATOM     20  H   UNL     1      -3.567  11.872  19.262  0.00  0.00    +0.000 HD
ATOM     21  H   UNL     1      -2.630  13.052  18.629  0.00  0.00    +0.000 HD
ENDBRANCH  17  19
ENDBRANCH   4   8
BRANCH   1  26
ATOM     22  C   UNL     1      10.564  14.491  19.263  0.00  0.00    +0.000 A 
ATOM     23  N   UNL     1      11.112  15.166  18.221  0.00  0.00    +0.000 NA
ATOM     24  C   UNL     1      10.268  15.829  17.432  0.00  0.00    +0.000 A 
ATOM     25  N   UNL     1       8.942  15.862  17.570  0.00  0.00    +0.000 NA
ATOM     26  C   UNL     1       8.404  15.190  18.627  0.00  0.00    +0.000 A 
ATOM     27  C   UNL     1       9.199  14.484  19.532  0.00  0.00    +0.000 A 
BRANCH  22  29
ATOM     28  C   UNL     1      11.777  12.332  19.356  0.00  0.00    +0.000 C 
ATOM     29  C   UNL     1      11.545  13.667  20.058  0.00  0.00    +0.000 C 
ENDBRANCH  22  29
BRANCH  27  30
ATOM     30  C   UNL     1       8.667  13.834  20.702  0.00  0.00    +0.000 C 
ATOM     31  C   UNL     1       8.198  13.307  21.673  0.00  0.00    +0.000 C 
BRANCH  31  32
ATOM     32  C   UNL     1       7.613  12.683  22.821  0.00  0.00    +0.000 A 
ATOM     33  C   UNL     1       8.402  12.190  23.855  0.00  0.00    +0.000 A 
ATOM     34  C   UNL     1       7.787  11.561  24.940  0.00  0.00    +0.000 A 
ATOM     35  C   UNL     1       6.403  11.437  24.953  0.00  0.00    +0.000 A 
ATOM     36  N   UNL     1       5.761  10.810  26.017  0.00  0.00    +0.000 N 
ATOM     37  N   UNL     1       5.619  11.929  23.981  0.00  0.00    +0.000 NA
ATOM     38  C   UNL     1       6.240  12.550  22.942  0.00  0.00    +0.000 A 
ATOM     39  H   UNL     1       6.139   9.890  26.197  0.00  0.00    +0.000 HD
ATOM     40  H   UNL     1       4.769  10.778  25.788  0.00  0.00    +0.000 HD
ENDBRANCH  31  32
ENDBRANCH  27  30
ENDBRANCH   1  26
TORSDOF 6
ENDMDL
MODEL 5
REMARK VINA RESULT:      -8.3      3.767      9.131
REMARK  Name = 
REMARK  7 active torsions:
REMARK  status: ('A' for Active; 'I' for Inactive)
REMARK    1  A    between atoms: C_1  and  C_2
REMARK    2  A    between atoms: C_2  and  C_3
REMARK    3  A    between atoms: C_7  and  C_8
REMARK    4  A    between atoms: C_11  and  C_12
REMARK    5  A    between atoms: C_21  and  N_22
REMARK    6  A    between atoms: C_27  and  C_28
REMARK    7  A    between atoms: C_29  and  C_30
REMARK                            x       y       z     vdW  Elec       q    Type
REMARK                         _______ _______ _______ _____ _____    ______ ____
ROOT
ATOM      1  C   UNL     1       0.511  10.183  20.448  0.00  0.00    +0.000 A 
ATOM      2  C   UNL     1       0.974   8.981  20.995  0.00  0.00    +0.000 A 
ATOM      3  C   UNL     1       1.762   8.101  20.256  0.00  0.00    +0.000 A 
ATOM      4  C   UNL     1       2.056   8.343  18.917  0.00  0.00    +0.000 A 
ATOM      5  C   UNL     1       1.550   9.510  18.342  0.00  0.00    +0.000 A 
ATOM      6  F   UNL     1       1.810   9.834  17.067  0.00  0.00    +0.000 F 
ATOM      7  C   UNL     1       0.776  10.408  19.089  0.00  0.00    +0.000 A 
ENDROOT
BRANCH   4   8
ATOM      8  C   UNL     1       3.025   7.500  18.171  0.00  0.00    +0.000 C 
ATOM      9  O   UNL     1       4.110   8.010  17.885  0.00  0.00    +0.000 OA
ATOM     10  N   UNL     1       2.759   6.154  17.892  0.00  0.00    +0.000 N 
ATOM     11  C   UNL     1       3.878   5.290  17.536  0.00  0.00    +0.000 C 
ATOM     12  C   UNL     1       4.034   4.200  18.595  0.00  0.00    +0.000 C 
ATOM     13  C   UNL     1       2.721   3.415  18.795  0.00  0.00    +0.000 C 
ATOM     14  C   UNL     1       1.524   4.356  19.020  0.00  0.00    +0.000 C 
ATOM     15  C   UNL     1       1.480   5.447  17.943  0.00  0.00    +0.000 C 
ATOM     16  C   UNL     1       2.828   2.336  19.922  0.00  0.00    +0.000 C 
ATOM     17  C   UNL     1       2.910   1.233  18.854  0.00  0.00    +0.000 C 
ATOM     18  C   UNL     1       2.438   2.251  17.798  0.00  0.00    +0.000 C 
BRANCH  17  19
ATOM     19  N   UNL     1       4.306   0.876  18.616  0.00  0.00    +0.000 NA
ATOM     20  H   UNL     1       5.009   1.432  19.097  0.00  0.00    +0.000 HD
ATOM     21  H   UNL     1       4.574   0.852  17.633  0.00  0.00    +0.000 HD
ENDBRANCH  17  19
ENDBRANCH   4   8
BRANCH   1  26
ATOM     22  C   UNL     1      -0.496  13.177  22.495  0.00  0.00    +0.000 A 
ATOM     23  N   UNL     1      -1.508  12.627  23.214  0.00  0.00    +0.000 NA
ATOM     24  C   UNL     1      -1.794  11.351  22.958  0.00  0.00    +0.000 A 
ATOM     25  N   UNL     1      -1.187  10.589  22.047  0.00  0.00    +0.000 NA
ATOM     26  C   UNL     1      -0.165  11.149  21.340  0.00  0.00    +0.000 A 
ATOM     27  C   UNL     1       0.235  12.470  21.547  0.00  0.00    +0.000 A 
BRANCH  22  29
ATOM     28  C   UNL     1      -1.143  15.097  23.922  0.00  0.00    +0.000 C 
ATOM     29  C   UNL     1      -0.287  14.650  22.741  0.00  0.00    +0.000 C 
ENDBRANCH  22  29
BRANCH  27  30
ATOM     30  C   UNL     1       1.363  13.063  20.873  0.00  0.00    +0.000 C 
ATOM     31  C   UNL     1       2.312  13.566  20.340  0.00  0.00    +0.000 C 
BRANCH  31  32
ATOM     32  C   UNL     1       3.459  14.165  19.726  0.00  0.00    +0.000 A 
ATOM     33  C   UNL     1       3.607  14.192  18.343  0.00  0.00    +0.000 A 
ATOM     34  C   UNL     1       4.758  14.759  17.793  0.00  0.00    +0.000 A 
ATOM     35  C   UNL     1       5.729  15.275  18.642  0.00  0.00    +0.000 A 
ATOM     36  N   UNL     1       6.890  15.842  18.125  0.00  0.00    +0.000 N 
ATOM     37  N   UNL     1       5.597  15.285  19.978  0.00  0.00    +0.000 NA
ATOM     38  C   UNL     1       4.461  14.740  20.490  0.00  0.00    +0.000 A 
ATOM     39  H   UNL     1       7.362  15.218  17.484  0.00  0.00    +0.000 HD
ATOM     40  H   UNL     1       7.478  16.092  18.917  0.00  0.00    +0.000 HD
ENDBRANCH  31  32
ENDBRANCH  27  30
ENDBRANCH   1  26
TORSDOF 6
ENDMDL
MODEL 6
REMARK VINA RESULT:      -8.0      3.441     10.790
REMARK  Name = 
REMARK  7 active torsions:
REMARK  status: ('A' for Active; 'I' for Inactive)
REMARK    1  A    between atoms: C_1  and  C_2
REMARK    2  A    between atoms: C_2  and  C_3
REMARK    3  A    between atoms: C_7  and  C_8
REMARK    4  A    between atoms: C_11  and  C_12
REMARK    5  A    between atoms: C_21  and  N_22
REMARK    6  A    between atoms: C_27  and  C_28
REMARK    7  A    between atoms: C_29  and  C_30
REMARK                            x       y       z     vdW  Elec       q    Type
REMARK                         _______ _______ _______ _____ _____    ______ ____
ROOT
ATOM      1  C   UNL     1       1.285  11.721  19.850  0.00  0.00    +0.000 A 
ATOM      2  C   UNL     1       1.299  10.729  18.862  0.00  0.00    +0.000 A 
ATOM      3  C   UNL     1       1.139   9.383  19.180  0.00  0.00    +0.000 A 
ATOM      4  C   UNL     1       1.040   8.958  20.503  0.00  0.00    +0.000 A 
ATOM      5  C   UNL     1       1.086   9.932  21.502  0.00  0.00    +0.000 A 
ATOM      6  F   UNL     1       0.968   9.613  22.799  0.00  0.00    +0.000 F 
ATOM      7  C   UNL     1       1.223  11.289  21.184  0.00  0.00    +0.000 A 
ENDROOT
BRANCH   4   8
ATOM      8  C   UNL     1       0.708   7.551  20.843  0.00  0.00    +0.000 C 
ATOM      9  O   UNL     1      -0.418   7.333  21.294  0.00  0.00    +0.000 OA
ATOM     10  N   UNL     1       1.596   6.504  20.570  0.00  0.00    +0.000 N 
ATOM     11  C   UNL     1       1.071   5.144  20.542  0.00  0.00    +0.000 C 
ATOM     12  C   UNL     1       1.231   4.567  19.137  0.00  0.00    +0.000 C 
ATOM     13  C   UNL     1       2.696   4.646  18.658  0.00  0.00    +0.000 C 
ATOM     14  C   UNL     1       3.279   6.059  18.838  0.00  0.00    +0.000 C 
ATOM     15  C   UNL     1       3.024   6.576  20.259  0.00  0.00    +0.000 C 
ATOM     16  C   UNL     1       2.883   4.125  17.196  0.00  0.00    +0.000 C 
ATOM     17  C   UNL     1       3.501   2.827  17.739  0.00  0.00    +0.000 C 
ATOM     18  C   UNL     1       3.649   3.500  19.118  0.00  0.00    +0.000 C 
BRANCH  17  19
ATOM     19  N   UNL     1       2.484   1.780  17.801  0.00  0.00    +0.000 NA
ATOM     20  H   UNL     1       1.713   1.853  17.141  0.00  0.00    +0.000 HD
ATOM     21  H   UNL     1       2.071   1.647  18.722  0.00  0.00    +0.000 HD
ENDBRANCH  17  19
ENDBRANCH   4   8
BRANCH   1  26
ATOM     22  C   UNL     1       0.360  15.241  18.891  0.00  0.00    +0.000 A 
ATOM     23  N   UNL     1       1.553  15.659  18.395  0.00  0.00    +0.000 NA
ATOM     24  C   UNL     1       2.554  14.781  18.437  0.00  0.00    +0.000 A 
ATOM     25  N   UNL     1       2.484  13.549  18.943  0.00  0.00    +0.000 NA
ATOM     26  C   UNL     1       1.278  13.137  19.427  0.00  0.00    +0.000 A 
ATOM     27  C   UNL     1       0.156  13.965  19.408  0.00  0.00    +0.000 A 
BRANCH  22  29
ATOM     28  C   UNL     1      -0.472  17.301  17.793  0.00  0.00    +0.000 C 
ATOM     29  C   UNL     1      -0.709  16.304  18.924  0.00  0.00    +0.000 C 
ENDBRANCH  22  29
BRANCH  27  30
ATOM     30  C   UNL     1      -1.149  13.529  19.837  0.00  0.00    +0.000 C 
ATOM     31  C   UNL     1      -2.248  13.184  20.174  0.00  0.00    +0.000 C 
BRANCH  31  32
ATOM     32  C   UNL     1      -3.568  12.778  20.550  0.00  0.00    +0.000 A 
ATOM     33  C   UNL     1      -4.506  12.397  19.597  0.00  0.00    +0.000 A 
ATOM     34  C   UNL     1      -5.791  12.039  20.011  0.00  0.00    +0.000 A 
ATOM     35  C   UNL     1      -6.100  12.081  21.365  0.00  0.00    +0.000 A 
ATOM     36  N   UNL     1      -7.373  11.735  21.810  0.00  0.00    +0.000 N 
ATOM     37  N   UNL     1      -5.204  12.417  22.306  0.00  0.00    +0.000 NA
ATOM     38  C   UNL     1      -3.955  12.749  21.880  0.00  0.00    +0.000 A 
ATOM     39  H   UNL     1      -8.095  12.254  21.329  0.00  0.00    +0.000 HD
ATOM     40  H   UNL     1      -7.391  11.897  22.814  0.00  0.00    +0.000 HD
ENDBRANCH  31  32
ENDBRANCH  27  30
ENDBRANCH   1  26
TORSDOF 6
ENDMDL
MODEL 7
REMARK VINA RESULT:      -8.0      2.685      9.231
REMARK  Name = 
REMARK  7 active torsions:
REMARK  status: ('A' for Active; 'I' for Inactive)
REMARK    1  A    between atoms: C_1  and  C_2
REMARK    2  A    between atoms: C_2  and  C_3
REMARK    3  A    between atoms: C_7  and  C_8
REMARK    4  A    between atoms: C_11  and  C_12
REMARK    5  A    between atoms: C_21  and  N_22
REMARK    6  A    between atoms: C_27  and  C_28
REMARK    7  A    between atoms: C_29  and  C_30
REMARK                            x       y       z     vdW  Elec       q    Type
REMARK                         _______ _______ _______ _____ _____    ______ ____
ROOT
ATOM      1  C   UNL     1       0.559  10.111  20.237  0.00  0.00    +0.000 A 
ATOM      2  C   UNL     1       0.964  10.484  18.950  0.00  0.00    +0.000 A 
ATOM      3  C   UNL     1       1.792   9.667  18.184  0.00  0.00    +0.000 A 
ATOM      4  C   UNL     1       2.317   8.483  18.696  0.00  0.00    +0.000 A 
ATOM      5  C   UNL     1       1.968   8.130  20.000  0.00  0.00    +0.000 A 
ATOM      6  F   UNL     1       2.406   6.992  20.560  0.00  0.00    +0.000 F 
ATOM      7  C   UNL     1       1.117   8.937  20.766  0.00  0.00    +0.000 A 
ENDROOT
BRANCH   4   8
ATOM      8  C   UNL     1       3.064   7.530  17.835  0.00  0.00    +0.000 C 
ATOM      9  O   UNL     1       4.080   7.953  17.280  0.00  0.00    +0.000 OA
ATOM     10  N   UNL     1       2.690   6.184  17.740  0.00  0.00    +0.000 N 
ATOM     11  C   UNL     1       3.668   5.232  17.229  0.00  0.00    +0.000 C 
ATOM     12  C   UNL     1       4.009   4.219  18.320  0.00  0.00    +0.000 C 
ATOM     13  C   UNL     1       2.742   3.530  18.865  0.00  0.00    +0.000 C 
ATOM     14  C   UNL     1       1.661   4.553  19.259  0.00  0.00    +0.000 C 
ATOM     15  C   UNL     1       1.426   5.559  18.126  0.00  0.00    +0.000 C 
ATOM     16  C   UNL     1       3.049   2.536  20.033  0.00  0.00    +0.000 C 
ATOM     17  C   UNL     1       2.850   1.351  19.073  0.00  0.00    +0.000 C 
ATOM     18  C   UNL     1       2.200   2.311  18.058  0.00  0.00    +0.000 C 
BRANCH  17  19
ATOM     19  N   UNL     1       4.145   0.897  18.572  0.00  0.00    +0.000 NA
ATOM     20  H   UNL     1       4.692   0.303  19.192  0.00  0.00    +0.000 HD
ATOM     21  H   UNL     1       4.763   1.643  18.260  0.00  0.00    +0.000 HD
ENDBRANCH  17  19
ENDBRANCH   4   8
BRANCH   1  26
ATOM     22  C   UNL     1      -2.428  12.212  21.147  0.00  0.00    +0.000 A 
ATOM     23  N   UNL     1      -2.047  12.620  22.384  0.00  0.00    +0.000 NA
ATOM     24  C   UNL     1      -0.876  12.163  22.827  0.00  0.00    +0.000 A 
ATOM     25  N   UNL     1      -0.071  11.328  22.167  0.00  0.00    +0.000 NA
ATOM     26  C   UNL     1      -0.460  10.934  20.921  0.00  0.00    +0.000 A 
ATOM     27  C   UNL     1      -1.655  11.375  20.350  0.00  0.00    +0.000 A 
BRANCH  22  29
ATOM     28  C   UNL     1      -4.670  12.860  21.984  0.00  0.00    +0.000 C 
ATOM     29  C   UNL     1      -3.808  12.665  20.739  0.00  0.00    +0.000 C 
ENDBRANCH  22  29
BRANCH  27  30
ATOM     30  C   UNL     1      -2.051  11.042  19.005  0.00  0.00    +0.000 C 
ATOM     31  C   UNL     1      -2.381  10.793  17.878  0.00  0.00    +0.000 C 
BRANCH  31  32
ATOM     32  C   UNL     1      -2.762  10.520  16.526  0.00  0.00    +0.000 A 
ATOM     33  C   UNL     1      -2.126   9.532  15.782  0.00  0.00    +0.000 A 
ATOM     34  C   UNL     1      -2.512   9.324  14.456  0.00  0.00    +0.000 A 
ATOM     35  C   UNL     1      -3.517  10.117  13.913  0.00  0.00    +0.000 A 
ATOM     36  N   UNL     1      -3.921   9.938  12.593  0.00  0.00    +0.000 N 
ATOM     37  N   UNL     1      -4.164  11.057  14.619  0.00  0.00    +0.000 NA
ATOM     38  C   UNL     1      -3.780  11.232  15.912  0.00  0.00    +0.000 A 
ATOM     39  H   UNL     1      -3.140   9.973  11.951  0.00  0.00    +0.000 HD
ATOM     40  H   UNL     1      -4.612  10.657  12.393  0.00  0.00    +0.000 HD
ENDBRANCH  31  32
ENDBRANCH  27  30
ENDBRANCH   1  26
TORSDOF 6
ENDMDL
MODEL 8
REMARK VINA RESULT:      -7.9      2.392      9.587
REMARK  Name = 
REMARK  7 active torsions:
REMARK  status: ('A' for Active; 'I' for Inactive)
REMARK    1  A    between atoms: C_1  and  C_2
REMARK    2  A    between atoms: C_2  and  C_3
REMARK    3  A    between atoms: C_7  and  C_8
REMARK    4  A    between atoms: C_11  and  C_12
REMARK    5  A    between atoms: C_21  and  N_22
REMARK    6  A    between atoms: C_27  and  C_28
REMARK    7  A    between atoms: C_29  and  C_30
REMARK                            x       y       z     vdW  Elec       q    Type
REMARK                         _______ _______ _______ _____ _____    ______ ____
ROOT
ATOM      1  C   UNL     1       1.138  10.196  20.054  0.00  0.00    +0.000 A 
ATOM      2  C   UNL     1       1.101   9.328  21.152  0.00  0.00    +0.000 A 
ATOM      3  C   UNL     1       1.435   7.981  21.026  0.00  0.00    +0.000 A 
ATOM      4  C   UNL     1       1.741   7.423  19.788  0.00  0.00    +0.000 A 
ATOM      5  C   UNL     1       1.723   8.266  18.675  0.00  0.00    +0.000 A 
ATOM      6  F   UNL     1       2.033   7.817  17.450  0.00  0.00    +0.000 F 
ATOM      7  C   UNL     1       1.410   9.625  18.801  0.00  0.00    +0.000 A 
ENDROOT
BRANCH   4   8
ATOM      8  C   UNL     1       2.254   6.034  19.668  0.00  0.00    +0.000 C 
ATOM      9  O   UNL     1       1.487   5.124  19.988  0.00  0.00    +0.000 OA
ATOM     10  N   UNL     1       3.513   5.765  19.120  0.00  0.00    +0.000 N 
ATOM     11  C   UNL     1       3.789   4.411  18.657  0.00  0.00    +0.000 C 
ATOM     12  C   UNL     1       4.035   4.429  17.150  0.00  0.00    +0.000 C 
ATOM     13  C   UNL     1       5.154   5.421  16.774  0.00  0.00    +0.000 C 
ATOM     14  C   UNL     1       4.921   6.808  17.400  0.00  0.00    +0.000 C 
ATOM     15  C   UNL     1       4.628   6.686  18.900  0.00  0.00    +0.000 C 
ATOM     16  C   UNL     1       5.385   5.515  15.230  0.00  0.00    +0.000 C 
ATOM     17  C   UNL     1       6.664   4.674  15.373  0.00  0.00    +0.000 C 
ATOM     18  C   UNL     1       6.621   4.907  16.895  0.00  0.00    +0.000 C 
BRANCH  17  19
ATOM     19  N   UNL     1       6.374   3.274  15.072  0.00  0.00    +0.000 NA
ATOM     20  H   UNL     1       7.082   2.762  14.552  0.00  0.00    +0.000 HD
ATOM     21  H   UNL     1       5.489   3.120  14.593  0.00  0.00    +0.000 HD
ENDBRANCH  17  19
ENDBRANCH   4   8
BRANCH   1  26
ATOM     22  C   UNL     1       0.101  13.811  19.929  0.00  0.00    +0.000 A 
ATOM     23  N   UNL     1       0.979  14.327  20.827  0.00  0.00    +0.000 NA
ATOM     24  C   UNL     1       1.808  13.464  21.412  0.00  0.00    +0.000 A 
ATOM     25  N   UNL     1       1.827  12.146  21.205  0.00  0.00    +0.000 NA
ATOM     26  C   UNL     1       0.949  11.641  20.292  0.00  0.00    +0.000 A 
ATOM     27  C   UNL     1       0.054  12.460  19.601  0.00  0.00    +0.000 A 
BRANCH  22  29
ATOM     28  C   UNL     1      -0.139  15.924  18.655  0.00  0.00    +0.000 C 
ATOM     29  C   UNL     1      -0.888  14.809  19.380  0.00  0.00    +0.000 C 
ENDBRANCH  22  29
BRANCH  27  30
ATOM     30  C   UNL     1      -0.828  11.967  18.573  0.00  0.00    +0.000 C 
ATOM     31  C   UNL     1      -1.542  11.534  17.712  0.00  0.00    +0.000 C 
BRANCH  31  32
ATOM     32  C   UNL     1      -2.383  10.993  16.688  0.00  0.00    +0.000 A 
ATOM     33  C   UNL     1      -1.965   9.927  15.898  0.00  0.00    +0.000 A 
ATOM     34  C   UNL     1      -2.809   9.455  14.891  0.00  0.00    +0.000 A 
ATOM     35  C   UNL     1      -4.041  10.068  14.699  0.00  0.00    +0.000 A 
ATOM     36  N   UNL     1      -4.903   9.624  13.700  0.00  0.00    +0.000 N 
ATOM     37  N   UNL     1      -4.478  11.079  15.466  0.00  0.00    +0.000 NA
ATOM     38  C   UNL     1      -3.645  11.513  16.450  0.00  0.00    +0.000 A 
ATOM     39  H   UNL     1      -4.449   9.590  12.797  0.00  0.00    +0.000 HD
ATOM     40  H   UNL     1      -5.706  10.248  13.701  0.00  0.00    +0.000 HD
ENDBRANCH  31  32
ENDBRANCH  27  30
ENDBRANCH   1  26
TORSDOF 6
ENDMDL
MODEL 9
REMARK VINA RESULT:      -7.8      8.355     10.228
REMARK  Name = 
REMARK  7 active torsions:
REMARK  status: ('A' for Active; 'I' for Inactive)
REMARK    1  A    between atoms: C_1  and  C_2
REMARK    2  A    between atoms: C_2  and  C_3
REMARK    3  A    between atoms: C_7  and  C_8
REMARK    4  A    between atoms: C_11  and  C_12
REMARK    5  A    between atoms: C_21  and  N_22
REMARK    6  A    between atoms: C_27  and  C_28
REMARK    7  A    between atoms: C_29  and  C_30
REMARK                            x       y       z     vdW  Elec       q    Type
REMARK                         _______ _______ _______ _____ _____    ______ ____
ROOT
ATOM      1  C   UNL     1       6.915  15.196  18.900  0.00  0.00    +0.000 A 
ATOM      2  C   UNL     1       5.933  14.558  18.134  0.00  0.00    +0.000 A 
ATOM      3  C   UNL     1       4.652  15.090  18.005  0.00  0.00    +0.000 A 
ATOM      4  C   UNL     1       4.270  16.236  18.698  0.00  0.00    +0.000 A 
ATOM      5  C   UNL     1       5.223  16.848  19.514  0.00  0.00    +0.000 A 
ATOM      6  F   UNL     1       4.948  17.971  20.193  0.00  0.00    +0.000 F 
ATOM      7  C   UNL     1       6.519  16.329  19.628  0.00  0.00    +0.000 A 
ENDROOT
BRANCH   4   8
ATOM      8  C   UNL     1       2.966  16.899  18.442  0.00  0.00    +0.000 C 
ATOM      9  O   UNL     1       2.824  17.456  17.352  0.00  0.00    +0.000 OA
ATOM     10  N   UNL     1       1.909  16.810  19.355  0.00  0.00    +0.000 N 
ATOM     11  C   UNL     1       0.564  17.116  18.885  0.00  0.00    +0.000 C 
ATOM     12  C   UNL     1      -0.308  15.867  18.991  0.00  0.00    +0.000 C 
ATOM     13  C   UNL     1      -0.299  15.294  20.423  0.00  0.00    +0.000 C 
ATOM     14  C   UNL     1       1.134  15.120  20.958  0.00  0.00    +0.000 C 
ATOM     15  C   UNL     1       1.948  16.404  20.759  0.00  0.00    +0.000 C 
ATOM     16  C   UNL     1      -1.128  13.974  20.552  0.00  0.00    +0.000 C 
ATOM     17  C   UNL     1      -2.254  14.752  21.251  0.00  0.00    +0.000 C 
ATOM     18  C   UNL     1      -1.287  15.935  21.445  0.00  0.00    +0.000 C 
BRANCH  17  19
ATOM     19  N   UNL     1      -3.288  15.106  20.281  0.00  0.00    +0.000 NA
ATOM     20  H   UNL     1      -4.038  15.709  20.612  0.00  0.00    +0.000 HD
ATOM     21  H   UNL     1      -3.730  14.310  19.826  0.00  0.00    +0.000 HD
ENDBRANCH  17  19
ENDBRANCH   4   8
BRANCH   1  26
ATOM     22  C   UNL     1      10.262  13.643  19.642  0.00  0.00    +0.000 A 
ATOM     23  N   UNL     1      10.938  14.026  18.529  0.00  0.00    +0.000 NA
ATOM     24  C   UNL     1      10.252  14.726  17.627  0.00  0.00    +0.000 A 
ATOM     25  N   UNL     1       8.962  15.056  17.721  0.00  0.00    +0.000 NA
ATOM     26  C   UNL     1       8.297  14.676  18.848  0.00  0.00    +0.000 A 
ATOM     27  C   UNL     1       8.927  13.963  19.869  0.00  0.00    +0.000 A 
BRANCH  22  29
ATOM     28  C   UNL     1      12.047  11.928  19.775  0.00  0.00    +0.000 C 
ATOM     29  C   UNL     1      11.050  12.760  20.577  0.00  0.00    +0.000 C 
ENDBRANCH  22  29
BRANCH  27  30
ATOM     30  C   UNL     1       8.273  13.619  21.106  0.00  0.00    +0.000 C 
ATOM     31  C   UNL     1       7.712  13.312  22.121  0.00  0.00    +0.000 C 
BRANCH  31  32
ATOM     32  C   UNL     1       7.039  12.921  23.323  0.00  0.00    +0.000 A 
ATOM     33  C   UNL     1       7.375  11.747  23.989  0.00  0.00    +0.000 A 
ATOM     34  C   UNL     1       6.668  11.392  25.140  0.00  0.00    +0.000 A 
ATOM     35  C   UNL     1       5.642  12.217  25.584  0.00  0.00    +0.000 A 
ATOM     36  N   UNL     1       4.915  11.888  26.725  0.00  0.00    +0.000 N 
ATOM     37  N   UNL     1       5.318  13.368  24.975  0.00  0.00    +0.000 NA
ATOM     38  C   UNL     1       6.030  13.700  23.864  0.00  0.00    +0.000 A 
ATOM     39  H   UNL     1       4.537  10.952  26.675  0.00  0.00    +0.000 HD
ATOM     40  H   UNL     1       4.185  12.590  26.825  0.00  0.00    +0.000 HD
ENDBRANCH  31  32
ENDBRANCH  27  30
ENDBRANCH   1  26
TORSDOF 6
ENDMDL
