MODEL 1
REMARK VINA RESULT:      -8.5      0.000      0.000
REMARK  Name = 
REMARK  5 active torsions:
REMARK  status: ('A' for Active; 'I' for Inactive)
REMARK    1  A    between atoms: C_1  and  C_2
REMARK    2  A    between atoms: C_3  and  O_4
REMARK    3  A    between atoms: C_7  and  C_8
REMARK    4  A    between atoms: N_14  and  C_15
REMARK    5  A    between atoms: C_17  and  C_18
REMARK                            x       y       z     vdW  Elec       q    Type
REMARK                         _______ _______ _______ _____ _____    ______ ____
ROOT
ATOM      1  C   UNL     1       4.688   3.890  18.493  0.00  0.00    +0.000 C 
ATOM      2  C   UNL     1       5.008   4.229  17.035  0.00  0.00    +0.000 C 
ATOM      3  C   UNL     1       6.484   4.624  16.951  0.00  0.00    +0.000 C 
ATOM      4  N   UNL     1       6.786   5.723  17.878  0.00  0.00    +0.000 N 
ATOM      5  C   UNL     1       7.555   6.775  17.409  0.00  0.00    +0.000 C 
ATOM      6  O   UNL     1       7.945   6.837  16.245  0.00  0.00    +0.000 OA
ATOM      7  N   UNL     1       7.863   7.749  18.328  0.00  0.00    +0.000 N 
ATOM      8  C   UNL     1       6.397   5.483  19.276  0.00  0.00    +0.000 C 
ATOM      9  C   UNL     1       4.909   5.139  19.348  0.00  0.00    +0.000 C 
ATOM     10  H   UNL     1       7.250   7.864  19.118  0.00  0.00    +0.000 HD
ENDROOT
BRANCH   1  16
ATOM     11  C   UNL     1       1.534   4.705  17.629  0.00  0.00    +0.000 C 
ATOM     12  C   UNL     1       2.059   3.509  18.316  0.00  0.00    +0.000 A 
ATOM     13  C   UNL     1       1.387   2.356  18.769  0.00  0.00    +0.000 A 
ATOM     14  N   UNL     1       2.168   1.482  19.385  0.00  0.00    +0.000 NA
ATOM     15  O   UNL     1       3.427   2.046  19.324  0.00  0.00    +0.000 OA
ATOM     16  C   UNL     1       3.367   3.239  18.666  0.00  0.00    +0.000 A 
BRANCH  13  17
ATOM     17  O   UNL     1       0.096   2.015  18.643  0.00  0.00    +0.000 OA
ATOM     18  H   UNL     1      -0.333   2.573  17.987  0.00  0.00    +0.000 HD
ENDBRANCH  13  17
ENDBRANCH   1  16
BRANCH   7  19
ATOM     19  C   UNL     1       8.610   8.913  17.948  0.00  0.00    +0.000 C 
ATOM     20  C   UNL     1       7.936  10.149  17.440  0.00  0.00    +0.000 C 
ATOM     21  C   UNL     1       8.557  10.150  18.817  0.00  0.00    +0.000 C 
BRANCH  21  22
ATOM     22  C   UNL     1       9.820  10.931  19.080  0.00  0.00    +0.000 A 
ATOM     23  C   UNL     1      10.152  11.341  20.380  0.00  0.00    +0.000 A 
ATOM     24  C   UNL     1      11.308  12.082  20.634  0.00  0.00    +0.000 A 
ATOM     25  C   UNL     1      12.163  12.418  19.588  0.00  0.00    +0.000 A 
ATOM     26  C   UNL     1      11.871  11.995  18.294  0.00  0.00    +0.000 A 
ATOM     27  C   UNL     1      10.716  11.254  18.047  0.00  0.00    +0.000 A 
ENDBRANCH  21  22
ENDBRANCH   7  19
TORSDOF 4
ENDMDL
MODEL 2
REMARK VINA RESULT:      -8.4      0.961      1.160
REMARK  Name = 
REMARK  5 active torsions:
REMARK  status: ('A' for Active; 'I' for Inactive)
REMARK    1  A    between atoms: C_1  and  C_2
REMARK    2  A    between atoms: C_3  and  O_4
REMARK    3  A    between atoms: C_7  and  C_8
REMARK    4  A    between atoms: N_14  and  C_15
REMARK    5  A    between atoms: C_17  and  C_18
REMARK                            x       y       z     vdW  Elec       q    Type
REMARK                         _______ _______ _______ _____ _____    ______ ____
ROOT
ATOM      1  C   UNL     1       4.406   4.011  18.574  0.00  0.00    +0.000 C 
ATOM      2  C   UNL     1       4.754   4.311  17.114  0.00  0.00    +0.000 C 
ATOM      3  C   UNL     1       6.251   4.618  17.034  0.00  0.00    +0.000 C 
ATOM      4  N   UNL     1       6.612   5.710  17.948  0.00  0.00    +0.000 N 
ATOM      5  C   UNL     1       7.444   6.708  17.471  0.00  0.00    +0.000 C 
ATOM      6  O   UNL     1       7.844   6.731  16.308  0.00  0.00    +0.000 OA
ATOM      7  N   UNL     1       7.803   7.675  18.378  0.00  0.00    +0.000 N 
ATOM      8  C   UNL     1       6.202   5.512  19.346  0.00  0.00    +0.000 C 
ATOM      9  C   UNL     1       4.695   5.257  19.414  0.00  0.00    +0.000 C 
ATOM     10  H   UNL     1       7.194   7.836  19.163  0.00  0.00    +0.000 HD
ENDROOT
BRANCH   1  16
ATOM     11  C   UNL     1       2.649   2.886  21.221  0.00  0.00    +0.000 C 
ATOM     12  C   UNL     1       2.274   2.990  19.797  0.00  0.00    +0.000 A 
ATOM     13  C   UNL     1       1.057   2.681  19.156  0.00  0.00    +0.000 A 
ATOM     14  N   UNL     1       1.077   2.860  17.844  0.00  0.00    +0.000 NA
ATOM     15  O   UNL     1       2.346   3.339  17.583  0.00  0.00    +0.000 OA
ATOM     16  C   UNL     1       3.049   3.441  18.747  0.00  0.00    +0.000 A 
BRANCH  13  17
ATOM     17  O   UNL     1      -0.103   2.262  19.681  0.00  0.00    +0.000 OA
ATOM     18  H   UNL     1       0.046   1.873  20.549  0.00  0.00    +0.000 HD
ENDBRANCH  13  17
ENDBRANCH   1  16
BRANCH   7  19
ATOM     19  C   UNL     1       8.619   8.788  17.988  0.00  0.00    +0.000 C 
ATOM     20  C   UNL     1       8.037   9.998  17.328  0.00  0.00    +0.000 C 
ATOM     21  C   UNL     1       8.524  10.088  18.754  0.00  0.00    +0.000 C 
BRANCH  21  22
ATOM     22  C   UNL     1       9.781  10.855  19.080  0.00  0.00    +0.000 A 
ATOM     23  C   UNL     1      10.030  11.302  20.386  0.00  0.00    +0.000 A 
ATOM     24  C   UNL     1      11.180  12.031  20.697  0.00  0.00    +0.000 A 
ATOM     25  C   UNL     1      12.112  12.318  19.702  0.00  0.00    +0.000 A 
ATOM     26  C   UNL     1      11.902  11.859  18.406  0.00  0.00    +0.000 A 
ATOM     27  C   UNL     1      10.752  11.129  18.102  0.00  0.00    +0.000 A 
ENDBRANCH  21  22
ENDBRANCH   7  19
TORSDOF 4
ENDMDL
MODEL 3
REMARK VINA RESULT:      -7.8      1.708      2.747
REMARK  Name = 
REMARK  5 active torsions:
REMARK  status: ('A' for Active; 'I' for Inactive)
REMARK    1  A    between atoms: C_1  and  C_2
REMARK    2  A    between atoms: C_3  and  O_4
REMARK    3  A    between atoms: C_7  and  C_8
REMARK    4  A    between atoms: N_14  and  C_15
REMARK    5  A    between atoms: C_17  and  C_18
REMARK                            x       y       z     vdW  Elec       q    Type
REMARK                         _______ _______ _______ _____ _____    ______ ____
ROOT
ATOM      1  C   UNL     1       6.318   5.234  18.123  0.00  0.00    +0.000 C 
ATOM      2  C   UNL     1       5.670   6.427  17.417  0.00  0.00    +0.000 C 
ATOM      3  C   UNL     1       6.784   7.352  16.922  0.00  0.00    +0.000 C 
ATOM      4  N   UNL     1       7.666   7.747  18.028  0.00  0.00    +0.000 N 
ATOM      5  C   UNL     1       8.030   9.079  18.124  0.00  0.00    +0.000 C 
ATOM      6  O   UNL     1       7.604   9.935  17.351  0.00  0.00    +0.000 OA
ATOM      7  N   UNL     1       8.904   9.391  19.138  0.00  0.00    +0.000 N 
ATOM      8  C   UNL     1       8.230   6.632  18.804  0.00  0.00    +0.000 C 
ATOM      9  C   UNL     1       7.101   5.746  19.334  0.00  0.00    +0.000 C 
ATOM     10  H   UNL     1       8.933   8.785  19.941  0.00  0.00    +0.000 HD
ENDROOT
BRANCH   1  16
ATOM     11  C   UNL     1       3.939   3.653  16.334  0.00  0.00    +0.000 C 
ATOM     12  C   UNL     1       4.395   3.438  17.722  0.00  0.00    +0.000 A 
ATOM     13  C   UNL     1       3.984   2.482  18.673  0.00  0.00    +0.000 A 
ATOM     14  N   UNL     1       4.582   2.597  19.848  0.00  0.00    +0.000 NA
ATOM     15  O   UNL     1       5.457   3.653  19.685  0.00  0.00    +0.000 OA
ATOM     16  C   UNL     1       5.365   4.137  18.413  0.00  0.00    +0.000 A 
BRANCH  13  17
ATOM     17  O   UNL     1       3.106   1.476  18.549  0.00  0.00    +0.000 OA
ATOM     18  H   UNL     1       3.015   1.227  17.623  0.00  0.00    +0.000 HD
ENDBRANCH  13  17
ENDBRANCH   1  16
BRANCH   7  19
ATOM     19  C   UNL     1       9.314  10.746  19.369  0.00  0.00    +0.000 C 
ATOM     20  C   UNL     1       9.898  11.179  20.677  0.00  0.00    +0.000 C 
ATOM     21  C   UNL     1      10.787  11.075  19.461  0.00  0.00    +0.000 C 
BRANCH  21  22
ATOM     22  C   UNL     1      11.314  12.323  18.798  0.00  0.00    +0.000 A 
ATOM     23  C   UNL     1      11.800  12.285  17.482  0.00  0.00    +0.000 A 
ATOM     24  C   UNL     1      12.310  13.428  16.863  0.00  0.00    +0.000 A 
ATOM     25  C   UNL     1      12.333  14.639  17.550  0.00  0.00    +0.000 A 
ATOM     26  C   UNL     1      11.828  14.709  18.845  0.00  0.00    +0.000 A 
ATOM     27  C   UNL     1      11.318  13.564  19.457  0.00  0.00    +0.000 A 
ENDBRANCH  21  22
ENDBRANCH   7  19
TORSDOF 4
ENDMDL
MODEL 4
REMARK VINA RESULT:      -7.7      7.517      9.811
REMARK  Name = 
REMARK  5 active torsions:
REMARK  status: ('A' for Active; 'I' for Inactive)
REMARK    1  A    between atoms: C_1  and  C_2
REMARK    2  A    between atoms: C_3  and  O_4
REMARK    3  A    between atoms: C_7  and  C_8
REMARK    4  A    between atoms: N_14  and  C_15
REMARK    5  A    between atoms: C_17  and  C_18
REMARK                            x       y       z     vdW  Elec       q    Type
REMARK                         _______ _______ _______ _____ _____    ______ ____
ROOT
ATOM      1  C   UNL     1      -0.747  11.363  21.783  0.00  0.00    +0.000 C 
ATOM      2  C   UNL     1       0.149  11.695  20.587  0.00  0.00    +0.000 C 
ATOM      3  C   UNL     1       0.167  10.483  19.654  0.00  0.00    +0.000 C 
ATOM      4  N   UNL     1       0.591   9.274  20.374  0.00  0.00    +0.000 N 
ATOM      5  C   UNL     1       1.518   8.447  19.763  0.00  0.00    +0.000 C 
ATOM      6  O   UNL     1       2.024   8.715  18.675  0.00  0.00    +0.000 OA
ATOM      7  N   UNL     1       1.839   7.299  20.446  0.00  0.00    +0.000 N 
ATOM      8  C   UNL     1      -0.175   8.974  21.593  0.00  0.00    +0.000 C 
ATOM      9  C   UNL     1      -0.141  10.177  22.536  0.00  0.00    +0.000 C 
ATOM     10  H   UNL     1       1.714   7.292  21.445  0.00  0.00    +0.000 HD
ENDROOT
BRANCH   1  16
ATOM     11  C   UNL     1      -3.390  12.269  23.668  0.00  0.00    +0.000 C 
ATOM     12  C   UNL     1      -2.105  12.955  23.430  0.00  0.00    +0.000 A 
ATOM     13  C   UNL     1      -1.611  14.165  23.958  0.00  0.00    +0.000 A 
ATOM     14  N   UNL     1      -0.419  14.510  23.497  0.00  0.00    +0.000 NA
ATOM     15  O   UNL     1      -0.071  13.480  22.644  0.00  0.00    +0.000 OA
ATOM     16  C   UNL     1      -1.061  12.543  22.624  0.00  0.00    +0.000 A 
BRANCH  13  17
ATOM     17  O   UNL     1      -2.159  14.988  24.863  0.00  0.00    +0.000 OA
ATOM     18  H   UNL     1      -1.495  15.273  25.499  0.00  0.00    +0.000 HD
ENDBRANCH  13  17
ENDBRANCH   1  16
BRANCH   7  19
ATOM     19  C   UNL     1       2.825   6.389  19.939  0.00  0.00    +0.000 C 
ATOM     20  C   UNL     1       2.656   4.906  20.044  0.00  0.00    +0.000 C 
ATOM     21  C   UNL     1       2.524   5.578  18.698  0.00  0.00    +0.000 C 
BRANCH  21  22
ATOM     22  C   UNL     1       3.593   5.394  17.650  0.00  0.00    +0.000 A 
ATOM     23  C   UNL     1       3.982   4.110  17.240  0.00  0.00    +0.000 A 
ATOM     24  C   UNL     1       4.985   3.925  16.286  0.00  0.00    +0.000 A 
ATOM     25  C   UNL     1       5.612   5.029  15.713  0.00  0.00    +0.000 A 
ATOM     26  C   UNL     1       5.222   6.313  16.082  0.00  0.00    +0.000 A 
ATOM     27  C   UNL     1       4.218   6.491  17.034  0.00  0.00    +0.000 A 
ENDBRANCH  21  22
ENDBRANCH   7  19
TORSDOF 4
ENDMDL
MODEL 5
REMARK VINA RESULT:      -7.7      7.906     10.494
REMARK  Name = 
REMARK  5 active torsions:
REMARK  status: ('A' for Active; 'I' for Inactive)
REMARK    1  A    between atoms: C_1  and  C_2
REMARK    2  A    between atoms: C_3  and  O_4
REMARK    3  A    between atoms: C_7  and  C_8
REMARK    4  A    between atoms: N_14  and  C_15
REMARK    5  A    between atoms: C_17  and  C_18
REMARK                            x       y       z     vdW  Elec       q    Type
REMARK                         _______ _______ _______ _____ _____    ______ ____
ROOT
ATOM      1  C   UNL     1      -0.823  11.580  22.757  0.00  0.00    +0.000 C 
ATOM      2  C   UNL     1      -0.841  10.090  23.107  0.00  0.00    +0.000 C 
ATOM      3  C   UNL     1       0.492   9.481  22.669  0.00  0.00    +0.000 C 
ATOM      4  N   UNL     1       0.741   9.734  21.244  0.00  0.00    +0.000 N 
ATOM      5  C   UNL     1       1.198   8.683  20.467  0.00  0.00    +0.000 C 
ATOM      6  O   UNL     1       1.352   7.550  20.919  0.00  0.00    +0.000 OA
ATOM      7  N   UNL     1       1.474   8.982  19.155  0.00  0.00    +0.000 N 
ATOM      8  C   UNL     1       0.663  11.146  20.840  0.00  0.00    +0.000 C 
ATOM      9  C   UNL     1      -0.694  11.726  21.239  0.00  0.00    +0.000 C 
ATOM     10  H   UNL     1       1.003   9.769  18.740  0.00  0.00    +0.000 HD
ENDROOT
BRANCH   1  16
ATOM     11  C   UNL     1      -1.233  14.776  23.746  0.00  0.00    +0.000 C 
ATOM     12  C   UNL     1      -2.175  13.639  23.766  0.00  0.00    +0.000 A 
ATOM     13  C   UNL     1      -3.524  13.588  24.171  0.00  0.00    +0.000 A 
ATOM     14  N   UNL     1      -4.066  12.383  24.091  0.00  0.00    +0.000 NA
ATOM     15  O   UNL     1      -3.058  11.586  23.583  0.00  0.00    +0.000 OA
ATOM     16  C   UNL     1      -1.941  12.338  23.365  0.00  0.00    +0.000 A 
BRANCH  13  17
ATOM     17  O   UNL     1      -4.327  14.574  24.594  0.00  0.00    +0.000 OA
ATOM     18  H   UNL     1      -4.968  14.233  25.226  0.00  0.00    +0.000 HD
ENDBRANCH  13  17
ENDBRANCH   1  16
BRANCH   7  19
ATOM     19  C   UNL     1       1.904   7.964  18.240  0.00  0.00    +0.000 C 
ATOM     20  C   UNL     1       3.262   7.994  17.611  0.00  0.00    +0.000 C 
ATOM     21  C   UNL     1       2.956   6.967  18.674  0.00  0.00    +0.000 C 
BRANCH  21  22
ATOM     22  C   UNL     1       2.802   5.513  18.303  0.00  0.00    +0.000 A 
ATOM     23  C   UNL     1       3.709   4.897  17.428  0.00  0.00    +0.000 A 
ATOM     24  C   UNL     1       3.567   3.557  17.060  0.00  0.00    +0.000 A 
ATOM     25  C   UNL     1       2.514   2.803  17.573  0.00  0.00    +0.000 A 
ATOM     26  C   UNL     1       1.619   3.384  18.466  0.00  0.00    +0.000 A 
ATOM     27  C   UNL     1       1.768   4.722  18.832  0.00  0.00    +0.000 A 
ENDBRANCH  21  22
ENDBRANCH   7  19
TORSDOF 4
ENDMDL
MODEL 6
REMARK VINA RESULT:      -7.6      7.255      9.608
REMARK  Name = 
REMARK  5 active torsions:
REMARK  status: ('A' for Active; 'I' for Inactive)
REMARK    1  A    between atoms: C_1  and  C_2
REMARK    2  A    between atoms: C_3  and  O_4
REMARK    3  A    between atoms: C_7  and  C_8
REMARK    4  A    between atoms: N_14  and  C_15
REMARK    5  A    between atoms: C_17  and  C_18
REMARK                            x       y       z     vdW  Elec       q    Type
REMARK                         _______ _______ _______ _____ _____    ______ ____
ROOT
ATOM      1  C   UNL     1      -0.376  11.366  21.388  0.00  0.00    +0.000 C 
ATOM      2  C   UNL     1       0.605  11.683  20.256  0.00  0.00    +0.000 C 
ATOM      3  C   UNL     1       0.621  10.496  19.292  0.00  0.00    +0.000 C 
ATOM      4  N   UNL     1       0.943   9.250  20.000  0.00  0.00    +0.000 N 
ATOM      5  C   UNL     1       1.864   8.393  19.422  0.00  0.00    +0.000 C 
ATOM      6  O   UNL     1       2.447   8.664  18.374  0.00  0.00    +0.000 OA
ATOM      7  N   UNL     1       2.088   7.213  20.090  0.00  0.00    +0.000 N 
ATOM      8  C   UNL     1       0.091   8.957  21.163  0.00  0.00    +0.000 C 
ATOM      9  C   UNL     1       0.125  10.132  22.141  0.00  0.00    +0.000 C 
ATOM     10  H   UNL     1       1.902   7.187  21.079  0.00  0.00    +0.000 HD
ENDROOT
BRANCH   1  16
ATOM     11  C   UNL     1      -2.945  12.193  23.407  0.00  0.00    +0.000 C 
ATOM     12  C   UNL     1      -1.696  12.919  23.100  0.00  0.00    +0.000 A 
ATOM     13  C   UNL     1      -1.215  14.146  23.600  0.00  0.00    +0.000 A 
ATOM     14  N   UNL     1      -0.060  14.527  23.076  0.00  0.00    +0.000 NA
ATOM     15  O   UNL     1       0.276  13.506  22.208  0.00  0.00    +0.000 OA
ATOM     16  C   UNL     1      -0.684  12.538  22.241  0.00  0.00    +0.000 A 
BRANCH  13  17
ATOM     17  O   UNL     1      -1.741  14.954  24.531  0.00  0.00    +0.000 OA
ATOM     18  H   UNL     1      -2.522  15.397  24.185  0.00  0.00    +0.000 HD
ENDBRANCH  13  17
ENDBRANCH   1  16
BRANCH   7  19
ATOM     19  C   UNL     1       3.058   6.269  19.616  0.00  0.00    +0.000 C 
ATOM     20  C   UNL     1       2.840   4.792  19.730  0.00  0.00    +0.000 C 
ATOM     21  C   UNL     1       2.763   5.455  18.375  0.00  0.00    +0.000 C 
BRANCH  21  22
ATOM     22  C   UNL     1       3.852   5.229  17.357  0.00  0.00    +0.000 A 
ATOM     23  C   UNL     1       4.466   6.312  16.711  0.00  0.00    +0.000 A 
ATOM     24  C   UNL     1       5.461   6.117  15.751  0.00  0.00    +0.000 A 
ATOM     25  C   UNL     1       5.870   4.825  15.426  0.00  0.00    +0.000 A 
ATOM     26  C   UNL     1       5.297   3.736  16.076  0.00  0.00    +0.000 A 
ATOM     27  C   UNL     1       4.306   3.938  17.036  0.00  0.00    +0.000 A 
ENDBRANCH  21  22
ENDBRANCH   7  19
TORSDOF 4
ENDMDL
MODEL 7
REMARK VINA RESULT:      -7.5      6.384      8.855
REMARK  Name = 
REMARK  5 active torsions:
REMARK  status: ('A' for Active; 'I' for Inactive)
REMARK    1  A    between atoms: C_1  and  C_2
REMARK    2  A    between atoms: C_3  and  O_4
REMARK    3  A    between atoms: C_7  and  C_8
REMARK    4  A    between atoms: N_14  and  C_15
REMARK    5  A    between atoms: C_17  and  C_18
REMARK                            x       y       z     vdW  Elec       q    Type
REMARK                         _______ _______ _______ _____ _____    ______ ____
ROOT
ATOM      1  C   UNL     1       3.622   6.176  17.800  0.00  0.00    +0.000 C 
ATOM      2  C   UNL     1       3.604   5.950  19.314  0.00  0.00    +0.000 C 
ATOM      3  C   UNL     1       2.226   6.355  19.841  0.00  0.00    +0.000 C 
ATOM      4  N   UNL     1       1.906   7.738  19.461  0.00  0.00    +0.000 N 
ATOM      5  C   UNL     1       1.367   8.569  20.428  0.00  0.00    +0.000 C 
ATOM      6  O   UNL     1       1.195   8.202  21.590  0.00  0.00    +0.000 OA
ATOM      7  N   UNL     1       1.027   9.833  20.012  0.00  0.00    +0.000 N 
ATOM      8  C   UNL     1       2.014   8.029  18.023  0.00  0.00    +0.000 C 
ATOM      9  C   UNL     1       3.413   7.666  17.523  0.00  0.00    +0.000 C 
ATOM     10  H   UNL     1       1.503  10.210  19.209  0.00  0.00    +0.000 HD
ENDROOT
BRANCH   1  16
ATOM     11  C   UNL     1       6.845   7.096  17.447  0.00  0.00    +0.000 C 
ATOM     12  C   UNL     1       6.137   5.889  16.976  0.00  0.00    +0.000 A 
ATOM     13  C   UNL     1       6.625   4.766  16.278  0.00  0.00    +0.000 A 
ATOM     14  N   UNL     1       5.697   3.871  15.976  0.00  0.00    +0.000 NA
ATOM     15  O   UNL     1       4.535   4.388  16.515  0.00  0.00    +0.000 OA
ATOM     16  C   UNL     1       4.801   5.575  17.132  0.00  0.00    +0.000 A 
BRANCH  13  17
ATOM     17  O   UNL     1       7.879   4.470  15.906  0.00  0.00    +0.000 OA
ATOM     18  H   UNL     1       8.362   4.083  16.642  0.00  0.00    +0.000 HD
ENDBRANCH  13  17
ENDBRANCH   1  16
BRANCH   7  19
ATOM     19  C   UNL     1       0.508  10.800  20.935  0.00  0.00    +0.000 C 
ATOM     20  C   UNL     1       0.955  12.229  20.913  0.00  0.00    +0.000 C 
ATOM     21  C   UNL     1      -0.434  11.875  20.439  0.00  0.00    +0.000 C 
BRANCH  21  22
ATOM     22  C   UNL     1      -1.638  12.250  21.267  0.00  0.00    +0.000 A 
ATOM     23  C   UNL     1      -1.541  12.362  22.662  0.00  0.00    +0.000 A 
ATOM     24  C   UNL     1      -2.652  12.689  23.443  0.00  0.00    +0.000 A 
ATOM     25  C   UNL     1      -3.884  12.922  22.836  0.00  0.00    +0.000 A 
ATOM     26  C   UNL     1      -3.997  12.847  21.451  0.00  0.00    +0.000 A 
ATOM     27  C   UNL     1      -2.884  12.522  20.677  0.00  0.00    +0.000 A 
ENDBRANCH  21  22
ENDBRANCH   7  19
TORSDOF 4
ENDMDL
MODEL 8
REMARK VINA RESULT:      -7.5      7.874     10.227
REMARK  Name = 
REMARK  5 active torsions:
REMARK  status: ('A' for Active; 'I' for Inactive)
REMARK    1  A    between atoms: C_1  and  C_2
REMARK    2  A    between atoms: C_3  and  O_4
REMARK    3  A    between atoms: C_7  and  C_8
REMARK    4  A    between atoms: N_14  and  C_15
REMARK    5  A    between atoms: C_17  and  C_18
REMARK                            x       y       z     vdW  Elec       q    Type
REMARK                         _______ _______ _______ _____ _____    ______ ____
ROOT
ATOM      1  C   UNL     1      -0.821  11.521  22.785  0.00  0.00    +0.000 C 
ATOM      2  C   UNL     1      -0.876  10.040  23.168  0.00  0.00    +0.000 C 
ATOM      3  C   UNL     1       0.460   9.399  22.790  0.00  0.00    +0.000 C 
ATOM      4  N   UNL     1       0.762   9.616  21.369  0.00  0.00    +0.000 N 
ATOM      5  C   UNL     1       1.227   8.539  20.632  0.00  0.00    +0.000 C 
ATOM      6  O   UNL     1       1.347   7.415  21.114  0.00  0.00    +0.000 OA
ATOM      7  N   UNL     1       1.552   8.804  19.324  0.00  0.00    +0.000 N 
ATOM      8  C   UNL     1       0.722  11.019  20.931  0.00  0.00    +0.000 C 
ATOM      9  C   UNL     1      -0.639  11.630  21.270  0.00  0.00    +0.000 C 
ATOM     10  H   UNL     1       1.109   9.588  18.875  0.00  0.00    +0.000 HD
ENDROOT
BRANCH   1  16
ATOM     11  C   UNL     1      -1.214  14.748  23.676  0.00  0.00    +0.000 C 
ATOM     12  C   UNL     1      -2.173  13.626  23.696  0.00  0.00    +0.000 A 
ATOM     13  C   UNL     1      -3.534  13.604  24.060  0.00  0.00    +0.000 A 
ATOM     14  N   UNL     1      -4.092  12.405  23.995  0.00  0.00    +0.000 NA
ATOM     15  O   UNL     1      -3.081  11.581  23.540  0.00  0.00    +0.000 OA
ATOM     16  C   UNL     1      -1.947  12.311  23.338  0.00  0.00    +0.000 A 
BRANCH  13  17
ATOM     17  O   UNL     1      -4.336  14.612  24.431  0.00  0.00    +0.000 OA
ATOM     18  H   UNL     1      -3.812  15.387  24.658  0.00  0.00    +0.000 HD
ENDBRANCH  13  17
ENDBRANCH   1  16
BRANCH   7  19
ATOM     19  C   UNL     1       1.996   7.758  18.448  0.00  0.00    +0.000 C 
ATOM     20  C   UNL     1       3.099   7.975  17.459  0.00  0.00    +0.000 C 
ATOM     21  C   UNL     1       3.346   7.116  18.676  0.00  0.00    +0.000 C 
BRANCH  21  22
ATOM     22  C   UNL     1       3.494   5.622  18.533  0.00  0.00    +0.000 A 
ATOM     23  C   UNL     1       3.291   4.773  19.631  0.00  0.00    +0.000 A 
ATOM     24  C   UNL     1       3.444   3.390  19.518  0.00  0.00    +0.000 A 
ATOM     25  C   UNL     1       3.796   2.827  18.293  0.00  0.00    +0.000 A 
ATOM     26  C   UNL     1       3.973   3.646  17.182  0.00  0.00    +0.000 A 
ATOM     27  C   UNL     1       3.816   5.027  17.301  0.00  0.00    +0.000 A 
ENDBRANCH  21  22
ENDBRANCH   7  19
TORSDOF 4
ENDMDL
MODEL 9
REMARK VINA RESULT:      -7.4      6.360      8.942
REMARK  Name = 
REMARK  5 active torsions:
REMARK  status: ('A' for Active; 'I' for Inactive)
REMARK    1  A    between atoms: C_1  and  C_2
REMARK    2  A    between atoms: C_3  and  O_4
REMARK    3  A    between atoms: C_7  and  C_8
REMARK    4  A    between atoms: N_14  and  C_15
REMARK    5  A    between atoms: C_17  and  C_18
REMARK                            x       y       z     vdW  Elec       q    Type
REMARK                         _______ _______ _______ _____ _____    ______ ____
ROOT
ATOM      1  C   UNL     1       3.787   6.152  18.224  0.00  0.00    +0.000 C 
ATOM      2  C   UNL     1       3.530   5.918  19.715  0.00  0.00    +0.000 C 
ATOM      3  C   UNL     1       2.099   6.359  20.027  0.00  0.00    +0.000 C 
ATOM      4  N   UNL     1       1.879   7.753  19.617  0.00  0.00    +0.000 N 
ATOM      5  C   UNL     1       1.220   8.593  20.498  0.00  0.00    +0.000 C 
ATOM      6  O   UNL     1       0.862   8.225  21.615  0.00  0.00    +0.000 OA
ATOM      7  N   UNL     1       0.984   9.869  20.047  0.00  0.00    +0.000 N 
ATOM      8  C   UNL     1       2.215   8.050  18.216  0.00  0.00    +0.000 C 
ATOM      9  C   UNL     1       3.664   7.650  17.934  0.00  0.00    +0.000 C 
ATOM     10  H   UNL     1       1.588  10.237  19.331  0.00  0.00    +0.000 HD
ENDROOT
BRANCH   1  16
ATOM     11  C   UNL     1       5.276   5.895  15.211  0.00  0.00    +0.000 C 
ATOM     12  C   UNL     1       5.706   5.406  16.536  0.00  0.00    +0.000 A 
ATOM     13  C   UNL     1       6.881   4.726  16.913  0.00  0.00    +0.000 A 
ATOM     14  N   UNL     1       6.928   4.398  18.195  0.00  0.00    +0.000 NA
ATOM     15  O   UNL     1       5.753   4.900  18.720  0.00  0.00    +0.000 OA
ATOM     16  C   UNL     1       5.038   5.522  17.739  0.00  0.00    +0.000 A 
BRANCH  13  17
ATOM     17  O   UNL     1       7.950   4.393  16.175  0.00  0.00    +0.000 OA
ATOM     18  H   UNL     1       8.723   4.288  16.738  0.00  0.00    +0.000 HD
ENDBRANCH  13  17
ENDBRANCH   1  16
BRANCH   7  19
ATOM     19  C   UNL     1       0.355  10.845  20.889  0.00  0.00    +0.000 C 
ATOM     20  C   UNL     1       0.738  12.292  20.840  0.00  0.00    +0.000 C 
ATOM     21  C   UNL     1      -0.595  11.853  20.282  0.00  0.00    +0.000 C 
BRANCH  21  22
ATOM     22  C   UNL     1      -1.872  12.203  21.005  0.00  0.00    +0.000 A 
ATOM     23  C   UNL     1      -1.937  12.161  22.406  0.00  0.00    +0.000 A 
ATOM     24  C   UNL     1      -3.119  12.462  23.087  0.00  0.00    +0.000 A 
ATOM     25  C   UNL     1      -4.260  12.823  22.375  0.00  0.00    +0.000 A 
ATOM     26  C   UNL     1      -4.211  12.902  20.986  0.00  0.00    +0.000 A 
ATOM     27  C   UNL     1      -3.027  12.602  20.312  0.00  0.00    +0.000 A 
ENDBRANCH  21  22
ENDBRANCH   7  19
TORSDOF 4
ENDMDL
