MODEL 1
REMARK VINA RESULT:      -7.8      0.000      0.000
REMARK  Name = 
REMARK  9 active torsions:
REMARK  status: ('A' for Active; 'I' for Inactive)
REMARK    1  A    between atoms: C_1  and  C_2
REMARK    2  A    between atoms: C_4  and  C_5
REMARK    3  A    between atoms: C_7  and  N_8
REMARK    4  A    between atoms: C_12  and  S_13
REMARK    5  A    between atoms: S_13  and  C_14
REMARK    6  A    between atoms: C_14  and  C_15
REMARK    7  A    between atoms: C_15  and  C_17
REMARK    8  A    between atoms: C_18  and  N_19
REMARK    9  A    between atoms: N_20  and  C_21
REMARK                            x       y       z     vdW  Elec       q    Type
REMARK                         _______ _______ _______ _____ _____    ______ ____
ROOT
ATOM      1  C   UNL     1       4.418   6.402  17.157  0.00  0.00    +0.000 C 
ATOM      2  O   UNL     1       4.711   6.278  15.962  0.00  0.00    +0.000 OA
ENDROOT
BRANCH   1   3
ATOM      3  C   UNL     1       4.387   5.165  18.037  0.00  0.00    +0.000 A 
ATOM      4  C   UNL     1       3.205   4.583  18.374  0.00  0.00    +0.000 A 
ATOM      5  N   UNL     1       3.189   3.480  19.253  0.00  0.00    +0.000 N 
ATOM      6  C   UNL     1       4.354   2.875  19.717  0.00  0.00    +0.000 A 
ATOM      7  O   UNL     1       4.413   1.910  20.475  0.00  0.00    +0.000 OA
ATOM      8  N   UNL     1       5.521   3.425  19.278  0.00  0.00    +0.000 N 
ATOM      9  C   UNL     1       5.638   4.556  18.541  0.00  0.00    +0.000 A 
ATOM     10  O   UNL     1       6.747   5.027  18.315  0.00  0.00    +0.000 OA
ATOM     11  H   UNL     1       6.368   3.012  19.638  0.00  0.00    +0.000 HD
BRANCH   4  12
ATOM     12  N   UNL     1       1.995   5.050  17.858  0.00  0.00    +0.000 N 
ATOM     13  H   UNL     1       1.966   6.078  17.801  0.00  0.00    +0.000 HD
ATOM     14  H   UNL     1       1.191   4.709  18.375  0.00  0.00    +0.000 HD
ENDBRANCH   4  12
BRANCH   5  15
ATOM     15  C   UNL     1       1.893   2.919  19.621  0.00  0.00    +0.000 C 
ATOM     16  C   UNL     1       1.470   2.498  21.010  0.00  0.00    +0.000 C 
ATOM     17  C   UNL     1       0.924   3.762  20.428  0.00  0.00    +0.000 C 
ENDBRANCH   5  15
ENDBRANCH   1   3
BRANCH   1  18
ATOM     18  C   UNL     1       4.147   7.756  17.805  0.00  0.00    +0.000 C 
BRANCH  18  19
ATOM     19  S   UNL     1       2.460   8.371  17.537  0.00  0.00    +0.000 S 
BRANCH  19  24
ATOM     20  N   UNL     1       1.026   9.405  19.682  0.00  0.00    +0.000 N 
ATOM     21  C   UNL     1       0.892   9.095  21.028  0.00  0.00    +0.000 A 
ATOM     22  C   UNL     1       1.506   7.880  21.205  0.00  0.00    +0.000 A 
ATOM     23  N   UNL     1       2.069   7.439  20.036  0.00  0.00    +0.000 NA
ATOM     24  C   UNL     1       1.786   8.370  19.145  0.00  0.00    +0.000 A 
BRANCH  20  31
ATOM     25  C   UNL     1      -2.969  11.435  17.553  0.00  0.00    +0.000 C 
ATOM     26  C   UNL     1      -1.571  11.574  18.080  0.00  0.00    +0.000 A 
ATOM     27  C   UNL     1      -0.947  12.824  18.161  0.00  0.00    +0.000 A 
ATOM     28  C   UNL     1       0.350  12.940  18.674  0.00  0.00    +0.000 A 
ATOM     29  C   UNL     1       1.006  14.281  18.825  0.00  0.00    +0.000 C 
ATOM     30  C   UNL     1       1.019  11.787  19.107  0.00  0.00    +0.000 A 
ATOM     31  C   UNL     1       0.391  10.530  19.071  0.00  0.00    +0.000 A 
ATOM     32  C   UNL     1      -0.899  10.433  18.542  0.00  0.00    +0.000 A 
ENDBRANCH  20  31
ENDBRANCH  19  24
ENDBRANCH  18  19
ENDBRANCH   1  18
TORSDOF 7
ENDMDL
MODEL 2
REMARK VINA RESULT:      -7.7      3.296      8.384
REMARK  Name = 
REMARK  9 active torsions:
REMARK  status: ('A' for Active; 'I' for Inactive)
REMARK    1  A    between atoms: C_1  and  C_2
REMARK    2  A    between atoms: C_4  and  C_5
REMARK    3  A    between atoms: C_7  and  N_8
REMARK    4  A    between atoms: C_12  and  S_13
REMARK    5  A    between atoms: S_13  and  C_14
REMARK    6  A    between atoms: C_14  and  C_15
REMARK    7  A    between atoms: C_15  and  C_17
REMARK    8  A    between atoms: C_18  and  N_19
REMARK    9  A    between atoms: N_20  and  C_21
REMARK                            x       y       z     vdW  Elec       q    Type
REMARK                         _______ _______ _______ _____ _____    ______ ____
ROOT
ATOM      1  C   UNL     1       1.403   9.710  18.945  0.00  0.00    +0.000 C 
ATOM      2  O   UNL     1       2.155  10.162  18.073  0.00  0.00    +0.000 OA
ENDROOT
BRANCH   1   3
ATOM      3  C   UNL     1       0.171  10.505  19.337  0.00  0.00    +0.000 A 
ATOM      4  C   UNL     1      -0.882  10.619  18.484  0.00  0.00    +0.000 A 
ATOM      5  N   UNL     1      -1.986  11.423  18.834  0.00  0.00    +0.000 N 
ATOM      6  C   UNL     1      -2.105  12.033  20.080  0.00  0.00    +0.000 A 
ATOM      7  O   UNL     1      -3.040  12.738  20.452  0.00  0.00    +0.000 OA
ATOM      8  N   UNL     1      -1.076  11.815  20.945  0.00  0.00    +0.000 N 
ATOM      9  C   UNL     1       0.080  11.168  20.657  0.00  0.00    +0.000 A 
ATOM     10  O   UNL     1       0.990  11.147  21.478  0.00  0.00    +0.000 OA
ATOM     11  H   UNL     1      -1.140  12.282  21.836  0.00  0.00    +0.000 HD
BRANCH   4  12
ATOM     12  N   UNL     1      -0.900   9.943  17.263  0.00  0.00    +0.000 N 
ATOM     13  H   UNL     1      -1.660  10.267  16.649  0.00  0.00    +0.000 HD
ATOM     14  H   UNL     1      -0.949   8.935  17.373  0.00  0.00    +0.000 HD
ENDBRANCH   4  12
BRANCH   5  15
ATOM     15  C   UNL     1      -3.072  11.550  17.866  0.00  0.00    +0.000 C 
ATOM     16  C   UNL     1      -3.551  10.471  16.922  0.00  0.00    +0.000 C 
ATOM     17  C   UNL     1      -4.377  10.819  18.117  0.00  0.00    +0.000 C 
ENDBRANCH   5  15
ENDBRANCH   1   3
BRANCH   1  18
ATOM     18  C   UNL     1       1.625   8.351  19.601  0.00  0.00    +0.000 C 
BRANCH  18  19
ATOM     19  S   UNL     1       2.410   7.130  18.510  0.00  0.00    +0.000 S 
BRANCH  19  24
ATOM     20  N   UNL     1       3.434   4.697  19.380  0.00  0.00    +0.000 N 
ATOM     21  C   UNL     1       2.991   3.672  20.205  0.00  0.00    +0.000 A 
ATOM     22  C   UNL     1       1.859   4.140  20.825  0.00  0.00    +0.000 A 
ATOM     23  N   UNL     1       1.540   5.397  20.381  0.00  0.00    +0.000 NA
ATOM     24  C   UNL     1       2.481   5.704  19.510  0.00  0.00    +0.000 A 
BRANCH  20  31
ATOM     25  C   UNL     1       5.947   3.752  15.208  0.00  0.00    +0.000 C 
ATOM     26  C   UNL     1       5.925   4.255  16.621  0.00  0.00    +0.000 A 
ATOM     27  C   UNL     1       7.052   4.857  17.195  0.00  0.00    +0.000 A 
ATOM     28  C   UNL     1       7.010   5.339  18.507  0.00  0.00    +0.000 A 
ATOM     29  C   UNL     1       8.191   6.043  19.111  0.00  0.00    +0.000 C 
ATOM     30  C   UNL     1       5.825   5.214  19.244  0.00  0.00    +0.000 A 
ATOM     31  C   UNL     1       4.673   4.650  18.670  0.00  0.00    +0.000 A 
ATOM     32  C   UNL     1       4.739   4.161  17.362  0.00  0.00    +0.000 A 
ENDBRANCH  20  31
ENDBRANCH  19  24
ENDBRANCH  18  19
ENDBRANCH   1  18
TORSDOF 7
ENDMDL
MODEL 3
REMARK VINA RESULT:      -7.6      3.055      7.952
REMARK  Name = 
REMARK  9 active torsions:
REMARK  status: ('A' for Active; 'I' for Inactive)
REMARK    1  A    between atoms: C_1  and  C_2
REMARK    2  A    between atoms: C_4  and  C_5
REMARK    3  A    between atoms: C_7  and  N_8
REMARK    4  A    between atoms: C_12  and  S_13
REMARK    5  A    between atoms: S_13  and  C_14
REMARK    6  A    between atoms: C_14  and  C_15
REMARK    7  A    between atoms: C_15  and  C_17
REMARK    8  A    between atoms: C_18  and  N_19
REMARK    9  A    between atoms: N_20  and  C_21
REMARK                            x       y       z     vdW  Elec       q    Type
REMARK                         _______ _______ _______ _____ _____    ______ ____
ROOT
ATOM      1  C   UNL     1       1.881   8.458  18.545  0.00  0.00    +0.000 C 
ATOM      2  O   UNL     1       1.619   8.829  17.394  0.00  0.00    +0.000 OA
ENDROOT
BRANCH   1   3
ATOM      3  C   UNL     1       1.261   9.199  19.715  0.00  0.00    +0.000 A 
ATOM      4  C   UNL     1       0.999  10.531  19.631  0.00  0.00    +0.000 A 
ATOM      5  N   UNL     1       0.492  11.220  20.753  0.00  0.00    +0.000 N 
ATOM      6  C   UNL     1       0.136  10.572  21.932  0.00  0.00    +0.000 A 
ATOM      7  O   UNL     1      -0.317  11.108  22.941  0.00  0.00    +0.000 OA
ATOM      8  N   UNL     1       0.320   9.223  21.944  0.00  0.00    +0.000 N 
ATOM      9  C   UNL     1       0.916   8.494  20.969  0.00  0.00    +0.000 A 
ATOM     10  O   UNL     1       1.143   7.302  21.148  0.00  0.00    +0.000 OA
ATOM     11  H   UNL     1       0.095   8.753  22.808  0.00  0.00    +0.000 HD
BRANCH   4  12
ATOM     12  N   UNL     1       1.213  11.238  18.447  0.00  0.00    +0.000 N 
ATOM     13  H   UNL     1       2.214  11.372  18.248  0.00  0.00    +0.000 HD
ATOM     14  H   UNL     1       0.735  12.134  18.433  0.00  0.00    +0.000 HD
ENDBRANCH   4  12
BRANCH   5  15
ATOM     15  C   UNL     1       0.271  12.658  20.628  0.00  0.00    +0.000 C 
ATOM     16  C   UNL     1       0.150  13.640  21.772  0.00  0.00    +0.000 C 
ATOM     17  C   UNL     1       1.403  13.612  20.957  0.00  0.00    +0.000 C 
ENDBRANCH   5  15
ENDBRANCH   1   3
BRANCH   1  18
ATOM     18  C   UNL     1       2.753   7.242  18.841  0.00  0.00    +0.000 C 
BRANCH  18  19
ATOM     19  S   UNL     1       2.112   5.693  18.143  0.00  0.00    +0.000 S 
BRANCH  19  24
ATOM     20  N   UNL     1       4.218   3.976  18.725  0.00  0.00    +0.000 N 
ATOM     21  C   UNL     1       4.411   2.891  19.569  0.00  0.00    +0.000 A 
ATOM     22  C   UNL     1       3.312   2.844  20.391  0.00  0.00    +0.000 A 
ATOM     23  N   UNL     1       2.410   3.822  20.061  0.00  0.00    +0.000 NA
ATOM     24  C   UNL     1       2.962   4.475  19.056  0.00  0.00    +0.000 A 
BRANCH  20  31
ATOM     25  C   UNL     1       6.252   3.920  14.200  0.00  0.00    +0.000 C 
ATOM     26  C   UNL     1       6.197   4.487  15.588  0.00  0.00    +0.000 A 
ATOM     27  C   UNL     1       6.971   5.596  15.951  0.00  0.00    +0.000 A 
ATOM     28  C   UNL     1       6.893   6.125  17.243  0.00  0.00    +0.000 A 
ATOM     29  C   UNL     1       7.670   7.351  17.625  0.00  0.00    +0.000 C 
ATOM     30  C   UNL     1       6.029   5.532  18.174  0.00  0.00    +0.000 A 
ATOM     31  C   UNL     1       5.215   4.445  17.814  0.00  0.00    +0.000 A 
ATOM     32  C   UNL     1       5.318   3.921  16.522  0.00  0.00    +0.000 A 
ENDBRANCH  20  31
ENDBRANCH  19  24
ENDBRANCH  18  19
ENDBRANCH   1  18
TORSDOF 7
ENDMDL
MODEL 4
REMARK VINA RESULT:      -7.5      2.960      8.053
REMARK  Name = 
REMARK  9 active torsions:
REMARK  status: ('A' for Active; 'I' for Inactive)
REMARK    1  A    between atoms: C_1  and  C_2
REMARK    2  A    between atoms: C_4  and  C_5
REMARK    3  A    between atoms: C_7  and  N_8
REMARK    4  A    between atoms: C_12  and  S_13
REMARK    5  A    between atoms: S_13  and  C_14
REMARK    6  A    between atoms: C_14  and  C_15
REMARK    7  A    between atoms: C_15  and  C_17
REMARK    8  A    between atoms: C_18  and  N_19
REMARK    9  A    between atoms: N_20  and  C_21
REMARK                            x       y       z     vdW  Elec       q    Type
REMARK                         _______ _______ _______ _____ _____    ______ ____
ROOT
ATOM      1  C   UNL     1       1.782   7.637  19.965  0.00  0.00    +0.000 C 
ATOM      2  O   UNL     1       1.419   7.038  20.984  0.00  0.00    +0.000 OA
ENDROOT
BRANCH   1   3
ATOM      3  C   UNL     1       1.320   9.067  19.751  0.00  0.00    +0.000 A 
ATOM      4  C   UNL     1       0.952   9.843  20.806  0.00  0.00    +0.000 A 
ATOM      5  N   UNL     1       0.454  11.143  20.583  0.00  0.00    +0.000 N 
ATOM      6  C   UNL     1       0.421  11.727  19.319  0.00  0.00    +0.000 A 
ATOM      7  O   UNL     1       0.009  12.854  19.056  0.00  0.00    +0.000 OA
ATOM      8  N   UNL     1       0.890  10.955  18.300  0.00  0.00    +0.000 N 
ATOM      9  C   UNL     1       1.267   9.657  18.394  0.00  0.00    +0.000 A 
ATOM     10  O   UNL     1       1.550   9.026  17.382  0.00  0.00    +0.000 OA
ATOM     11  H   UNL     1       0.838  11.360  17.377  0.00  0.00    +0.000 HD
BRANCH   4  12
ATOM     12  N   UNL     1       1.066   9.381  22.118  0.00  0.00    +0.000 N 
ATOM     13  H   UNL     1       1.261   8.371  22.160  0.00  0.00    +0.000 HD
ATOM     14  H   UNL     1       0.251   9.600  22.682  0.00  0.00    +0.000 HD
ENDBRANCH   4  12
BRANCH   5  15
ATOM     15  C   UNL     1       0.029  11.920  21.744  0.00  0.00    +0.000 C 
ATOM     16  C   UNL     1      -0.984  13.042  21.738  0.00  0.00    +0.000 C 
ATOM     17  C   UNL     1      -1.366  11.712  22.303  0.00  0.00    +0.000 C 
ENDBRANCH   5  15
ENDBRANCH   1   3
BRANCH   1  18
ATOM     18  C   UNL     1       2.729   7.023  18.940  0.00  0.00    +0.000 C 
BRANCH  18  19
ATOM     19  S   UNL     1       2.123   5.469  18.222  0.00  0.00    +0.000 S 
BRANCH  19  24
ATOM     20  N   UNL     1       4.248   3.797  18.866  0.00  0.00    +0.000 N 
ATOM     21  C   UNL     1       4.433   2.703  19.701  0.00  0.00    +0.000 A 
ATOM     22  C   UNL     1       3.302   2.614  20.474  0.00  0.00    +0.000 A 
ATOM     23  N   UNL     1       2.389   3.574  20.121  0.00  0.00    +0.000 NA
ATOM     24  C   UNL     1       2.966   4.258  19.151  0.00  0.00    +0.000 A 
BRANCH  20  31
ATOM     25  C   UNL     1       6.308   4.080  14.363  0.00  0.00    +0.000 C 
ATOM     26  C   UNL     1       6.267   4.516  15.797  0.00  0.00    +0.000 A 
ATOM     27  C   UNL     1       7.085   5.551  16.265  0.00  0.00    +0.000 A 
ATOM     28  C   UNL     1       7.021   5.959  17.601  0.00  0.00    +0.000 A 
ATOM     29  C   UNL     1       7.846   7.110  18.100  0.00  0.00    +0.000 C 
ATOM     30  C   UNL     1       6.127   5.319  18.470  0.00  0.00    +0.000 A 
ATOM     31  C   UNL     1       5.269   4.306  18.007  0.00  0.00    +0.000 A 
ATOM     32  C   UNL     1       5.359   3.902  16.672  0.00  0.00    +0.000 A 
ENDBRANCH  20  31
ENDBRANCH  19  24
ENDBRANCH  18  19
ENDBRANCH   1  18
TORSDOF 7
ENDMDL
MODEL 5
REMARK VINA RESULT:      -7.5      3.454      8.592
REMARK  Name = 
REMARK  9 active torsions:
REMARK  status: ('A' for Active; 'I' for Inactive)
REMARK    1  A    between atoms: C_1  and  C_2
REMARK    2  A    between atoms: C_4  and  C_5
REMARK    3  A    between atoms: C_7  and  N_8
REMARK    4  A    between atoms: C_12  and  S_13
REMARK    5  A    between atoms: S_13  and  C_14
REMARK    6  A    between atoms: C_14  and  C_15
REMARK    7  A    between atoms: C_15  and  C_17
REMARK    8  A    between atoms: C_18  and  N_19
REMARK    9  A    between atoms: N_20  and  C_21
REMARK                            x       y       z     vdW  Elec       q    Type
REMARK                         _______ _______ _______ _____ _____    ______ ____
ROOT
ATOM      1  C   UNL     1       1.168   9.802  18.694  0.00  0.00    +0.000 C 
ATOM      2  O   UNL     1       1.947  10.244  17.841  0.00  0.00    +0.000 OA
ENDROOT
BRANCH   1   3
ATOM      3  C   UNL     1      -0.077  10.601  19.036  0.00  0.00    +0.000 A 
ATOM      4  C   UNL     1      -0.090  11.439  20.107  0.00  0.00    +0.000 A 
ATOM      5  N   UNL     1      -1.277  12.117  20.455  0.00  0.00    +0.000 N 
ATOM      6  C   UNL     1      -2.430  12.055  19.678  0.00  0.00    +0.000 A 
ATOM      7  O   UNL     1      -3.493  12.624  19.918  0.00  0.00    +0.000 OA
ATOM      8  N   UNL     1      -2.348  11.285  18.559  0.00  0.00    +0.000 N 
ATOM      9  C   UNL     1      -1.300  10.498  18.210  0.00  0.00    +0.000 A 
ATOM     10  O   UNL     1      -1.393   9.747  17.245  0.00  0.00    +0.000 OA
ATOM     11  H   UNL     1      -3.191  11.209  18.010  0.00  0.00    +0.000 HD
BRANCH   4  12
ATOM     12  N   UNL     1       1.058  11.654  20.873  0.00  0.00    +0.000 N 
ATOM     13  H   UNL     1       0.942  12.430  21.539  0.00  0.00    +0.000 HD
ATOM     14  H   UNL     1       1.885  11.805  20.304  0.00  0.00    +0.000 HD
ENDBRANCH   4  12
BRANCH   5  15
ATOM     15  C   UNL     1      -1.254  12.969  21.640  0.00  0.00    +0.000 C 
ATOM     16  C   UNL     1      -2.423  13.244  22.559  0.00  0.00    +0.000 C 
ATOM     17  C   UNL     1      -1.332  12.329  23.014  0.00  0.00    +0.000 C 
ENDBRANCH   5  15
ENDBRANCH   1   3
BRANCH   1  18
ATOM     18  C   UNL     1       1.369   8.453  19.375  0.00  0.00    +0.000 C 
BRANCH  18  19
ATOM     19  S   UNL     1       2.571   7.381  18.535  0.00  0.00    +0.000 S 
BRANCH  19  24
ATOM     20  N   UNL     1       3.430   4.869  19.357  0.00  0.00    +0.000 N 
ATOM     21  C   UNL     1       2.916   3.857  20.156  0.00  0.00    +0.000 A 
ATOM     22  C   UNL     1       1.811   4.382  20.778  0.00  0.00    +0.000 A 
ATOM     23  N   UNL     1       1.576   5.666  20.361  0.00  0.00    +0.000 NA
ATOM     24  C   UNL     1       2.543   5.932  19.503  0.00  0.00    +0.000 A 
BRANCH  20  31
ATOM     25  C   UNL     1       5.919   3.806  15.200  0.00  0.00    +0.000 C 
ATOM     26  C   UNL     1       5.914   4.305  16.614  0.00  0.00    +0.000 A 
ATOM     27  C   UNL     1       7.067   4.844  17.197  0.00  0.00    +0.000 A 
ATOM     28  C   UNL     1       7.042   5.324  18.511  0.00  0.00    +0.000 A 
ATOM     29  C   UNL     1       8.254   5.962  19.125  0.00  0.00    +0.000 C 
ATOM     30  C   UNL     1       5.846   5.259  19.239  0.00  0.00    +0.000 A 
ATOM     31  C   UNL     1       4.670   4.759  18.655  0.00  0.00    +0.000 A 
ATOM     32  C   UNL     1       4.719   4.271  17.347  0.00  0.00    +0.000 A 
ENDBRANCH  20  31
ENDBRANCH  19  24
ENDBRANCH  18  19
ENDBRANCH   1  18
TORSDOF 7
ENDMDL
MODEL 6
REMARK VINA RESULT:      -7.4      3.077      8.097
REMARK  Name = 
REMARK  9 active torsions:
REMARK  status: ('A' for Active; 'I' for Inactive)
REMARK    1  A    between atoms: C_1  and  C_2
REMARK    2  A    between atoms: C_4  and  C_5
REMARK    3  A    between atoms: C_7  and  N_8
REMARK    4  A    between atoms: C_12  and  S_13
REMARK    5  A    between atoms: S_13  and  C_14
REMARK    6  A    between atoms: C_14  and  C_15
REMARK    7  A    between atoms: C_15  and  C_17
REMARK    8  A    between atoms: C_18  and  N_19
REMARK    9  A    between atoms: N_20  and  C_21
REMARK                            x       y       z     vdW  Elec       q    Type
REMARK                         _______ _______ _______ _____ _____    ______ ____
ROOT
ATOM      1  C   UNL     1       1.975   8.269  19.269  0.00  0.00    +0.000 C 
ATOM      2  O   UNL     1       2.534   8.650  18.233  0.00  0.00    +0.000 OA
ENDROOT
BRANCH   1   3
ATOM      3  C   UNL     1       1.052   9.227  20.000  0.00  0.00    +0.000 A 
ATOM      4  C   UNL     1       0.219  10.051  19.310  0.00  0.00    +0.000 A 
ATOM      5  N   UNL     1      -0.577  10.987  20.002  0.00  0.00    +0.000 N 
ATOM      6  C   UNL     1      -0.636  11.038  21.392  0.00  0.00    +0.000 A 
ATOM      7  O   UNL     1      -1.312  11.820  22.057  0.00  0.00    +0.000 OA
ATOM      8  N   UNL     1       0.137  10.131  22.050  0.00  0.00    +0.000 N 
ATOM      9  C   UNL     1       1.027   9.282  21.479  0.00  0.00    +0.000 A 
ATOM     10  O   UNL     1       1.762   8.601  22.185  0.00  0.00    +0.000 OA
ATOM     11  H   UNL     1       0.123  10.185  23.057  0.00  0.00    +0.000 HD
BRANCH   4  12
ATOM     12  N   UNL     1       0.126   9.985  17.918  0.00  0.00    +0.000 N 
ATOM     13  H   UNL     1      -0.850   9.954  17.594  0.00  0.00    +0.000 HD
ATOM     14  H   UNL     1       0.646   9.206  17.528  0.00  0.00    +0.000 HD
ENDBRANCH   4  12
BRANCH   5  15
ATOM     15  C   UNL     1      -1.420  11.881  19.214  0.00  0.00    +0.000 C 
ATOM     16  C   UNL     1      -1.929  13.236  19.650  0.00  0.00    +0.000 C 
ATOM     17  C   UNL     1      -0.822  13.156  18.649  0.00  0.00    +0.000 C 
ENDBRANCH   5  15
ENDBRANCH   1   3
BRANCH   1  18
ATOM     18  C   UNL     1       2.123   6.852  19.812  0.00  0.00    +0.000 C 
BRANCH  18  19
ATOM     19  S   UNL     1       2.183   5.576  18.522  0.00  0.00    +0.000 S 
BRANCH  19  24
ATOM     20  N   UNL     1       4.272   3.778  18.876  0.00  0.00    +0.000 N 
ATOM     21  C   UNL     1       4.476   2.628  19.628  0.00  0.00    +0.000 A 
ATOM     22  C   UNL     1       3.414   2.542  20.493  0.00  0.00    +0.000 A 
ATOM     23  N   UNL     1       2.522   3.560  20.278  0.00  0.00    +0.000 NA
ATOM     24  C   UNL     1       3.044   4.275  19.301  0.00  0.00    +0.000 A 
BRANCH  20  31
ATOM     25  C   UNL     1       6.110   4.012  14.275  0.00  0.00    +0.000 C 
ATOM     26  C   UNL     1       6.125   4.479  15.700  0.00  0.00    +0.000 A 
ATOM     27  C   UNL     1       6.936   5.545  16.106  0.00  0.00    +0.000 A 
ATOM     28  C   UNL     1       6.924   5.982  17.435  0.00  0.00    +0.000 A 
ATOM     29  C   UNL     1       7.741   7.164  17.869  0.00  0.00    +0.000 C 
ATOM     30  C   UNL     1       6.089   5.339  18.359  0.00  0.00    +0.000 A 
ATOM     31  C   UNL     1       5.238   4.294  17.958  0.00  0.00    +0.000 A 
ATOM     32  C   UNL     1       5.276   3.862  16.630  0.00  0.00    +0.000 A 
ENDBRANCH  20  31
ENDBRANCH  19  24
ENDBRANCH  18  19
ENDBRANCH   1  18
TORSDOF 7
ENDMDL
MODEL 7
REMARK VINA RESULT:      -7.4      3.486      8.638
REMARK  Name = 
REMARK  9 active torsions:
REMARK  status: ('A' for Active; 'I' for Inactive)
REMARK    1  A    between atoms: C_1  and  C_2
REMARK    2  A    between atoms: C_4  and  C_5
REMARK    3  A    between atoms: C_7  and  N_8
REMARK    4  A    between atoms: C_12  and  S_13
REMARK    5  A    between atoms: S_13  and  C_14
REMARK    6  A    between atoms: C_14  and  C_15
REMARK    7  A    between atoms: C_15  and  C_17
REMARK    8  A    between atoms: C_18  and  N_19
REMARK    9  A    between atoms: N_20  and  C_21
REMARK                            x       y       z     vdW  Elec       q    Type
REMARK                         _______ _______ _______ _____ _____    ______ ____
ROOT
ATOM      1  C   UNL     1       1.148  10.180  19.099  0.00  0.00    +0.000 C 
ATOM      2  O   UNL     1       1.946  10.720  18.323  0.00  0.00    +0.000 OA
ENDROOT
BRANCH   1   3
ATOM      3  C   UNL     1      -0.162  10.881  19.410  0.00  0.00    +0.000 A 
ATOM      4  C   UNL     1      -1.180  10.881  18.509  0.00  0.00    +0.000 A 
ATOM      5  N   UNL     1      -2.362  11.600  18.783  0.00  0.00    +0.000 N 
ATOM      6  C   UNL     1      -2.588  12.234  20.002  0.00  0.00    +0.000 A 
ATOM      7  O   UNL     1      -3.594  12.868  20.309  0.00  0.00    +0.000 OA
ATOM      8  N   UNL     1      -1.586  12.129  20.918  0.00  0.00    +0.000 N 
ATOM      9  C   UNL     1      -0.368  11.572  20.703  0.00  0.00    +0.000 A 
ATOM     10  O   UNL     1       0.502  11.652  21.563  0.00  0.00    +0.000 OA
ATOM     11  H   UNL     1      -1.730  12.614  21.790  0.00  0.00    +0.000 HD
BRANCH   4  12
ATOM     12  N   UNL     1      -1.086  10.171  17.311  0.00  0.00    +0.000 N 
ATOM     13  H   UNL     1      -1.895   9.553  17.159  0.00  0.00    +0.000 HD
ATOM     14  H   UNL     1      -0.225   9.639  17.238  0.00  0.00    +0.000 HD
ENDBRANCH   4  12
BRANCH   5  15
ATOM     15  C   UNL     1      -3.408  11.607  17.765  0.00  0.00    +0.000 C 
ATOM     16  C   UNL     1      -3.747  10.467  16.831  0.00  0.00    +0.000 C 
ATOM     17  C   UNL     1      -4.655  10.770  17.979  0.00  0.00    +0.000 C 
ENDBRANCH   5  15
ENDBRANCH   1   3
BRANCH   1  18
ATOM     18  C   UNL     1       1.395   8.805  19.710  0.00  0.00    +0.000 C 
BRANCH  18  19
ATOM     19  S   UNL     1       2.364   7.695  18.649  0.00  0.00    +0.000 S 
BRANCH  19  24
ATOM     20  N   UNL     1       3.371   5.213  19.387  0.00  0.00    +0.000 N 
ATOM     21  C   UNL     1       2.937   4.163  20.185  0.00  0.00    +0.000 A 
ATOM     22  C   UNL     1       1.834   4.623  20.860  0.00  0.00    +0.000 A 
ATOM     23  N   UNL     1       1.524   5.902  20.477  0.00  0.00    +0.000 NA
ATOM     24  C   UNL     1       2.441   6.229  19.588  0.00  0.00    +0.000 A 
BRANCH  20  31
ATOM     25  C   UNL     1       8.318   5.546  19.221  0.00  0.00    +0.000 C 
ATOM     26  C   UNL     1       7.015   5.269  18.531  0.00  0.00    +0.000 A 
ATOM     27  C   UNL     1       6.977   4.788  17.217  0.00  0.00    +0.000 A 
ATOM     28  C   UNL     1       5.755   4.516  16.594  0.00  0.00    +0.000 A 
ATOM     29  C   UNL     1       5.703   3.941  15.209  0.00  0.00    +0.000 C 
ATOM     30  C   UNL     1       4.564   4.731  17.302  0.00  0.00    +0.000 A 
ATOM     31  C   UNL     1       4.586   5.174  18.635  0.00  0.00    +0.000 A 
ATOM     32  C   UNL     1       5.817   5.454  19.235  0.00  0.00    +0.000 A 
ENDBRANCH  20  31
ENDBRANCH  19  24
ENDBRANCH  18  19
ENDBRANCH   1  18
TORSDOF 7
ENDMDL
MODEL 8
REMARK VINA RESULT:      -7.4      3.076      8.146
REMARK  Name = 
REMARK  9 active torsions:
REMARK  status: ('A' for Active; 'I' for Inactive)
REMARK    1  A    between atoms: C_1  and  C_2
REMARK    2  A    between atoms: C_4  and  C_5
REMARK    3  A    between atoms: C_7  and  N_8
REMARK    4  A    between atoms: C_12  and  S_13
REMARK    5  A    between atoms: S_13  and  C_14
REMARK    6  A    between atoms: C_14  and  C_15
REMARK    7  A    between atoms: C_15  and  C_17
REMARK    8  A    between atoms: C_18  and  N_19
REMARK    9  A    between atoms: N_20  and  C_21
REMARK                            x       y       z     vdW  Elec       q    Type
REMARK                         _______ _______ _______ _____ _____    ______ ____
ROOT
ATOM      1  C   UNL     1       1.927   8.349  19.231  0.00  0.00    +0.000 C 
ATOM      2  O   UNL     1       2.564   8.669  18.221  0.00  0.00    +0.000 OA
ENDROOT
BRANCH   1   3
ATOM      3  C   UNL     1       0.962   9.351  19.839  0.00  0.00    +0.000 A 
ATOM      4  C   UNL     1       0.144  10.094  19.046  0.00  0.00    +0.000 A 
ATOM      5  N   UNL     1      -0.692  11.073  19.621  0.00  0.00    +0.000 N 
ATOM      6  C   UNL     1      -0.807  11.246  20.998  0.00  0.00    +0.000 A 
ATOM      7  O   UNL     1      -1.520  12.071  21.564  0.00  0.00    +0.000 OA
ATOM      8  N   UNL     1      -0.047  10.416  21.763  0.00  0.00    +0.000 N 
ATOM      9  C   UNL     1       0.878   9.537  21.304  0.00  0.00    +0.000 A 
ATOM     10  O   UNL     1       1.595   8.934  22.095  0.00  0.00    +0.000 OA
ATOM     11  H   UNL     1      -0.100  10.559  22.760  0.00  0.00    +0.000 HD
BRANCH   4  12
ATOM     12  N   UNL     1       0.106   9.903  17.664  0.00  0.00    +0.000 N 
ATOM     13  H   UNL     1      -0.561   9.169  17.390  0.00  0.00    +0.000 HD
ATOM     14  H   UNL     1       1.021   9.705  17.271  0.00  0.00    +0.000 HD
ENDBRANCH   4  12
BRANCH   5  15
ATOM     15  C   UNL     1      -1.518  11.877  18.725  0.00  0.00    +0.000 C 
ATOM     16  C   UNL     1      -2.281  11.367  17.523  0.00  0.00    +0.000 C 
ATOM     17  C   UNL     1      -3.027  11.721  18.769  0.00  0.00    +0.000 C 
ENDBRANCH   5  15
ENDBRANCH   1   3
BRANCH   1  18
ATOM     18  C   UNL     1       2.021   6.963  19.860  0.00  0.00    +0.000 C 
BRANCH  18  19
ATOM     19  S   UNL     1       1.896   5.605  18.661  0.00  0.00    +0.000 S 
BRANCH  19  24
ATOM     20  N   UNL     1       4.135   3.975  18.898  0.00  0.00    +0.000 N 
ATOM     21  C   UNL     1       4.458   2.830  19.613  0.00  0.00    +0.000 A 
ATOM     22  C   UNL     1       3.439   2.639  20.513  0.00  0.00    +0.000 A 
ATOM     23  N   UNL     1       2.461   3.585  20.355  0.00  0.00    +0.000 NA
ATOM     24  C   UNL     1       2.887   4.362  19.378  0.00  0.00    +0.000 A 
BRANCH  20  31
ATOM     25  C   UNL     1       7.790   7.185  17.923  0.00  0.00    +0.000 C 
ATOM     26  C   UNL     1       6.855   6.107  17.459  0.00  0.00    +0.000 A 
ATOM     27  C   UNL     1       6.962   5.555  16.177  0.00  0.00    +0.000 A 
ATOM     28  C   UNL     1       6.095   4.537  15.766  0.00  0.00    +0.000 A 
ATOM     29  C   UNL     1       6.241   3.894  14.418  0.00  0.00    +0.000 C 
ATOM     30  C   UNL     1       5.115   4.073  16.655  0.00  0.00    +0.000 A 
ATOM     31  C   UNL     1       5.021   4.588  17.959  0.00  0.00    +0.000 A 
ATOM     32  C   UNL     1       5.886   5.615  18.346  0.00  0.00    +0.000 A 
ENDBRANCH  20  31
ENDBRANCH  19  24
ENDBRANCH  18  19
ENDBRANCH   1  18
TORSDOF 7
ENDMDL
MODEL 9
REMARK VINA RESULT:      -7.3      2.648      7.498
REMARK  Name = 
REMARK  9 active torsions:
REMARK  status: ('A' for Active; 'I' for Inactive)
REMARK    1  A    between atoms: C_1  and  C_2
REMARK    2  A    between atoms: C_4  and  C_5
REMARK    3  A    between atoms: C_7  and  N_8
REMARK    4  A    between atoms: C_12  and  S_13
REMARK    5  A    between atoms: S_13  and  C_14
REMARK    6  A    between atoms: C_14  and  C_15
REMARK    7  A    between atoms: C_15  and  C_17
REMARK    8  A    between atoms: C_18  and  N_19
REMARK    9  A    between atoms: N_20  and  C_21
REMARK                            x       y       z     vdW  Elec       q    Type
REMARK                         _______ _______ _______ _____ _____    ______ ____
ROOT
ATOM      1  C   UNL     1       2.632   6.943  19.075  0.00  0.00    +0.000 C 
ATOM      2  O   UNL     1       3.356   6.585  20.011  0.00  0.00    +0.000 OA
ENDROOT
BRANCH   1   3
ATOM      3  C   UNL     1       1.800   8.204  19.230  0.00  0.00    +0.000 A 
ATOM      4  C   UNL     1       1.072   8.420  20.358  0.00  0.00    +0.000 A 
ATOM      5  N   UNL     1       0.247   9.559  20.454  0.00  0.00    +0.000 N 
ATOM      6  C   UNL     1       0.222  10.552  19.478  0.00  0.00    +0.000 A 
ATOM      7  O   UNL     1      -0.465  11.570  19.502  0.00  0.00    +0.000 OA
ATOM      8  N   UNL     1       1.040  10.349  18.408  0.00  0.00    +0.000 N 
ATOM      9  C   UNL     1       1.769   9.232  18.166  0.00  0.00    +0.000 A 
ATOM     10  O   UNL     1       2.367   9.111  17.103  0.00  0.00    +0.000 OA
ATOM     11  H   UNL     1       1.001  11.048  17.682  0.00  0.00    +0.000 HD
BRANCH   4  12
ATOM     12  N   UNL     1       1.130   7.536  21.437  0.00  0.00    +0.000 N 
ATOM     13  H   UNL     1       0.299   7.603  22.040  0.00  0.00    +0.000 HD
ATOM     14  H   UNL     1       1.972   7.652  21.993  0.00  0.00    +0.000 HD
ENDBRANCH   4  12
BRANCH   5  15
ATOM     15  C   UNL     1      -0.551   9.724  21.666  0.00  0.00    +0.000 C 
ATOM     16  C   UNL     1      -0.036   9.646  23.086  0.00  0.00    +0.000 C 
ATOM     17  C   UNL     1      -0.377  10.978  22.501  0.00  0.00    +0.000 C 
ENDBRANCH   5  15
ENDBRANCH   1   3
BRANCH   1  18
ATOM     18  C   UNL     1       2.584   6.206  17.741  0.00  0.00    +0.000 C 
BRANCH  18  19
ATOM     19  S   UNL     1       1.806   4.568  17.837  0.00  0.00    +0.000 S 
BRANCH  19  24
ATOM     20  N   UNL     1       4.182   3.507  18.811  0.00  0.00    +0.000 N 
ATOM     21  C   UNL     1       4.534   2.621  19.821  0.00  0.00    +0.000 A 
ATOM     22  C   UNL     1       3.398   2.417  20.565  0.00  0.00    +0.000 A 
ATOM     23  N   UNL     1       2.333   3.094  20.031  0.00  0.00    +0.000 NA
ATOM     24  C   UNL     1       2.817   3.724  18.978  0.00  0.00    +0.000 A 
BRANCH  20  31
ATOM     25  C   UNL     1       5.865   4.116  14.185  0.00  0.00    +0.000 C 
ATOM     26  C   UNL     1       5.943   4.449  15.645  0.00  0.00    +0.000 A 
ATOM     27  C   UNL     1       6.798   5.452  16.116  0.00  0.00    +0.000 A 
ATOM     28  C   UNL     1       6.845   5.765  17.479  0.00  0.00    +0.000 A 
ATOM     29  C   UNL     1       7.710   6.881  17.988  0.00  0.00    +0.000 C 
ATOM     30  C   UNL     1       6.024   5.061  18.370  0.00  0.00    +0.000 A 
ATOM     31  C   UNL     1       5.130   4.080  17.909  0.00  0.00    +0.000 A 
ATOM     32  C   UNL     1       5.109   3.772  16.546  0.00  0.00    +0.000 A 
ENDBRANCH  20  31
ENDBRANCH  19  24
ENDBRANCH  18  19
ENDBRANCH   1  18
TORSDOF 7
ENDMDL
