MODEL 1
REMARK VINA RESULT:      -6.2      0.000      0.000
REMARK  Name = 
REMARK  1 active torsions:
REMARK  status: ('A' for Active; 'I' for Inactive)
REMARK    1  A    between atoms: C_2  and  C_3
REMARK                            x       y       z     vdW  Elec       q    Type
REMARK                         _______ _______ _______ _____ _____    ______ ____
ROOT
ATOM      1  O   UNL     1       0.355  10.849  21.885  0.00  0.00    +0.000 OA
ATOM      2  C   UNL     1       0.619  10.827  20.686  0.00  0.00    +0.000 C 
ATOM      3  N   UNL     1       0.894   9.606  20.054  0.00  0.00    +0.000 N 
ATOM      4  C   UNL     1       1.301   9.406  18.651  0.00  0.00    +0.000 C 
ATOM      5  C   UNL     1       2.405   8.345  18.450  0.00  0.00    +0.000 C 
ATOM      6  N   UNL     1       2.217   7.167  19.305  0.00  0.00    +0.000 N 
ATOM      7  C   UNL     1       2.345   5.929  18.727  0.00  0.00    +0.000 C 
ATOM      8  O   UNL     1       2.769   5.852  17.567  0.00  0.00    +0.000 OA
ATOM      9  N   UNL     1       2.004   4.774  19.389  0.00  0.00    +0.000 N 
ATOM     10  C   UNL     1       1.282   4.544  20.644  0.00  0.00    +0.000 C 
ATOM     11  C   UNL     1       2.145   3.658  21.550  0.00  0.00    +0.000 C 
ATOM     12  O   UNL     1       2.356   2.381  20.921  0.00  0.00    +0.000 OA
ATOM     13  C   UNL     1       3.021   2.533  19.654  0.00  0.00    +0.000 C 
ATOM     14  C   UNL     1       2.268   3.489  18.717  0.00  0.00    +0.000 C 
ATOM     15  C   UNL     1       2.068   7.562  20.707  0.00  0.00    +0.000 C 
ATOM     16  C   UNL     1       0.774   8.372  20.846  0.00  0.00    +0.000 C 
ENDROOT
BRANCH   2  17
ATOM     17  C   UNL     1       0.699  12.055  19.899  0.00  0.00    +0.000 A 
ATOM     18  C   UNL     1       1.772  12.874  19.606  0.00  0.00    +0.000 A 
ATOM     19  C   UNL     1       1.388  14.058  18.920  0.00  0.00    +0.000 A 
ATOM     20  C   UNL     1       0.054  14.048  18.591  0.00  0.00    +0.000 A 
ATOM     21  S   UNL     1      -0.732  12.635  19.141  0.00  0.00    +0.000 S 
ENDBRANCH   2  17
TORSDOF 1
ENDMDL
MODEL 2
REMARK VINA RESULT:      -6.2      3.582      7.283
REMARK  Name = 
REMARK  1 active torsions:
REMARK  status: ('A' for Active; 'I' for Inactive)
REMARK    1  A    between atoms: C_2  and  C_3
REMARK                            x       y       z     vdW  Elec       q    Type
REMARK                         _______ _______ _______ _____ _____    ______ ____
ROOT
ATOM      1  O   UNL     1       4.389   3.930  19.049  0.00  0.00    +0.000 OA
ATOM      2  C   UNL     1       4.541   4.842  18.241  0.00  0.00    +0.000 C 
ATOM      3  N   UNL     1       3.966   6.097  18.489  0.00  0.00    +0.000 N 
ATOM      4  C   UNL     1       3.985   7.272  17.597  0.00  0.00    +0.000 C 
ATOM      5  C   UNL     1       2.652   8.050  17.536  0.00  0.00    +0.000 C 
ATOM      6  N   UNL     1       2.008   8.170  18.849  0.00  0.00    +0.000 N 
ATOM      7  C   UNL     1       1.531   9.403  19.219  0.00  0.00    +0.000 C 
ATOM      8  O   UNL     1       1.514  10.312  18.380  0.00  0.00    +0.000 OA
ATOM      9  N   UNL     1       1.087   9.664  20.493  0.00  0.00    +0.000 N 
ATOM     10  C   UNL     1       1.187   8.898  21.738  0.00  0.00    +0.000 C 
ATOM     11  C   UNL     1      -0.220   8.732  22.325  0.00  0.00    +0.000 C 
ATOM     12  O   UNL     1      -0.768  10.025  22.644  0.00  0.00    +0.000 OA
ATOM     13  C   UNL     1      -0.850  10.854  21.471  0.00  0.00    +0.000 C 
ATOM     14  C   UNL     1       0.506  10.991  20.763  0.00  0.00    +0.000 C 
ATOM     15  C   UNL     1       1.862   6.856  19.478  0.00  0.00    +0.000 C 
ATOM     16  C   UNL     1       3.261   6.298  19.764  0.00  0.00    +0.000 C 
ENDROOT
BRANCH   2  17
ATOM     17  C   UNL     1       5.275   4.645  16.994  0.00  0.00    +0.000 A 
ATOM     18  C   UNL     1       4.853   4.202  15.755  0.00  0.00    +0.000 A 
ATOM     19  C   UNL     1       5.927   4.016  14.844  0.00  0.00    +0.000 A 
ATOM     20  C   UNL     1       7.122   4.447  15.367  0.00  0.00    +0.000 A 
ATOM     21  S   UNL     1       6.950   5.036  16.961  0.00  0.00    +0.000 S 
ENDBRANCH   2  17
TORSDOF 1
ENDMDL
MODEL 3
REMARK VINA RESULT:      -6.1      3.182      7.727
REMARK  Name = 
REMARK  1 active torsions:
REMARK  status: ('A' for Active; 'I' for Inactive)
REMARK    1  A    between atoms: C_2  and  C_3
REMARK                            x       y       z     vdW  Elec       q    Type
REMARK                         _______ _______ _______ _____ _____    ______ ____
ROOT
ATOM      1  O   UNL     1       2.275   8.808  17.233  0.00  0.00    +0.000 OA
ATOM      2  C   UNL     1       2.256   8.213  18.306  0.00  0.00    +0.000 C 
ATOM      3  N   UNL     1       1.463   8.695  19.358  0.00  0.00    +0.000 N 
ATOM      4  C   UNL     1       1.380   8.152  20.727  0.00  0.00    +0.000 C 
ATOM      5  C   UNL     1       1.327   9.223  21.838  0.00  0.00    +0.000 C 
ATOM      6  N   UNL     1       0.480  10.366  21.479  0.00  0.00    +0.000 N 
ATOM      7  C   UNL     1      -0.417  10.818  22.416  0.00  0.00    +0.000 C 
ATOM      8  O   UNL     1      -0.362  10.360  23.564  0.00  0.00    +0.000 OA
ATOM      9  N   UNL     1      -1.381  11.750  22.116  0.00  0.00    +0.000 N 
ATOM     10  C   UNL     1      -1.844  12.300  20.839  0.00  0.00    +0.000 C 
ATOM     11  C   UNL     1      -1.765  13.830  20.907  0.00  0.00    +0.000 C 
ATOM     12  O   UNL     1      -2.641  14.315  21.941  0.00  0.00    +0.000 OA
ATOM     13  C   UNL     1      -2.275  13.775  23.223  0.00  0.00    +0.000 C 
ATOM     14  C   UNL     1      -2.233  12.240  23.214  0.00  0.00    +0.000 C 
ATOM     15  C   UNL     1       0.876  10.921  20.184  0.00  0.00    +0.000 C 
ATOM     16  C   UNL     1       0.610   9.866  19.104  0.00  0.00    +0.000 C 
ENDROOT
BRANCH   2  17
ATOM     17  C   UNL     1       3.077   7.028  18.538  0.00  0.00    +0.000 A 
ATOM     18  C   UNL     1       2.958   6.012  19.467  0.00  0.00    +0.000 A 
ATOM     19  C   UNL     1       4.060   5.116  19.444  0.00  0.00    +0.000 A 
ATOM     20  C   UNL     1       4.924   5.393  18.413  0.00  0.00    +0.000 A 
ATOM     21  S   UNL     1       4.423   6.750  17.503  0.00  0.00    +0.000 S 
ENDBRANCH   2  17
TORSDOF 1
ENDMDL
MODEL 4
REMARK VINA RESULT:      -5.8      3.008      7.750
REMARK  Name = 
REMARK  1 active torsions:
REMARK  status: ('A' for Active; 'I' for Inactive)
REMARK    1  A    between atoms: C_2  and  C_3
REMARK                            x       y       z     vdW  Elec       q    Type
REMARK                         _______ _______ _______ _____ _____    ______ ____
ROOT
ATOM      1  O   UNL     1       2.602   8.252  17.423  0.00  0.00    +0.000 OA
ATOM      2  C   UNL     1       2.394   7.652  18.473  0.00  0.00    +0.000 C 
ATOM      3  N   UNL     1       1.615   8.247  19.476  0.00  0.00    +0.000 N 
ATOM      4  C   UNL     1       1.330   7.704  20.817  0.00  0.00    +0.000 C 
ATOM      5  C   UNL     1       1.374   8.749  21.953  0.00  0.00    +0.000 C 
ATOM      6  N   UNL     1       0.769  10.029  21.566  0.00  0.00    +0.000 N 
ATOM      7  C   UNL     1      -0.108  10.615  22.445  0.00  0.00    +0.000 C 
ATOM      8  O   UNL     1      -0.225  10.135  23.579  0.00  0.00    +0.000 OA
ATOM      9  N   UNL     1      -0.869  11.706  22.101  0.00  0.00    +0.000 N 
ATOM     10  C   UNL     1      -1.125  12.350  20.810  0.00  0.00    +0.000 C 
ATOM     11  C   UNL     1      -0.788  13.841  20.930  0.00  0.00    +0.000 C 
ATOM     12  O   UNL     1      -1.647  14.455  21.909  0.00  0.00    +0.000 OA
ATOM     13  C   UNL     1      -1.484  13.837  23.199  0.00  0.00    +0.000 C 
ATOM     14  C   UNL     1      -1.708  12.319  23.146  0.00  0.00    +0.000 C 
ATOM     15  C   UNL     1       1.359  10.528  20.322  0.00  0.00    +0.000 C 
ATOM     16  C   UNL     1       1.001   9.554  19.193  0.00  0.00    +0.000 C 
ENDROOT
BRANCH   2  17
ATOM     17  C   UNL     1       2.976   6.337  18.730  0.00  0.00    +0.000 A 
ATOM     18  C   UNL     1       4.178   5.977  19.309  0.00  0.00    +0.000 A 
ATOM     19  C   UNL     1       4.425   4.579  19.237  0.00  0.00    +0.000 A 
ATOM     20  C   UNL     1       3.348   3.895  18.726  0.00  0.00    +0.000 A 
ATOM     21  S   UNL     1       2.066   4.941  18.302  0.00  0.00    +0.000 S 
ENDBRANCH   2  17
TORSDOF 1
ENDMDL
MODEL 5
REMARK VINA RESULT:      -5.8      2.800      7.509
REMARK  Name = 
REMARK  1 active torsions:
REMARK  status: ('A' for Active; 'I' for Inactive)
REMARK    1  A    between atoms: C_2  and  C_3
REMARK                            x       y       z     vdW  Elec       q    Type
REMARK                         _______ _______ _______ _____ _____    ______ ____
ROOT
ATOM      1  O   UNL     1       1.721   5.455  20.957  0.00  0.00    +0.000 OA
ATOM      2  C   UNL     1       2.172   6.044  19.979  0.00  0.00    +0.000 C 
ATOM      3  N   UNL     1       1.983   7.428  19.850  0.00  0.00    +0.000 N 
ATOM      4  C   UNL     1       2.389   8.276  18.713  0.00  0.00    +0.000 C 
ATOM      5  C   UNL     1       1.350   9.344  18.309  0.00  0.00    +0.000 C 
ATOM      6  N   UNL     1       0.711   9.977  19.469  0.00  0.00    +0.000 N 
ATOM      7  C   UNL     1       0.603  11.345  19.474  0.00  0.00    +0.000 C 
ATOM      8  O   UNL     1       0.893  11.970  18.447  0.00  0.00    +0.000 OA
ATOM      9  N   UNL     1       0.199  12.043  20.587  0.00  0.00    +0.000 N 
ATOM     10  C   UNL     1       0.010  11.634  21.981  0.00  0.00    +0.000 C 
ATOM     11  C   UNL     1      -1.408  12.021  22.418  0.00  0.00    +0.000 C 
ATOM     12  O   UNL     1      -1.563  13.450  22.351  0.00  0.00    +0.000 OA
ATOM     13  C   UNL     1      -1.342  13.932  21.014  0.00  0.00    +0.000 C 
ATOM     14  C   UNL     1       0.024  13.501  20.461  0.00  0.00    +0.000 C 
ATOM     15  C   UNL     1       0.155   8.967  20.371  0.00  0.00    +0.000 C 
ATOM     16  C   UNL     1       1.312   8.142  20.947  0.00  0.00    +0.000 C 
ENDROOT
BRANCH   2  17
ATOM     17  C   UNL     1       2.872   5.333  18.913  0.00  0.00    +0.000 A 
ATOM     18  C   UNL     1       2.392   4.688  17.789  0.00  0.00    +0.000 A 
ATOM     19  C   UNL     1       3.408   3.993  17.079  0.00  0.00    +0.000 A 
ATOM     20  C   UNL     1       4.655   4.236  17.602  0.00  0.00    +0.000 A 
ATOM     21  S   UNL     1       4.590   5.265  18.965  0.00  0.00    +0.000 S 
ENDBRANCH   2  17
TORSDOF 1
ENDMDL
MODEL 6
REMARK VINA RESULT:      -5.7      2.787      7.573
REMARK  Name = 
REMARK  1 active torsions:
REMARK  status: ('A' for Active; 'I' for Inactive)
REMARK    1  A    between atoms: C_2  and  C_3
REMARK                            x       y       z     vdW  Elec       q    Type
REMARK                         _______ _______ _______ _____ _____    ______ ____
ROOT
ATOM      1  O   UNL     1       1.505   5.513  20.986  0.00  0.00    +0.000 OA
ATOM      2  C   UNL     1       2.119   5.806  19.964  0.00  0.00    +0.000 C 
ATOM      3  N   UNL     1       2.252   7.152  19.592  0.00  0.00    +0.000 N 
ATOM      4  C   UNL     1       2.887   7.674  18.367  0.00  0.00    +0.000 C 
ATOM      5  C   UNL     1       2.133   8.849  17.707  0.00  0.00    +0.000 C 
ATOM      6  N   UNL     1       1.603   9.802  18.689  0.00  0.00    +0.000 N 
ATOM      7  C   UNL     1       1.806  11.140  18.458  0.00  0.00    +0.000 C 
ATOM      8  O   UNL     1       2.273  11.493  17.368  0.00  0.00    +0.000 OA
ATOM      9  N   UNL     1       1.521  12.097  19.401  0.00  0.00    +0.000 N 
ATOM     10  C   UNL     1       1.185  11.996  20.824  0.00  0.00    +0.000 C 
ATOM     11  C   UNL     1      -0.127  12.749  21.073  0.00  0.00    +0.000 C 
ATOM     12  O   UNL     1       0.046  14.143  20.757  0.00  0.00    +0.000 OA
ATOM     13  C   UNL     1       0.427  14.317  19.381  0.00  0.00    +0.000 C 
ATOM     14  C   UNL     1       1.684  13.511  19.021  0.00  0.00    +0.000 C 
ATOM     15  C   UNL     1       0.795   9.114  19.698  0.00  0.00    +0.000 C 
ATOM     16  C   UNL     1       1.712   8.179  20.496  0.00  0.00    +0.000 C 
ENDROOT
BRANCH   2  17
ATOM     17  C   UNL     1       2.686   4.781  19.092  0.00  0.00    +0.000 A 
ATOM     18  C   UNL     1       3.957   4.241  19.037  0.00  0.00    +0.000 A 
ATOM     19  C   UNL     1       4.132   3.363  17.935  0.00  0.00    +0.000 A 
ATOM     20  C   UNL     1       2.956   3.151  17.256  0.00  0.00    +0.000 A 
ATOM     21  S   UNL     1       1.660   4.040  17.927  0.00  0.00    +0.000 S 
ENDBRANCH   2  17
TORSDOF 1
ENDMDL
MODEL 7
REMARK VINA RESULT:      -5.7      1.746      1.989
REMARK  Name = 
REMARK  1 active torsions:
REMARK  status: ('A' for Active; 'I' for Inactive)
REMARK    1  A    between atoms: C_2  and  C_3
REMARK                            x       y       z     vdW  Elec       q    Type
REMARK                         _______ _______ _______ _____ _____    ______ ____
ROOT
ATOM      1  O   UNL     1      -1.079  10.496  23.085  0.00  0.00    +0.000 OA
ATOM      2  C   UNL     1      -0.816  10.838  21.936  0.00  0.00    +0.000 C 
ATOM      3  N   UNL     1      -0.221   9.924  21.054  0.00  0.00    +0.000 N 
ATOM      4  C   UNL     1       0.227  10.188  19.674  0.00  0.00    +0.000 C 
ATOM      5  C   UNL     1       1.576   9.534  19.303  0.00  0.00    +0.000 C 
ATOM      6  N   UNL     1       1.712   8.176  19.843  0.00  0.00    +0.000 N 
ATOM      7  C   UNL     1       2.170   7.194  19.000  0.00  0.00    +0.000 C 
ATOM      8  O   UNL     1       2.601   7.518  17.886  0.00  0.00    +0.000 OA
ATOM      9  N   UNL     1       2.153   5.865  19.347  0.00  0.00    +0.000 N 
ATOM     10  C   UNL     1       1.517   5.155  20.460  0.00  0.00    +0.000 C 
ATOM     11  C   UNL     1       2.585   4.330  21.189  0.00  0.00    +0.000 C 
ATOM     12  O   UNL     1       3.134   3.347  20.292  0.00  0.00    +0.000 OA
ATOM     13  C   UNL     1       3.735   3.973  19.145  0.00  0.00    +0.000 C 
ATOM     14  C   UNL     1       2.754   4.899  18.411  0.00  0.00    +0.000 C 
ATOM     15  C   UNL     1       1.460   8.162  21.285  0.00  0.00    +0.000 C 
ATOM     16  C   UNL     1      -0.006   8.547  21.523  0.00  0.00    +0.000 C 
ENDROOT
BRANCH   2  17
ATOM     17  C   UNL     1      -1.069  12.198  21.466  0.00  0.00    +0.000 A 
ATOM     18  C   UNL     1      -2.205  12.774  20.930  0.00  0.00    +0.000 A 
ATOM     19  C   UNL     1      -1.982  14.098  20.466  0.00  0.00    +0.000 A 
ATOM     20  C   UNL     1      -0.722  14.545  20.780  0.00  0.00    +0.000 A 
ATOM     21  S   UNL     1       0.196  13.357  21.596  0.00  0.00    +0.000 S 
ENDBRANCH   2  17
TORSDOF 1
ENDMDL
MODEL 8
REMARK VINA RESULT:      -5.5      2.024      2.888
REMARK  Name = 
REMARK  1 active torsions:
REMARK  status: ('A' for Active; 'I' for Inactive)
REMARK    1  A    between atoms: C_2  and  C_3
REMARK                            x       y       z     vdW  Elec       q    Type
REMARK                         _______ _______ _______ _____ _____    ______ ____
ROOT
ATOM      1  O   UNL     1       1.658   9.997  17.456  0.00  0.00    +0.000 OA
ATOM      2  C   UNL     1       1.476   9.768  18.648  0.00  0.00    +0.000 C 
ATOM      3  N   UNL     1       1.885   8.543  19.194  0.00  0.00    +0.000 N 
ATOM      4  C   UNL     1       1.678   8.075  20.578  0.00  0.00    +0.000 C 
ATOM      5  C   UNL     1       1.283   6.587  20.698  0.00  0.00    +0.000 C 
ATOM      6  N   UNL     1       2.025   5.730  19.766  0.00  0.00    +0.000 N 
ATOM      7  C   UNL     1       2.568   4.569  20.258  0.00  0.00    +0.000 C 
ATOM      8  O   UNL     1       2.276   4.213  21.406  0.00  0.00    +0.000 OA
ATOM      9  N   UNL     1       3.435   3.797  19.522  0.00  0.00    +0.000 N 
ATOM     10  C   UNL     1       4.137   4.050  18.261  0.00  0.00    +0.000 C 
ATOM     11  C   UNL     1       3.827   2.905  17.289  0.00  0.00    +0.000 C 
ATOM     12  O   UNL     1       4.320   1.665  17.829  0.00  0.00    +0.000 OA
ATOM     13  C   UNL     1       3.707   1.374  19.099  0.00  0.00    +0.000 C 
ATOM     14  C   UNL     1       3.887   2.521  20.104  0.00  0.00    +0.000 C 
ATOM     15  C   UNL     1       1.911   6.231  18.395  0.00  0.00    +0.000 C 
ATOM     16  C   UNL     1       2.600   7.599  18.322  0.00  0.00    +0.000 C 
ENDROOT
BRANCH   2  17
ATOM     17  C   UNL     1       0.799  10.728  19.516  0.00  0.00    +0.000 A 
ATOM     18  C   UNL     1       1.305  11.694  20.365  0.00  0.00    +0.000 A 
ATOM     19  C   UNL     1       0.296  12.323  21.143  0.00  0.00    +0.000 A 
ATOM     20  C   UNL     1      -0.963  11.916  20.775  0.00  0.00    +0.000 A 
ATOM     21  S   UNL     1      -0.921  10.754  19.523  0.00  0.00    +0.000 S 
ENDBRANCH   2  17
TORSDOF 1
ENDMDL
MODEL 9
REMARK VINA RESULT:      -5.5      3.000      7.857
REMARK  Name = 
REMARK  1 active torsions:
REMARK  status: ('A' for Active; 'I' for Inactive)
REMARK    1  A    between atoms: C_2  and  C_3
REMARK                            x       y       z     vdW  Elec       q    Type
REMARK                         _______ _______ _______ _____ _____    ______ ____
ROOT
ATOM      1  O   UNL     1       4.055   5.678  16.962  0.00  0.00    +0.000 OA
ATOM      2  C   UNL     1       3.424   5.262  17.929  0.00  0.00    +0.000 C 
ATOM      3  N   UNL     1       2.518   6.106  18.587  0.00  0.00    +0.000 N 
ATOM      4  C   UNL     1       1.739   5.797  19.801  0.00  0.00    +0.000 C 
ATOM      5  C   UNL     1       1.652   6.956  20.818  0.00  0.00    +0.000 C 
ATOM      6  N   UNL     1       1.464   8.260  20.171  0.00  0.00    +0.000 N 
ATOM      7  C   UNL     1       0.502   9.096  20.682  0.00  0.00    +0.000 C 
ATOM      8  O   UNL     1      -0.046   8.793  21.749  0.00  0.00    +0.000 OA
ATOM      9  N   UNL     1       0.117  10.248  20.039  0.00  0.00    +0.000 N 
ATOM     10  C   UNL     1       0.396  10.755  18.693  0.00  0.00    +0.000 C 
ATOM     11  C   UNL     1       0.977  12.169  18.813  0.00  0.00    +0.000 C 
ATOM     12  O   UNL     1       0.007  13.041  19.422  0.00  0.00    +0.000 OA
ATOM     13  C   UNL     1      -0.353  12.576  20.735  0.00  0.00    +0.000 C 
ATOM     14  C   UNL     1      -0.854  11.124  20.717  0.00  0.00    +0.000 C 
ATOM     15  C   UNL     1       2.488   8.486  19.150  0.00  0.00    +0.000 C 
ATOM     16  C   UNL     1       2.296   7.451  18.035  0.00  0.00    +0.000 C 
ENDROOT
BRANCH   2  17
ATOM     17  C   UNL     1       3.623   3.911  18.448  0.00  0.00    +0.000 A 
ATOM     18  C   UNL     1       4.438   3.441  19.459  0.00  0.00    +0.000 A 
ATOM     19  C   UNL     1       4.439   2.023  19.549  0.00  0.00    +0.000 A 
ATOM     20  C   UNL     1       3.524   1.456  18.695  0.00  0.00    +0.000 A 
ATOM     21  S   UNL     1       2.701   2.629  17.766  0.00  0.00    +0.000 S 
ENDBRANCH   2  17
TORSDOF 1
ENDMDL
