MODEL 1
REMARK VINA RESULT:      -6.9      0.000      0.000
REMARK  Name = 
REMARK  9 active torsions:
REMARK  status: ('A' for Active; 'I' for Inactive)
REMARK    1  A    between atoms: C_1  and  C_2
REMARK    2  A    between atoms: C_2  and  N_3
REMARK    3  A    between atoms: N_9  and  C_10
REMARK    4  A    between atoms: C_11  and  C_12
REMARK    5  A    between atoms: C_12  and  C_13
REMARK    6  A    between atoms: C_12  and  C_14
REMARK    7  A    between atoms: C_18  and  C_19
REMARK    8  A    between atoms: C_19  and  C_20
REMARK    9  A    between atoms: C_19  and  C_21
REMARK                            x       y       z     vdW  Elec       q    Type
REMARK                         _______ _______ _______ _____ _____    ______ ____
ROOT
ATOM      1  N   UNL     1       1.780   8.429  19.616  0.00  0.00    +0.000 N 
ATOM      2  C   UNL     1       2.451   8.112  18.479  0.00  0.00    +0.000 C 
ATOM      3  N   UNL     1       2.393   8.745  17.365  0.00  0.00    +0.000 NA
ATOM      4  N   UNL     1       3.282   7.032  18.445  0.00  0.00    +0.000 N 
ATOM      5  C   UNL     1       3.467   6.046  19.392  0.00  0.00    +0.000 C 
ATOM      6  O   UNL     1       2.879   6.009  20.472  0.00  0.00    +0.000 OA
ATOM      7  N   UNL     1       4.342   5.034  19.043  0.00  0.00    +0.000 N 
ATOM      8  H   UNL     1       1.870   7.707  20.336  0.00  0.00    +0.000 HD
ATOM      9  H   UNL     1       1.781   9.555  17.475  0.00  0.00    +0.000 HD
ATOM     10  H   UNL     1       3.692   6.902  17.534  0.00  0.00    +0.000 HD
ATOM     11  H   UNL     1       4.119   4.194  19.565  0.00  0.00    +0.000 HD
ENDROOT
BRANCH   7  12
ATOM     12  C   UNL     1       4.858   4.852  17.743  0.00  0.00    +0.000 A 
ATOM     13  C   UNL     1       4.196   3.960  16.859  0.00  0.00    +0.000 A 
ATOM     14  C   UNL     1       4.810   3.686  15.623  0.00  0.00    +0.000 A 
ATOM     15  C   UNL     1       6.009   4.286  15.259  0.00  0.00    +0.000 A 
ATOM     16  C   UNL     1       6.623   5.189  16.119  0.00  0.00    +0.000 A 
ATOM     17  C   UNL     1       6.062   5.510  17.368  0.00  0.00    +0.000 A 
BRANCH  13  18
ATOM     18  C   UNL     1       2.862   3.251  17.107  0.00  0.00    +0.000 C 
ATOM     19  C   UNL     1       2.994   2.078  18.079  0.00  0.00    +0.000 C 
ATOM     20  C   UNL     1       1.676   4.145  17.477  0.00  0.00    +0.000 C 
ENDBRANCH  13  18
BRANCH  17  21
ATOM     21  C   UNL     1       6.808   6.484  18.284  0.00  0.00    +0.000 C 
ATOM     22  C   UNL     1       7.786   5.747  19.207  0.00  0.00    +0.000 C 
ATOM     23  C   UNL     1       7.584   7.578  17.526  0.00  0.00    +0.000 C 
ENDBRANCH  17  21
ENDBRANCH   7  12
BRANCH   1  25
ATOM     24  C   UNL     1      -0.007   9.267  21.050  0.00  0.00    +0.000 C 
ATOM     25  C   UNL     1       0.516   9.135  19.633  0.00  0.00    +0.000 C 
ENDBRANCH   1  25
TORSDOF 4
ENDMDL
MODEL 2
REMARK VINA RESULT:      -6.6      0.418      3.439
REMARK  Name = 
REMARK  9 active torsions:
REMARK  status: ('A' for Active; 'I' for Inactive)
REMARK    1  A    between atoms: C_1  and  C_2
REMARK    2  A    between atoms: C_2  and  N_3
REMARK    3  A    between atoms: N_9  and  C_10
REMARK    4  A    between atoms: C_11  and  C_12
REMARK    5  A    between atoms: C_12  and  C_13
REMARK    6  A    between atoms: C_12  and  C_14
REMARK    7  A    between atoms: C_18  and  C_19
REMARK    8  A    between atoms: C_19  and  C_20
REMARK    9  A    between atoms: C_19  and  C_21
REMARK                            x       y       z     vdW  Elec       q    Type
REMARK                         _______ _______ _______ _____ _____    ______ ____
ROOT
ATOM      1  N   UNL     1       1.801   8.457  19.482  0.00  0.00    +0.000 N 
ATOM      2  C   UNL     1       2.508   8.133  18.370  0.00  0.00    +0.000 C 
ATOM      3  N   UNL     1       2.490   8.762  17.251  0.00  0.00    +0.000 NA
ATOM      4  N   UNL     1       3.336   7.050  18.368  0.00  0.00    +0.000 N 
ATOM      5  C   UNL     1       3.486   6.067  19.325  0.00  0.00    +0.000 C 
ATOM      6  O   UNL     1       2.862   6.037  20.384  0.00  0.00    +0.000 OA
ATOM      7  N   UNL     1       4.368   5.051  19.009  0.00  0.00    +0.000 N 
ATOM      8  H   UNL     1       1.864   7.738  20.208  0.00  0.00    +0.000 HD
ATOM      9  H   UNL     1       1.877   9.574  17.338  0.00  0.00    +0.000 HD
ATOM     10  H   UNL     1       3.776   6.914  17.471  0.00  0.00    +0.000 HD
ATOM     11  H   UNL     1       4.125   4.214  19.526  0.00  0.00    +0.000 HD
ENDROOT
BRANCH   7  12
ATOM     12  C   UNL     1       4.927   4.861  17.727  0.00  0.00    +0.000 A 
ATOM     13  C   UNL     1       6.083   5.600  17.366  0.00  0.00    +0.000 A 
ATOM     14  C   UNL     1       6.536   5.502  16.037  0.00  0.00    +0.000 A 
ATOM     15  C   UNL     1       5.895   4.690  15.111  0.00  0.00    +0.000 A 
ATOM     16  C   UNL     1       4.787   3.941  15.492  0.00  0.00    +0.000 A 
ATOM     17  C   UNL     1       4.285   3.990  16.804  0.00  0.00    +0.000 A 
BRANCH  13  18
ATOM     18  C   UNL     1       6.910   6.508  18.281  0.00  0.00    +0.000 C 
ATOM     19  C   UNL     1       7.864   5.720  19.181  0.00  0.00    +0.000 C 
ATOM     20  C   UNL     1       7.628   7.680  17.606  0.00  0.00    +0.000 C 
ENDBRANCH  13  18
BRANCH  17  21
ATOM     21  C   UNL     1       3.040   3.169  17.149  0.00  0.00    +0.000 C 
ATOM     22  C   UNL     1       3.311   2.202  18.308  0.00  0.00    +0.000 C 
ATOM     23  C   UNL     1       1.811   4.025  17.507  0.00  0.00    +0.000 C 
ENDBRANCH  17  21
ENDBRANCH   7  12
BRANCH   1  25
ATOM     24  C   UNL     1       0.725  10.611  19.878  0.00  0.00    +0.000 C 
ATOM     25  C   UNL     1       0.540   9.167  19.454  0.00  0.00    +0.000 C 
ENDBRANCH   1  25
TORSDOF 4
ENDMDL
MODEL 3
REMARK VINA RESULT:      -6.5      1.998      2.754
REMARK  Name = 
REMARK  9 active torsions:
REMARK  status: ('A' for Active; 'I' for Inactive)
REMARK    1  A    between atoms: C_1  and  C_2
REMARK    2  A    between atoms: C_2  and  N_3
REMARK    3  A    between atoms: N_9  and  C_10
REMARK    4  A    between atoms: C_11  and  C_12
REMARK    5  A    between atoms: C_12  and  C_13
REMARK    6  A    between atoms: C_12  and  C_14
REMARK    7  A    between atoms: C_18  and  C_19
REMARK    8  A    between atoms: C_19  and  C_20
REMARK    9  A    between atoms: C_19  and  C_21
REMARK                            x       y       z     vdW  Elec       q    Type
REMARK                         _______ _______ _______ _____ _____    ______ ____
ROOT
ATOM      1  N   UNL     1       0.814   9.429  20.150  0.00  0.00    +0.000 N 
ATOM      2  C   UNL     1       1.603   8.391  20.528  0.00  0.00    +0.000 C 
ATOM      3  N   UNL     1       1.969   8.116  21.727  0.00  0.00    +0.000 NA
ATOM      4  N   UNL     1       2.089   7.518  19.601  0.00  0.00    +0.000 N 
ATOM      5  C   UNL     1       2.032   7.590  18.224  0.00  0.00    +0.000 C 
ATOM      6  O   UNL     1       1.491   8.503  17.604  0.00  0.00    +0.000 OA
ATOM      7  N   UNL     1       2.677   6.574  17.543  0.00  0.00    +0.000 N 
ATOM      8  H   UNL     1       0.768   9.533  19.133  0.00  0.00    +0.000 HD
ATOM      9  H   UNL     1       1.543   8.790  22.366  0.00  0.00    +0.000 HD
ATOM     10  H   UNL     1       2.678   6.815  20.019  0.00  0.00    +0.000 HD
ATOM     11  H   UNL     1       2.939   6.896  16.618  0.00  0.00    +0.000 HD
ENDROOT
BRANCH   7  12
ATOM     12  C   UNL     1       3.536   5.636  18.153  0.00  0.00    +0.000 A 
ATOM     13  C   UNL     1       2.972   4.600  18.942  0.00  0.00    +0.000 A 
ATOM     14  C   UNL     1       3.853   3.766  19.655  0.00  0.00    +0.000 A 
ATOM     15  C   UNL     1       5.230   3.926  19.574  0.00  0.00    +0.000 A 
ATOM     16  C   UNL     1       5.767   4.921  18.765  0.00  0.00    +0.000 A 
ATOM     17  C   UNL     1       4.944   5.786  18.023  0.00  0.00    +0.000 A 
BRANCH  13  18
ATOM     18  C   UNL     1       1.483   4.282  19.103  0.00  0.00    +0.000 C 
ATOM     19  C   UNL     1       1.070   3.015  18.351  0.00  0.00    +0.000 C 
ATOM     20  C   UNL     1       0.940   4.277  20.535  0.00  0.00    +0.000 C 
ENDBRANCH  13  18
BRANCH  17  21
ATOM     21  C   UNL     1       5.599   6.884  17.180  0.00  0.00    +0.000 C 
ATOM     22  C   UNL     1       7.097   7.003  17.482  0.00  0.00    +0.000 C 
ATOM     23  C   UNL     1       5.422   6.690  15.662  0.00  0.00    +0.000 C 
ENDBRANCH  17  21
ENDBRANCH   7  12
BRANCH   1  25
ATOM     24  C   UNL     1      -0.496  10.671  21.792  0.00  0.00    +0.000 C 
ATOM     25  C   UNL     1       0.717  10.674  20.882  0.00  0.00    +0.000 C 
ENDBRANCH   1  25
TORSDOF 4
ENDMDL
MODEL 4
REMARK VINA RESULT:      -6.5      1.959      4.245
REMARK  Name = 
REMARK  9 active torsions:
REMARK  status: ('A' for Active; 'I' for Inactive)
REMARK    1  A    between atoms: C_1  and  C_2
REMARK    2  A    between atoms: C_2  and  N_3
REMARK    3  A    between atoms: N_9  and  C_10
REMARK    4  A    between atoms: C_11  and  C_12
REMARK    5  A    between atoms: C_12  and  C_13
REMARK    6  A    between atoms: C_12  and  C_14
REMARK    7  A    between atoms: C_18  and  C_19
REMARK    8  A    between atoms: C_19  and  C_20
REMARK    9  A    between atoms: C_19  and  C_21
REMARK                            x       y       z     vdW  Elec       q    Type
REMARK                         _______ _______ _______ _____ _____    ______ ____
ROOT
ATOM      1  N   UNL     1       0.907   9.337  19.925  0.00  0.00    +0.000 N 
ATOM      2  C   UNL     1       1.627   8.296  20.414  0.00  0.00    +0.000 C 
ATOM      3  N   UNL     1       1.922   8.093  21.646  0.00  0.00    +0.000 NA
ATOM      4  N   UNL     1       2.117   7.339  19.575  0.00  0.00    +0.000 N 
ATOM      5  C   UNL     1       2.130   7.315  18.196  0.00  0.00    +0.000 C 
ATOM      6  O   UNL     1       1.663   8.204  17.487  0.00  0.00    +0.000 OA
ATOM      7  N   UNL     1       2.760   6.226  17.621  0.00  0.00    +0.000 N 
ATOM      8  H   UNL     1       0.915   9.370  18.902  0.00  0.00    +0.000 HD
ATOM      9  H   UNL     1       1.498   8.827  22.214  0.00  0.00    +0.000 HD
ATOM     10  H   UNL     1       2.652   6.643  20.071  0.00  0.00    +0.000 HD
ATOM     11  H   UNL     1       3.081   6.470  16.691  0.00  0.00    +0.000 HD
ENDROOT
BRANCH   7  12
ATOM     12  C   UNL     1       3.543   5.298  18.338  0.00  0.00    +0.000 A 
ATOM     13  C   UNL     1       4.957   5.414  18.294  0.00  0.00    +0.000 A 
ATOM     14  C   UNL     1       5.717   4.395  18.897  0.00  0.00    +0.000 A 
ATOM     15  C   UNL     1       5.113   3.323  19.541  0.00  0.00    +0.000 A 
ATOM     16  C   UNL     1       3.727   3.246  19.610  0.00  0.00    +0.000 A 
ATOM     17  C   UNL     1       2.908   4.232  19.032  0.00  0.00    +0.000 A 
BRANCH  13  18
ATOM     18  C   UNL     1       5.761   6.548  17.652  0.00  0.00    +0.000 C 
ATOM     19  C   UNL     1       7.233   6.530  18.068  0.00  0.00    +0.000 C 
ATOM     20  C   UNL     1       5.617   6.710  16.136  0.00  0.00    +0.000 C 
ENDBRANCH  13  18
BRANCH  17  21
ATOM     21  C   UNL     1       1.387   4.068  19.112  0.00  0.00    +0.000 C 
ATOM     22  C   UNL     1       0.943   2.700  18.581  0.00  0.00    +0.000 C 
ATOM     23  C   UNL     1       0.818   4.248  20.532  0.00  0.00    +0.000 C 
ENDBRANCH  17  21
ENDBRANCH   7  12
BRANCH   1  25
ATOM     24  C   UNL     1      -0.597  11.135  20.601  0.00  0.00    +0.000 C 
ATOM     25  C   UNL     1       0.833  10.634  20.563  0.00  0.00    +0.000 C 
ENDBRANCH   1  25
TORSDOF 4
ENDMDL
MODEL 5
REMARK VINA RESULT:      -6.5      1.548      3.939
REMARK  Name = 
REMARK  9 active torsions:
REMARK  status: ('A' for Active; 'I' for Inactive)
REMARK    1  A    between atoms: C_1  and  C_2
REMARK    2  A    between atoms: C_2  and  N_3
REMARK    3  A    between atoms: N_9  and  C_10
REMARK    4  A    between atoms: C_11  and  C_12
REMARK    5  A    between atoms: C_12  and  C_13
REMARK    6  A    between atoms: C_12  and  C_14
REMARK    7  A    between atoms: C_18  and  C_19
REMARK    8  A    between atoms: C_19  and  C_20
REMARK    9  A    between atoms: C_19  and  C_21
REMARK                            x       y       z     vdW  Elec       q    Type
REMARK                         _______ _______ _______ _____ _____    ______ ____
ROOT
ATOM      1  N   UNL     1       1.366   9.546  19.396  0.00  0.00    +0.000 N 
ATOM      2  C   UNL     1       1.776   8.651  18.462  0.00  0.00    +0.000 C 
ATOM      3  N   UNL     1       1.674   8.784  17.189  0.00  0.00    +0.000 NA
ATOM      4  N   UNL     1       2.360   7.477  18.838  0.00  0.00    +0.000 N 
ATOM      5  C   UNL     1       2.489   6.935  20.100  0.00  0.00    +0.000 C 
ATOM      6  O   UNL     1       2.081   7.475  21.126  0.00  0.00    +0.000 OA
ATOM      7  N   UNL     1       3.080   5.686  20.159  0.00  0.00    +0.000 N 
ATOM      8  H   UNL     1       1.421   9.171  20.346  0.00  0.00    +0.000 HD
ATOM      9  H   UNL     1       1.260   9.694  16.984  0.00  0.00    +0.000 HD
ATOM     10  H   UNL     1       2.589   6.901  18.044  0.00  0.00    +0.000 HD
ATOM     11  H   UNL     1       2.778   5.205  20.998  0.00  0.00    +0.000 HD
ENDROOT
BRANCH   7  12
ATOM     12  C   UNL     1       3.342   4.883  19.029  0.00  0.00    +0.000 A 
ATOM     13  C   UNL     1       4.491   5.157  18.243  0.00  0.00    +0.000 A 
ATOM     14  C   UNL     1       4.652   4.438  17.044  0.00  0.00    +0.000 A 
ATOM     15  C   UNL     1       3.737   3.471  16.649  0.00  0.00    +0.000 A 
ATOM     16  C   UNL     1       2.638   3.186  17.451  0.00  0.00    +0.000 A 
ATOM     17  C   UNL     1       2.419   3.865  18.663  0.00  0.00    +0.000 A 
BRANCH  13  18
ATOM     18  C   UNL     1       5.597   6.166  18.563  0.00  0.00    +0.000 C 
ATOM     19  C   UNL     1       6.778   5.528  19.296  0.00  0.00    +0.000 C 
ATOM     20  C   UNL     1       6.075   7.041  17.401  0.00  0.00    +0.000 C 
ENDBRANCH  13  18
BRANCH  17  21
ATOM     21  C   UNL     1       1.168   3.529  19.481  0.00  0.00    +0.000 C 
ATOM     22  C   UNL     1       0.359   2.403  18.829  0.00  0.00    +0.000 C 
ATOM     23  C   UNL     1       1.469   3.132  20.939  0.00  0.00    +0.000 C 
ENDBRANCH  17  21
ENDBRANCH   7  12
BRANCH   1  25
ATOM     24  C   UNL     1      -0.288  10.950  20.512  0.00  0.00    +0.000 C 
ATOM     25  C   UNL     1       0.287  10.488  19.188  0.00  0.00    +0.000 C 
ENDBRANCH   1  25
TORSDOF 4
ENDMDL
MODEL 6
REMARK VINA RESULT:      -6.4      3.736      8.459
REMARK  Name = 
REMARK  9 active torsions:
REMARK  status: ('A' for Active; 'I' for Inactive)
REMARK    1  A    between atoms: C_1  and  C_2
REMARK    2  A    between atoms: C_2  and  N_3
REMARK    3  A    between atoms: N_9  and  C_10
REMARK    4  A    between atoms: C_11  and  C_12
REMARK    5  A    between atoms: C_12  and  C_13
REMARK    6  A    between atoms: C_12  and  C_14
REMARK    7  A    between atoms: C_18  and  C_19
REMARK    8  A    between atoms: C_19  and  C_20
REMARK    9  A    between atoms: C_19  and  C_21
REMARK                            x       y       z     vdW  Elec       q    Type
REMARK                         _______ _______ _______ _____ _____    ______ ____
ROOT
ATOM      1  N   UNL     1       2.234   7.133  20.080  0.00  0.00    +0.000 N 
ATOM      2  C   UNL     1       1.442   8.137  20.533  0.00  0.00    +0.000 C 
ATOM      3  N   UNL     1       0.946   8.236  21.713  0.00  0.00    +0.000 NA
ATOM      4  N   UNL     1       1.097   9.170  19.712  0.00  0.00    +0.000 N 
ATOM      5  C   UNL     1       1.313   9.314  18.357  0.00  0.00    +0.000 C 
ATOM      6  O   UNL     1       1.893   8.484  17.661  0.00  0.00    +0.000 OA
ATOM      7  N   UNL     1       0.787  10.457  17.784  0.00  0.00    +0.000 N 
ATOM      8  H   UNL     1       2.397   7.189  19.071  0.00  0.00    +0.000 HD
ATOM      9  H   UNL     1       1.271   7.450  22.276  0.00  0.00    +0.000 HD
ATOM     10  H   UNL     1       0.486   9.827  20.172  0.00  0.00    +0.000 HD
ATOM     11  H   UNL     1       0.625  10.299  16.796  0.00  0.00    +0.000 HD
ENDROOT
BRANCH   7  12
ATOM     12  C   UNL     1      -0.106  11.329  18.440  0.00  0.00    +0.000 A 
ATOM     13  C   UNL     1       0.418  12.344  19.282  0.00  0.00    +0.000 A 
ATOM     14  C   UNL     1      -0.493  13.106  20.036  0.00  0.00    +0.000 A 
ATOM     15  C   UNL     1      -1.864  12.899  19.944  0.00  0.00    +0.000 A 
ATOM     16  C   UNL     1      -2.363  11.927  19.085  0.00  0.00    +0.000 A 
ATOM     17  C   UNL     1      -1.508  11.133  18.300  0.00  0.00    +0.000 A 
BRANCH  13  18
ATOM     18  C   UNL     1       1.894  12.709  19.462  0.00  0.00    +0.000 C 
ATOM     19  C   UNL     1       2.449  13.503  18.278  0.00  0.00    +0.000 C 
ATOM     20  C   UNL     1       2.275  13.363  20.793  0.00  0.00    +0.000 C 
ENDBRANCH  13  18
BRANCH  17  21
ATOM     21  C   UNL     1      -2.121  10.056  17.400  0.00  0.00    +0.000 C 
ATOM     22  C   UNL     1      -3.398   9.473  18.016  0.00  0.00    +0.000 C 
ATOM     23  C   UNL     1      -2.446  10.547  15.977  0.00  0.00    +0.000 C 
ENDBRANCH  17  21
ENDBRANCH   7  12
BRANCH   1  25
ATOM     24  C   UNL     1       2.250   4.767  19.482  0.00  0.00    +0.000 C 
ATOM     25  C   UNL     1       2.203   5.784  20.606  0.00  0.00    +0.000 C 
ENDBRANCH   1  25
TORSDOF 4
ENDMDL
MODEL 7
REMARK VINA RESULT:      -6.3      1.523      1.979
REMARK  Name = 
REMARK  9 active torsions:
REMARK  status: ('A' for Active; 'I' for Inactive)
REMARK    1  A    between atoms: C_1  and  C_2
REMARK    2  A    between atoms: C_2  and  N_3
REMARK    3  A    between atoms: N_9  and  C_10
REMARK    4  A    between atoms: C_11  and  C_12
REMARK    5  A    between atoms: C_12  and  C_13
REMARK    6  A    between atoms: C_12  and  C_14
REMARK    7  A    between atoms: C_18  and  C_19
REMARK    8  A    between atoms: C_19  and  C_20
REMARK    9  A    between atoms: C_19  and  C_21
REMARK                            x       y       z     vdW  Elec       q    Type
REMARK                         _______ _______ _______ _____ _____    ______ ____
ROOT
ATOM      1  N   UNL     1       1.353   9.478  19.372  0.00  0.00    +0.000 N 
ATOM      2  C   UNL     1       1.774   8.590  18.436  0.00  0.00    +0.000 C 
ATOM      3  N   UNL     1       1.656   8.718  17.164  0.00  0.00    +0.000 NA
ATOM      4  N   UNL     1       2.387   7.430  18.808  0.00  0.00    +0.000 N 
ATOM      5  C   UNL     1       2.540   6.893  20.069  0.00  0.00    +0.000 C 
ATOM      6  O   UNL     1       2.129   7.426  21.098  0.00  0.00    +0.000 OA
ATOM      7  N   UNL     1       3.158   5.658  20.124  0.00  0.00    +0.000 N 
ATOM      8  H   UNL     1       1.425   9.105  20.323  0.00  0.00    +0.000 HD
ATOM      9  H   UNL     1       1.220   9.619  16.961  0.00  0.00    +0.000 HD
ATOM     10  H   UNL     1       2.621   6.857  18.013  0.00  0.00    +0.000 HD
ATOM     11  H   UNL     1       2.875   5.171  20.967  0.00  0.00    +0.000 HD
ENDROOT
BRANCH   7  12
ATOM     12  C   UNL     1       3.427   4.859  18.994  0.00  0.00    +0.000 A 
ATOM     13  C   UNL     1       2.527   3.813  18.661  0.00  0.00    +0.000 A 
ATOM     14  C   UNL     1       2.891   2.942  17.618  0.00  0.00    +0.000 A 
ATOM     15  C   UNL     1       4.075   3.109  16.912  0.00  0.00    +0.000 A 
ATOM     16  C   UNL     1       4.926   4.163  17.223  0.00  0.00    +0.000 A 
ATOM     17  C   UNL     1       4.622   5.072  18.252  0.00  0.00    +0.000 A 
BRANCH  13  18
ATOM     18  C   UNL     1       1.178   3.524  19.325  0.00  0.00    +0.000 C 
ATOM     19  C   UNL     1       0.437   2.361  18.663  0.00  0.00    +0.000 C 
ATOM     20  C   UNL     1       1.187   3.378  20.849  0.00  0.00    +0.000 C 
ENDBRANCH  13  18
BRANCH  17  21
ATOM     21  C   UNL     1       5.620   6.190  18.568  0.00  0.00    +0.000 C 
ATOM     22  C   UNL     1       6.895   5.635  19.213  0.00  0.00    +0.000 C 
ATOM     23  C   UNL     1       6.020   7.031  17.341  0.00  0.00    +0.000 C 
ENDBRANCH  17  21
ENDBRANCH   7  12
BRANCH   1  25
ATOM     24  C   UNL     1      -0.406  10.743  20.495  0.00  0.00    +0.000 C 
ATOM     25  C   UNL     1       0.251  10.395  19.173  0.00  0.00    +0.000 C 
ENDBRANCH   1  25
TORSDOF 4
ENDMDL
MODEL 8
REMARK VINA RESULT:      -6.2      3.407      7.772
REMARK  Name = 
REMARK  9 active torsions:
REMARK  status: ('A' for Active; 'I' for Inactive)
REMARK    1  A    between atoms: C_1  and  C_2
REMARK    2  A    between atoms: C_2  and  N_3
REMARK    3  A    between atoms: N_9  and  C_10
REMARK    4  A    between atoms: C_11  and  C_12
REMARK    5  A    between atoms: C_12  and  C_13
REMARK    6  A    between atoms: C_12  and  C_14
REMARK    7  A    between atoms: C_18  and  C_19
REMARK    8  A    between atoms: C_19  and  C_20
REMARK    9  A    between atoms: C_19  and  C_21
REMARK                            x       y       z     vdW  Elec       q    Type
REMARK                         _______ _______ _______ _____ _____    ______ ____
ROOT
ATOM      1  N   UNL     1       2.542   7.127  19.607  0.00  0.00    +0.000 N 
ATOM      2  C   UNL     1       1.711   8.020  20.203  0.00  0.00    +0.000 C 
ATOM      3  N   UNL     1       1.270   7.956  21.406  0.00  0.00    +0.000 NA
ATOM      4  N   UNL     1       1.262   9.110  19.519  0.00  0.00    +0.000 N 
ATOM      5  C   UNL     1       1.401   9.416  18.180  0.00  0.00    +0.000 C 
ATOM      6  O   UNL     1       1.996   8.707  17.371  0.00  0.00    +0.000 OA
ATOM      7  N   UNL     1       0.776  10.576  17.762  0.00  0.00    +0.000 N 
ATOM      8  H   UNL     1       2.650   7.304  18.605  0.00  0.00    +0.000 HD
ATOM      9  H   UNL     1       1.671   7.137  21.864  0.00  0.00    +0.000 HD
ATOM     10  H   UNL     1       0.635   9.671  20.074  0.00  0.00    +0.000 HD
ATOM     11  H   UNL     1       0.575  10.517  16.770  0.00  0.00    +0.000 HD
ENDROOT
BRANCH   7  12
ATOM     12  C   UNL     1      -0.136  11.309  18.549  0.00  0.00    +0.000 A 
ATOM     13  C   UNL     1      -1.524  11.050  18.413  0.00  0.00    +0.000 A 
ATOM     14  C   UNL     1      -2.419  11.891  19.100  0.00  0.00    +0.000 A 
ATOM     15  C   UNL     1      -1.966  12.925  19.910  0.00  0.00    +0.000 A 
ATOM     16  C   UNL     1      -0.602  13.139  20.065  0.00  0.00    +0.000 A 
ATOM     17  C   UNL     1       0.346  12.334  19.409  0.00  0.00    +0.000 A 
BRANCH  13  18
ATOM     18  C   UNL     1      -2.168   9.934  17.586  0.00  0.00    +0.000 C 
ATOM     19  C   UNL     1      -3.485   9.443  18.190  0.00  0.00    +0.000 C 
ATOM     20  C   UNL     1      -2.313  10.198  16.085  0.00  0.00    +0.000 C 
ENDBRANCH  13  18
BRANCH  17  21
ATOM     21  C   UNL     1       1.834  12.647  19.594  0.00  0.00    +0.000 C 
ATOM     22  C   UNL     1       2.372  13.503  18.441  0.00  0.00    +0.000 C 
ATOM     23  C   UNL     1       2.159  13.357  20.922  0.00  0.00    +0.000 C 
ENDBRANCH  17  21
ENDBRANCH   7  12
BRANCH   1  25
ATOM     24  C   UNL     1       2.402   4.839  18.772  0.00  0.00    +0.000 C 
ATOM     25  C   UNL     1       2.621   5.730  19.979  0.00  0.00    +0.000 C 
ENDBRANCH   1  25
TORSDOF 4
ENDMDL
MODEL 9
REMARK VINA RESULT:      -6.2      6.255      9.286
REMARK  Name = 
REMARK  9 active torsions:
REMARK  status: ('A' for Active; 'I' for Inactive)
REMARK    1  A    between atoms: C_1  and  C_2
REMARK    2  A    between atoms: C_2  and  N_3
REMARK    3  A    between atoms: N_9  and  C_10
REMARK    4  A    between atoms: C_11  and  C_12
REMARK    5  A    between atoms: C_12  and  C_13
REMARK    6  A    between atoms: C_12  and  C_14
REMARK    7  A    between atoms: C_18  and  C_19
REMARK    8  A    between atoms: C_19  and  C_20
REMARK    9  A    between atoms: C_19  and  C_21
REMARK                            x       y       z     vdW  Elec       q    Type
REMARK                         _______ _______ _______ _____ _____    ______ ____
ROOT
ATOM      1  N   UNL     1       2.356  15.322  19.723  0.00  0.00    +0.000 N 
ATOM      2  C   UNL     1       2.247  14.235  20.529  0.00  0.00    +0.000 C 
ATOM      3  N   UNL     1       3.158  13.778  21.310  0.00  0.00    +0.000 NA
ATOM      4  N   UNL     1       1.092  13.512  20.563  0.00  0.00    +0.000 N 
ATOM      5  C   UNL     1      -0.023  13.614  19.757  0.00  0.00    +0.000 C 
ATOM      6  O   UNL     1      -0.141  14.431  18.846  0.00  0.00    +0.000 OA
ATOM      7  N   UNL     1      -1.023  12.690  19.996  0.00  0.00    +0.000 N 
ATOM      8  H   UNL     1       1.558  15.418  19.089  0.00  0.00    +0.000 HD
ATOM      9  H   UNL     1       3.976  14.385  21.255  0.00  0.00    +0.000 HD
ATOM     10  H   UNL     1       1.163  12.721  21.184  0.00  0.00    +0.000 HD
ATOM     11  H   UNL     1      -1.577  12.562  19.157  0.00  0.00    +0.000 HD
ENDROOT
BRANCH   7  12
ATOM     12  C   UNL     1      -0.874  11.564  20.833  0.00  0.00    +0.000 A 
ATOM     13  C   UNL     1      -1.317  11.645  22.179  0.00  0.00    +0.000 A 
ATOM     14  C   UNL     1      -1.026  10.564  23.031  0.00  0.00    +0.000 A 
ATOM     15  C   UNL     1      -0.354   9.438  22.572  0.00  0.00    +0.000 A 
ATOM     16  C   UNL     1       0.037   9.358  21.241  0.00  0.00    +0.000 A 
ATOM     17  C   UNL     1      -0.225  10.401  20.335  0.00  0.00    +0.000 A 
BRANCH  13  18
ATOM     18  C   UNL     1      -2.092  12.801  22.817  0.00  0.00    +0.000 C 
ATOM     19  C   UNL     1      -3.235  12.316  23.712  0.00  0.00    +0.000 C 
ATOM     20  C   UNL     1      -1.256  13.873  23.521  0.00  0.00    +0.000 C 
ENDBRANCH  13  18
BRANCH  17  21
ATOM     21  C   UNL     1       0.266  10.265  18.890  0.00  0.00    +0.000 C 
ATOM     22  C   UNL     1       1.374   9.213  18.773  0.00  0.00    +0.000 C 
ATOM     23  C   UNL     1      -0.849   9.912  17.888  0.00  0.00    +0.000 C 
ENDBRANCH  17  21
ENDBRANCH   7  12
BRANCH   1  25
ATOM     24  C   UNL     1       3.811  15.297  17.765  0.00  0.00    +0.000 C 
ATOM     25  C   UNL     1       3.610  15.799  19.182  0.00  0.00    +0.000 C 
ENDBRANCH   1  25
TORSDOF 4
ENDMDL
