MODEL 1
REMARK VINA RESULT:      -7.3      0.000      0.000
REMARK  Name = 
REMARK  9 active torsions:
REMARK  status: ('A' for Active; 'I' for Inactive)
REMARK    1  A    between atoms: C_1  and  C_2
REMARK    2  A    between atoms: C_2  and  C_3
REMARK    3  A    between atoms: C_3  and  C_4
REMARK    4  A    between atoms: C_3  and  N_5
REMARK    5  A    between atoms: C_6  and  C_8
REMARK    6  A    between atoms: C_8  and  S_9
REMARK    7  A    between atoms: S_9  and  C_10
REMARK    8  A    between atoms: N_19  and  N_20
REMARK    9  A    between atoms: C_21  and  C_23
REMARK                            x       y       z     vdW  Elec       q    Type
REMARK                         _______ _______ _______ _____ _____    ______ ____
ROOT
ATOM      1  C   UNL     1       3.842   5.824  17.965  0.00  0.00    +0.000 A 
ATOM      2  N   UNL     1       4.085   4.569  17.686  0.00  0.00    +0.000 NA
ATOM      3  C   UNL     1       3.206   3.666  18.300  0.00  0.00    +0.000 A 
ATOM      4  C   UNL     1       3.117   2.291  17.982  0.00  0.00    +0.000 A 
ATOM      5  C   UNL     1       2.060   1.691  18.640  0.00  0.00    +0.000 A 
ATOM      6  S   UNL     1       1.241   2.784  19.680  0.00  0.00    +0.000 S 
ATOM      7  C   UNL     1       2.268   4.048  19.212  0.00  0.00    +0.000 A 
ATOM      8  C   UNL     1       2.133   5.391  19.680  0.00  0.00    +0.000 A 
ATOM      9  O   UNL     1       1.485   5.696  20.678  0.00  0.00    +0.000 OA
ATOM     10  N   UNL     1       2.880   6.283  18.884  0.00  0.00    +0.000 N 
ENDROOT
BRANCH  10  11
ATOM     11  N   UNL     1       2.714   7.676  19.125  0.00  0.00    +0.000 N 
ATOM     12  C   UNL     1       1.777   8.386  18.389  0.00  0.00    +0.000 C 
ATOM     13  O   UNL     1       1.076   7.931  17.495  0.00  0.00    +0.000 OA
ATOM     14  H   UNL     1       3.571   8.186  19.311  0.00  0.00    +0.000 HD
BRANCH  12  15
ATOM     15  C   UNL     1       1.741   9.840  18.674  0.00  0.00    +0.000 A 
ATOM     16  C   UNL     1       0.915  10.284  19.712  0.00  0.00    +0.000 A 
ATOM     17  C   UNL     1       0.751  11.648  19.927  0.00  0.00    +0.000 A 
ATOM     18  C   UNL     1       1.421  12.565  19.116  0.00  0.00    +0.000 A 
ATOM     19  C   UNL     1       2.283  12.123  18.112  0.00  0.00    +0.000 A 
ATOM     20  C   UNL     1       2.460  10.759  17.900  0.00  0.00    +0.000 A 
ENDBRANCH  12  15
ENDBRANCH  10  11
BRANCH   1  21
ATOM     21  S   UNL     1       4.688   7.014  16.966  0.00  0.00    +0.000 S 
BRANCH  21  22
ATOM     22  C   UNL     1       6.440   6.743  17.339  0.00  0.00    +0.000 C 
BRANCH  22  24
ATOM     23  N   UNL     1       6.640   5.680  15.124  0.00  0.00    +0.000 N 
ATOM     24  C   UNL     1       6.988   5.606  16.454  0.00  0.00    +0.000 C 
ATOM     25  O   UNL     1       7.672   4.713  16.932  0.00  0.00    +0.000 OA
ATOM     26  H   UNL     1       6.034   6.430  14.813  0.00  0.00    +0.000 HD
BRANCH  23  27
ATOM     27  C   UNL     1       7.070   4.692  14.142  0.00  0.00    +0.000 C 
ATOM     28  C   UNL     1       7.821   5.354  12.986  0.00  0.00    +0.000 C 
BRANCH  27  30
ATOM     29  C   UNL     1       6.052   3.287  12.231  0.00  0.00    +0.000 C 
ATOM     30  C   UNL     1       5.870   3.856  13.634  0.00  0.00    +0.000 C 
ENDBRANCH  27  30
ENDBRANCH  23  27
ENDBRANCH  22  24
ENDBRANCH  21  22
ENDBRANCH   1  21
TORSDOF 7
ENDMDL
MODEL 2
REMARK VINA RESULT:      -7.1      3.647      6.686
REMARK  Name = 
REMARK  9 active torsions:
REMARK  status: ('A' for Active; 'I' for Inactive)
REMARK    1  A    between atoms: C_1  and  C_2
REMARK    2  A    between atoms: C_2  and  C_3
REMARK    3  A    between atoms: C_3  and  C_4
REMARK    4  A    between atoms: C_3  and  N_5
REMARK    5  A    between atoms: C_6  and  C_8
REMARK    6  A    between atoms: C_8  and  S_9
REMARK    7  A    between atoms: S_9  and  C_10
REMARK    8  A    between atoms: N_19  and  N_20
REMARK    9  A    between atoms: C_21  and  C_23
REMARK                            x       y       z     vdW  Elec       q    Type
REMARK                         _______ _______ _______ _____ _____    ______ ____
ROOT
ATOM      1  C   UNL     1       5.018   4.983  18.459  0.00  0.00    +0.000 A 
ATOM      2  N   UNL     1       4.438   5.314  19.584  0.00  0.00    +0.000 NA
ATOM      3  C   UNL     1       3.186   4.713  19.780  0.00  0.00    +0.000 A 
ATOM      4  C   UNL     1       2.471   4.730  21.000  0.00  0.00    +0.000 A 
ATOM      5  C   UNL     1       1.346   3.929  20.934  0.00  0.00    +0.000 A 
ATOM      6  S   UNL     1       1.140   3.231  19.379  0.00  0.00    +0.000 S 
ATOM      7  C   UNL     1       2.567   3.961  18.827  0.00  0.00    +0.000 A 
ATOM      8  C   UNL     1       3.100   3.765  17.516  0.00  0.00    +0.000 A 
ATOM      9  O   UNL     1       2.441   3.323  16.580  0.00  0.00    +0.000 OA
ATOM     10  N   UNL     1       4.439   4.199  17.443  0.00  0.00    +0.000 N 
ENDROOT
BRANCH  10  11
ATOM     11  N   UNL     1       5.158   3.917  16.247  0.00  0.00    +0.000 N 
ATOM     12  C   UNL     1       5.352   4.927  15.317  0.00  0.00    +0.000 C 
ATOM     13  O   UNL     1       4.922   6.070  15.401  0.00  0.00    +0.000 OA
ATOM     14  H   UNL     1       4.978   3.006  15.842  0.00  0.00    +0.000 HD
BRANCH  12  15
ATOM     15  C   UNL     1       6.050   4.502  14.081  0.00  0.00    +0.000 A 
ATOM     16  C   UNL     1       7.217   5.182  13.720  0.00  0.00    +0.000 A 
ATOM     17  C   UNL     1       7.830   4.905  12.503  0.00  0.00    +0.000 A 
ATOM     18  C   UNL     1       7.285   3.939  11.655  0.00  0.00    +0.000 A 
ATOM     19  C   UNL     1       6.149   3.224  12.036  0.00  0.00    +0.000 A 
ATOM     20  C   UNL     1       5.538   3.491  13.258  0.00  0.00    +0.000 A 
ENDBRANCH  12  15
ENDBRANCH  10  11
BRANCH   1  21
ATOM     21  S   UNL     1       6.723   5.430  18.310  0.00  0.00    +0.000 S 
BRANCH  21  22
ATOM     22  C   UNL     1       6.685   7.153  17.754  0.00  0.00    +0.000 C 
BRANCH  22  24
ATOM     23  N   UNL     1       7.978   9.239  17.982  0.00  0.00    +0.000 N 
ATOM     24  C   UNL     1       7.911   7.904  18.310  0.00  0.00    +0.000 C 
ATOM     25  O   UNL     1       8.751   7.324  18.984  0.00  0.00    +0.000 OA
ATOM     26  H   UNL     1       7.264   9.637  17.385  0.00  0.00    +0.000 HD
BRANCH  23  27
ATOM     27  C   UNL     1       9.067  10.105  18.423  0.00  0.00    +0.000 C 
ATOM     28  C   UNL     1       9.083  10.238  19.947  0.00  0.00    +0.000 C 
BRANCH  27  30
ATOM     29  C   UNL     1      10.336  12.184  17.571  0.00  0.00    +0.000 C 
ATOM     30  C   UNL     1       8.989  11.488  17.733  0.00  0.00    +0.000 C 
ENDBRANCH  27  30
ENDBRANCH  23  27
ENDBRANCH  22  24
ENDBRANCH  21  22
ENDBRANCH   1  21
TORSDOF 7
ENDMDL
MODEL 3
REMARK VINA RESULT:      -6.9      1.845      7.279
REMARK  Name = 
REMARK  9 active torsions:
REMARK  status: ('A' for Active; 'I' for Inactive)
REMARK    1  A    between atoms: C_1  and  C_2
REMARK    2  A    between atoms: C_2  and  C_3
REMARK    3  A    between atoms: C_3  and  C_4
REMARK    4  A    between atoms: C_3  and  N_5
REMARK    5  A    between atoms: C_6  and  C_8
REMARK    6  A    between atoms: C_8  and  S_9
REMARK    7  A    between atoms: S_9  and  C_10
REMARK    8  A    between atoms: N_19  and  N_20
REMARK    9  A    between atoms: C_21  and  C_23
REMARK                            x       y       z     vdW  Elec       q    Type
REMARK                         _______ _______ _______ _____ _____    ______ ____
ROOT
ATOM      1  C   UNL     1       3.268   5.656  18.296  0.00  0.00    +0.000 A 
ATOM      2  N   UNL     1       2.694   5.762  19.467  0.00  0.00    +0.000 NA
ATOM      3  C   UNL     1       2.448   4.533  20.097  0.00  0.00    +0.000 A 
ATOM      4  C   UNL     1       2.052   4.389  21.446  0.00  0.00    +0.000 A 
ATOM      5  C   UNL     1       2.035   3.060  21.825  0.00  0.00    +0.000 A 
ATOM      6  S   UNL     1       2.430   2.011  20.525  0.00  0.00    +0.000 S 
ATOM      7  C   UNL     1       2.662   3.332  19.489  0.00  0.00    +0.000 A 
ATOM      8  C   UNL     1       3.094   3.208  18.132  0.00  0.00    +0.000 A 
ATOM      9  O   UNL     1       3.034   2.157  17.500  0.00  0.00    +0.000 OA
ATOM     10  N   UNL     1       3.529   4.448  17.622  0.00  0.00    +0.000 N 
ENDROOT
BRANCH  10  11
ATOM     11  N   UNL     1       4.142   4.453  16.338  0.00  0.00    +0.000 N 
ATOM     12  C   UNL     1       5.519   4.312  16.242  0.00  0.00    +0.000 C 
ATOM     13  O   UNL     1       6.296   4.219  17.183  0.00  0.00    +0.000 OA
ATOM     14  H   UNL     1       3.742   5.103  15.672  0.00  0.00    +0.000 HD
BRANCH  12  15
ATOM     15  C   UNL     1       6.054   4.402  14.863  0.00  0.00    +0.000 A 
ATOM     16  C   UNL     1       5.404   3.677  13.859  0.00  0.00    +0.000 A 
ATOM     17  C   UNL     1       5.948   3.629  12.581  0.00  0.00    +0.000 A 
ATOM     18  C   UNL     1       7.131   4.314  12.302  0.00  0.00    +0.000 A 
ATOM     19  C   UNL     1       7.754   5.079  13.290  0.00  0.00    +0.000 A 
ATOM     20  C   UNL     1       7.208   5.140  14.569  0.00  0.00    +0.000 A 
ENDBRANCH  12  15
ENDBRANCH  10  11
BRANCH   1  21
ATOM     21  S   UNL     1       3.906   7.158  17.612  0.00  0.00    +0.000 S 
BRANCH  21  22
ATOM     22  C   UNL     1       2.429   8.090  17.129  0.00  0.00    +0.000 C 
BRANCH  22  24
ATOM     23  N   UNL     1       1.408   8.633  19.305  0.00  0.00    +0.000 N 
ATOM     24  C   UNL     1       2.093   9.127  18.218  0.00  0.00    +0.000 C 
ATOM     25  O   UNL     1       2.418  10.299  18.091  0.00  0.00    +0.000 OA
ATOM     26  H   UNL     1       1.139   7.656  19.317  0.00  0.00    +0.000 HD
BRANCH  23  27
ATOM     27  C   UNL     1       1.010   9.469  20.432  0.00  0.00    +0.000 C 
ATOM     28  C   UNL     1       1.275   8.765  21.763  0.00  0.00    +0.000 C 
BRANCH  27  30
ATOM     29  C   UNL     1      -0.692  11.124  19.417  0.00  0.00    +0.000 C 
ATOM     30  C   UNL     1      -0.471   9.903  20.303  0.00  0.00    +0.000 C 
ENDBRANCH  27  30
ENDBRANCH  23  27
ENDBRANCH  22  24
ENDBRANCH  21  22
ENDBRANCH   1  21
TORSDOF 7
ENDMDL
MODEL 4
REMARK VINA RESULT:      -6.9      4.908      9.241
REMARK  Name = 
REMARK  9 active torsions:
REMARK  status: ('A' for Active; 'I' for Inactive)
REMARK    1  A    between atoms: C_1  and  C_2
REMARK    2  A    between atoms: C_2  and  C_3
REMARK    3  A    between atoms: C_3  and  C_4
REMARK    4  A    between atoms: C_3  and  N_5
REMARK    5  A    between atoms: C_6  and  C_8
REMARK    6  A    between atoms: C_8  and  S_9
REMARK    7  A    between atoms: S_9  and  C_10
REMARK    8  A    between atoms: N_19  and  N_20
REMARK    9  A    between atoms: C_21  and  C_23
REMARK                            x       y       z     vdW  Elec       q    Type
REMARK                         _______ _______ _______ _____ _____    ______ ____
ROOT
ATOM      1  C   UNL     1       0.119  10.864  19.132  0.00  0.00    +0.000 A 
ATOM      2  N   UNL     1       0.924  10.353  18.235  0.00  0.00    +0.000 NA
ATOM      3  C   UNL     1       1.544   9.161  18.637  0.00  0.00    +0.000 A 
ATOM      4  C   UNL     1       2.269   8.306  17.777  0.00  0.00    +0.000 A 
ATOM      5  C   UNL     1       2.633   7.138  18.420  0.00  0.00    +0.000 A 
ATOM      6  S   UNL     1       2.150   7.130  20.067  0.00  0.00    +0.000 S 
ATOM      7  C   UNL     1       1.428   8.653  19.896  0.00  0.00    +0.000 A 
ATOM      8  C   UNL     1       0.719   9.315  20.945  0.00  0.00    +0.000 A 
ATOM      9  O   UNL     1       0.828   9.010  22.129  0.00  0.00    +0.000 OA
ATOM     10  N   UNL     1      -0.056  10.380  20.441  0.00  0.00    +0.000 N 
ENDROOT
BRANCH  10  11
ATOM     11  N   UNL     1      -0.946  11.030  21.342  0.00  0.00    +0.000 N 
ATOM     12  C   UNL     1      -0.520  12.163  22.019  0.00  0.00    +0.000 C 
ATOM     13  O   UNL     1       0.596  12.661  21.949  0.00  0.00    +0.000 OA
ATOM     14  H   UNL     1      -1.530  10.410  21.892  0.00  0.00    +0.000 HD
BRANCH  12  15
ATOM     15  C   UNL     1      -1.504  12.712  22.981  0.00  0.00    +0.000 A 
ATOM     16  C   UNL     1      -2.624  11.935  23.289  0.00  0.00    +0.000 A 
ATOM     17  C   UNL     1      -3.635  12.465  24.084  0.00  0.00    +0.000 A 
ATOM     18  C   UNL     1      -3.520  13.764  24.580  0.00  0.00    +0.000 A 
ATOM     19  C   UNL     1      -2.379  14.524  24.314  0.00  0.00    +0.000 A 
ATOM     20  C   UNL     1      -1.359  13.994  23.529  0.00  0.00    +0.000 A 
ENDBRANCH  12  15
ENDBRANCH  10  11
BRANCH   1  21
ATOM     21  S   UNL     1      -0.940  12.163  18.565  0.00  0.00    +0.000 S 
BRANCH  21  22
ATOM     22  C   UNL     1      -2.081  11.342  17.422  0.00  0.00    +0.000 C 
BRANCH  22  24
ATOM     23  N   UNL     1      -3.827  12.369  18.826  0.00  0.00    +0.000 N 
ATOM     24  C   UNL     1      -3.488  11.285  18.048  0.00  0.00    +0.000 C 
ATOM     25  O   UNL     1      -4.223  10.328  17.855  0.00  0.00    +0.000 OA
ATOM     26  H   UNL     1      -3.146  13.105  18.971  0.00  0.00    +0.000 HD
BRANCH  23  27
ATOM     27  C   UNL     1      -5.118  12.486  19.494  0.00  0.00    +0.000 C 
ATOM     28  C   UNL     1      -6.179  13.053  18.549  0.00  0.00    +0.000 C 
BRANCH  27  30
ATOM     29  C   UNL     1      -3.885  14.370  20.756  0.00  0.00    +0.000 C 
ATOM     30  C   UNL     1      -5.000  13.330  20.787  0.00  0.00    +0.000 C 
ENDBRANCH  27  30
ENDBRANCH  23  27
ENDBRANCH  22  24
ENDBRANCH  21  22
ENDBRANCH   1  21
TORSDOF 7
ENDMDL
MODEL 5
REMARK VINA RESULT:      -6.8      3.295      6.559
REMARK  Name = 
REMARK  9 active torsions:
REMARK  status: ('A' for Active; 'I' for Inactive)
REMARK    1  A    between atoms: C_1  and  C_2
REMARK    2  A    between atoms: C_2  and  C_3
REMARK    3  A    between atoms: C_3  and  C_4
REMARK    4  A    between atoms: C_3  and  N_5
REMARK    5  A    between atoms: C_6  and  C_8
REMARK    6  A    between atoms: C_8  and  S_9
REMARK    7  A    between atoms: S_9  and  C_10
REMARK    8  A    between atoms: N_19  and  N_20
REMARK    9  A    between atoms: C_21  and  C_23
REMARK                            x       y       z     vdW  Elec       q    Type
REMARK                         _______ _______ _______ _____ _____    ______ ____
ROOT
ATOM      1  C   UNL     1       3.834   5.882  17.931  0.00  0.00    +0.000 A 
ATOM      2  N   UNL     1       3.280   6.075  19.101  0.00  0.00    +0.000 NA
ATOM      3  C   UNL     1       2.633   4.944  19.620  0.00  0.00    +0.000 A 
ATOM      4  C   UNL     1       2.162   4.830  20.948  0.00  0.00    +0.000 A 
ATOM      5  C   UNL     1       1.707   3.551  21.211  0.00  0.00    +0.000 A 
ATOM      6  S   UNL     1       1.795   2.537  19.828  0.00  0.00    +0.000 S 
ATOM      7  C   UNL     1       2.475   3.790  18.913  0.00  0.00    +0.000 A 
ATOM      8  C   UNL     1       2.894   3.641  17.555  0.00  0.00    +0.000 A 
ATOM      9  O   UNL     1       2.526   2.718  16.834  0.00  0.00    +0.000 OA
ATOM     10  N   UNL     1       3.720   4.712  17.158  0.00  0.00    +0.000 N 
ENDROOT
BRANCH  10  11
ATOM     11  N   UNL     1       4.350   4.620  15.885  0.00  0.00    +0.000 N 
ATOM     12  C   UNL     1       5.620   4.069  15.794  0.00  0.00    +0.000 C 
ATOM     13  O   UNL     1       6.298   3.673  16.733  0.00  0.00    +0.000 OA
ATOM     14  H   UNL     1       4.192   5.409  15.269  0.00  0.00    +0.000 HD
BRANCH  12  15
ATOM     15  C   UNL     1       6.205   4.090  14.432  0.00  0.00    +0.000 A 
ATOM     16  C   UNL     1       7.234   5.001  14.174  0.00  0.00    +0.000 A 
ATOM     17  C   UNL     1       7.720   5.146  12.880  0.00  0.00    +0.000 A 
ATOM     18  C   UNL     1       7.188   4.371  11.848  0.00  0.00    +0.000 A 
ATOM     19  C   UNL     1       6.196   3.426  12.112  0.00  0.00    +0.000 A 
ATOM     20  C   UNL     1       5.714   3.270  13.408  0.00  0.00    +0.000 A 
ENDBRANCH  12  15
ENDBRANCH  10  11
BRANCH   1  21
ATOM     21  S   UNL     1       4.941   7.149  17.385  0.00  0.00    +0.000 S 
BRANCH  21  22
ATOM     22  C   UNL     1       6.533   6.700  18.125  0.00  0.00    +0.000 C 
BRANCH  22  24
ATOM     23  N   UNL     1       7.826   8.763  18.502  0.00  0.00    +0.000 N 
ATOM     24  C   UNL     1       7.617   7.692  17.662  0.00  0.00    +0.000 C 
ATOM     25  O   UNL     1       8.224   7.517  16.615  0.00  0.00    +0.000 OA
ATOM     26  H   UNL     1       7.253   8.860  19.331  0.00  0.00    +0.000 HD
BRANCH  23  27
ATOM     27  C   UNL     1       8.814   9.800  18.225  0.00  0.00    +0.000 C 
ATOM     28  C   UNL     1       9.508  10.258  19.508  0.00  0.00    +0.000 C 
BRANCH  27  30
ATOM     29  C   UNL     1       8.780  12.347  17.809  0.00  0.00    +0.000 C 
ATOM     30  C   UNL     1       8.173  10.990  17.470  0.00  0.00    +0.000 C 
ENDBRANCH  27  30
ENDBRANCH  23  27
ENDBRANCH  22  24
ENDBRANCH  21  22
ENDBRANCH   1  21
TORSDOF 7
ENDMDL
MODEL 6
REMARK VINA RESULT:      -6.8      5.351      9.382
REMARK  Name = 
REMARK  9 active torsions:
REMARK  status: ('A' for Active; 'I' for Inactive)
REMARK    1  A    between atoms: C_1  and  C_2
REMARK    2  A    between atoms: C_2  and  C_3
REMARK    3  A    between atoms: C_3  and  C_4
REMARK    4  A    between atoms: C_3  and  N_5
REMARK    5  A    between atoms: C_6  and  C_8
REMARK    6  A    between atoms: C_8  and  S_9
REMARK    7  A    between atoms: S_9  and  C_10
REMARK    8  A    between atoms: N_19  and  N_20
REMARK    9  A    between atoms: C_21  and  C_23
REMARK                            x       y       z     vdW  Elec       q    Type
REMARK                         _______ _______ _______ _____ _____    ______ ____
ROOT
ATOM      1  C   UNL     1      -0.014  11.057  19.057  0.00  0.00    +0.000 A 
ATOM      2  N   UNL     1       0.816  10.532  18.192  0.00  0.00    +0.000 NA
ATOM      3  C   UNL     1       1.426   9.348  18.632  0.00  0.00    +0.000 A 
ATOM      4  C   UNL     1       2.176   8.479  17.807  0.00  0.00    +0.000 A 
ATOM      5  C   UNL     1       2.522   7.322  18.480  0.00  0.00    +0.000 A 
ATOM      6  S   UNL     1       1.994   7.342  20.113  0.00  0.00    +0.000 S 
ATOM      7  C   UNL     1       1.275   8.861  19.896  0.00  0.00    +0.000 A 
ATOM      8  C   UNL     1       0.536   9.540  20.913  0.00  0.00    +0.000 A 
ATOM      9  O   UNL     1       0.612   9.255  22.105  0.00  0.00    +0.000 OA
ATOM     10  N   UNL     1      -0.225  10.594  20.369  0.00  0.00    +0.000 N 
ENDROOT
BRANCH  10  11
ATOM     11  N   UNL     1      -1.141  11.258  21.233  0.00  0.00    +0.000 N 
ATOM     12  C   UNL     1      -0.711  12.355  21.965  0.00  0.00    +0.000 C 
ATOM     13  O   UNL     1       0.426  12.808  21.975  0.00  0.00    +0.000 OA
ATOM     14  H   UNL     1      -1.782  10.650  21.731  0.00  0.00    +0.000 HD
BRANCH  12  15
ATOM     15  C   UNL     1      -1.728  12.922  22.882  0.00  0.00    +0.000 A 
ATOM     16  C   UNL     1      -1.450  14.149  23.492  0.00  0.00    +0.000 A 
ATOM     17  C   UNL     1      -2.314  14.652  24.458  0.00  0.00    +0.000 A 
ATOM     18  C   UNL     1      -3.462  13.936  24.803  0.00  0.00    +0.000 A 
ATOM     19  C   UNL     1      -3.767  12.736  24.160  0.00  0.00    +0.000 A 
ATOM     20  C   UNL     1      -2.910  12.234  23.185  0.00  0.00    +0.000 A 
ENDBRANCH  12  15
ENDBRANCH  10  11
BRANCH   1  21
ATOM     21  S   UNL     1      -1.059  12.344  18.439  0.00  0.00    +0.000 S 
BRANCH  21  22
ATOM     22  C   UNL     1      -2.494  11.469  17.763  0.00  0.00    +0.000 C 
BRANCH  22  24
ATOM     23  N   UNL     1      -4.907  11.205  18.188  0.00  0.00    +0.000 N 
ATOM     24  C   UNL     1      -3.718  11.709  18.667  0.00  0.00    +0.000 C 
ATOM     25  O   UNL     1      -3.611  12.314  19.724  0.00  0.00    +0.000 OA
ATOM     26  H   UNL     1      -4.921  10.751  17.283  0.00  0.00    +0.000 HD
BRANCH  23  27
ATOM     27  C   UNL     1      -6.167  11.337  18.911  0.00  0.00    +0.000 C 
ATOM     28  C   UNL     1      -6.822   9.973  19.131  0.00  0.00    +0.000 C 
BRANCH  27  30
ATOM     29  C   UNL     1      -6.512  13.001  16.968  0.00  0.00    +0.000 C 
ATOM     30  C   UNL     1      -7.122  12.316  18.186  0.00  0.00    +0.000 C 
ENDBRANCH  27  30
ENDBRANCH  23  27
ENDBRANCH  22  24
ENDBRANCH  21  22
ENDBRANCH   1  21
TORSDOF 7
ENDMDL
MODEL 7
REMARK VINA RESULT:      -6.8      5.013      9.460
REMARK  Name = 
REMARK  9 active torsions:
REMARK  status: ('A' for Active; 'I' for Inactive)
REMARK    1  A    between atoms: C_1  and  C_2
REMARK    2  A    between atoms: C_2  and  C_3
REMARK    3  A    between atoms: C_3  and  C_4
REMARK    4  A    between atoms: C_3  and  N_5
REMARK    5  A    between atoms: C_6  and  C_8
REMARK    6  A    between atoms: C_8  and  S_9
REMARK    7  A    between atoms: S_9  and  C_10
REMARK    8  A    between atoms: N_19  and  N_20
REMARK    9  A    between atoms: C_21  and  C_23
REMARK                            x       y       z     vdW  Elec       q    Type
REMARK                         _______ _______ _______ _____ _____    ______ ____
ROOT
ATOM      1  C   UNL     1       0.093  10.711  19.104  0.00  0.00    +0.000 A 
ATOM      2  N   UNL     1       0.928  10.165  18.258  0.00  0.00    +0.000 NA
ATOM      3  C   UNL     1       1.555   9.007  18.741  0.00  0.00    +0.000 A 
ATOM      4  C   UNL     1       2.315   8.117  17.947  0.00  0.00    +0.000 A 
ATOM      5  C   UNL     1       2.679   6.992  18.663  0.00  0.00    +0.000 A 
ATOM      6  S   UNL     1       2.153   7.067  20.296  0.00  0.00    +0.000 S 
ATOM      7  C   UNL     1       1.414   8.567  20.023  0.00  0.00    +0.000 A 
ATOM      8  C   UNL     1       0.668   9.274  21.015  0.00  0.00    +0.000 A 
ATOM      9  O   UNL     1       0.751   9.036  22.217  0.00  0.00    +0.000 OA
ATOM     10  N   UNL     1      -0.109  10.297  20.434  0.00  0.00    +0.000 N 
ENDROOT
BRANCH  10  11
ATOM     11  N   UNL     1      -1.032  10.980  21.274  0.00  0.00    +0.000 N 
ATOM     12  C   UNL     1      -0.628  12.135  21.928  0.00  0.00    +0.000 C 
ATOM     13  O   UNL     1       0.492  12.626  21.887  0.00  0.00    +0.000 OA
ATOM     14  H   UNL     1      -1.641  10.382  21.821  0.00  0.00    +0.000 HD
BRANCH  12  15
ATOM     15  C   UNL     1      -1.648  12.721  22.830  0.00  0.00    +0.000 A 
ATOM     16  C   UNL     1      -1.407  13.997  23.351  0.00  0.00    +0.000 A 
ATOM     17  C   UNL     1      -2.270  14.529  24.301  0.00  0.00    +0.000 A 
ATOM     18  C   UNL     1      -3.380  13.794  24.721  0.00  0.00    +0.000 A 
ATOM     19  C   UNL     1      -3.649  12.542  24.166  0.00  0.00    +0.000 A 
ATOM     20  C   UNL     1      -2.794  12.009  23.206  0.00  0.00    +0.000 A 
ENDBRANCH  12  15
ENDBRANCH  10  11
BRANCH   1  21
ATOM     21  S   UNL     1      -0.970  11.960  18.440  0.00  0.00    +0.000 S 
BRANCH  21  22
ATOM     22  C   UNL     1      -2.437  11.051  17.890  0.00  0.00    +0.000 C 
BRANCH  22  24
ATOM     23  N   UNL     1      -3.655  12.458  19.506  0.00  0.00    +0.000 N 
ATOM     24  C   UNL     1      -3.707  11.832  18.281  0.00  0.00    +0.000 C 
ATOM     25  O   UNL     1      -4.677  11.867  17.537  0.00  0.00    +0.000 OA
ATOM     26  H   UNL     1      -2.830  12.347  20.082  0.00  0.00    +0.000 HD
BRANCH  23  27
ATOM     27  C   UNL     1      -4.764  13.244  20.036  0.00  0.00    +0.000 C 
ATOM     28  C   UNL     1      -4.256  14.425  20.865  0.00  0.00    +0.000 C 
BRANCH  27  30
ATOM     29  C   UNL     1      -6.537  13.106  21.906  0.00  0.00    +0.000 C 
ATOM     30  C   UNL     1      -5.734  12.354  20.850  0.00  0.00    +0.000 C 
ENDBRANCH  27  30
ENDBRANCH  23  27
ENDBRANCH  22  24
ENDBRANCH  21  22
ENDBRANCH   1  21
TORSDOF 7
ENDMDL
MODEL 8
REMARK VINA RESULT:      -6.8      3.911      6.989
REMARK  Name = 
REMARK  9 active torsions:
REMARK  status: ('A' for Active; 'I' for Inactive)
REMARK    1  A    between atoms: C_1  and  C_2
REMARK    2  A    between atoms: C_2  and  C_3
REMARK    3  A    between atoms: C_3  and  C_4
REMARK    4  A    between atoms: C_3  and  N_5
REMARK    5  A    between atoms: C_6  and  C_8
REMARK    6  A    between atoms: C_8  and  S_9
REMARK    7  A    between atoms: S_9  and  C_10
REMARK    8  A    between atoms: N_19  and  N_20
REMARK    9  A    between atoms: C_21  and  C_23
REMARK                            x       y       z     vdW  Elec       q    Type
REMARK                         _______ _______ _______ _____ _____    ______ ____
ROOT
ATOM      1  C   UNL     1       6.671   5.524  16.793  0.00  0.00    +0.000 A 
ATOM      2  N   UNL     1       7.417   5.940  15.801  0.00  0.00    +0.000 NA
ATOM      3  C   UNL     1       7.250   5.209  14.616  0.00  0.00    +0.000 A 
ATOM      4  C   UNL     1       7.763   5.597  13.357  0.00  0.00    +0.000 A 
ATOM      5  C   UNL     1       7.311   4.762  12.352  0.00  0.00    +0.000 A 
ATOM      6  S   UNL     1       6.334   3.489  12.960  0.00  0.00    +0.000 S 
ATOM      7  C   UNL     1       6.485   4.084  14.539  0.00  0.00    +0.000 A 
ATOM      8  C   UNL     1       5.832   3.503  15.670  0.00  0.00    +0.000 A 
ATOM      9  O   UNL     1       5.370   2.366  15.670  0.00  0.00    +0.000 OA
ATOM     10  N   UNL     1       5.850   4.381  16.773  0.00  0.00    +0.000 N 
ENDROOT
BRANCH  10  11
ATOM     11  N   UNL     1       5.096   4.010  17.921  0.00  0.00    +0.000 N 
ATOM     12  C   UNL     1       3.741   4.305  17.968  0.00  0.00    +0.000 C 
ATOM     13  O   UNL     1       3.109   4.906  17.109  0.00  0.00    +0.000 OA
ATOM     14  H   UNL     1       5.577   4.120  18.806  0.00  0.00    +0.000 HD
BRANCH  12  15
ATOM     15  C   UNL     1       3.073   3.937  19.238  0.00  0.00    +0.000 A 
ATOM     16  C   UNL     1       3.653   2.930  20.016  0.00  0.00    +0.000 A 
ATOM     17  C   UNL     1       2.992   2.463  21.146  0.00  0.00    +0.000 A 
ATOM     18  C   UNL     1       1.760   3.011  21.506  0.00  0.00    +0.000 A 
ATOM     19  C   UNL     1       1.203   4.050  20.759  0.00  0.00    +0.000 A 
ATOM     20  C   UNL     1       1.866   4.528  19.633  0.00  0.00    +0.000 A 
ENDBRANCH  12  15
ENDBRANCH  10  11
BRANCH   1  21
ATOM     21  S   UNL     1       6.583   6.601  18.194  0.00  0.00    +0.000 S 
BRANCH  21  22
ATOM     22  C   UNL     1       8.277   7.208  18.398  0.00  0.00    +0.000 C 
BRANCH  22  24
ATOM     23  N   UNL     1       9.187   9.376  19.136  0.00  0.00    +0.000 N 
ATOM     24  C   UNL     1       8.290   8.746  18.304  0.00  0.00    +0.000 C 
ATOM     25  O   UNL     1       7.539   9.335  17.540  0.00  0.00    +0.000 OA
ATOM     26  H   UNL     1       9.747   8.819  19.771  0.00  0.00    +0.000 HD
BRANCH  23  27
ATOM     27  C   UNL     1       9.338  10.826  19.179  0.00  0.00    +0.000 C 
ATOM     28  C   UNL     1      10.240  11.321  18.048  0.00  0.00    +0.000 C 
BRANCH  27  30
ATOM     29  C   UNL     1       8.998  12.360  21.227  0.00  0.00    +0.000 C 
ATOM     30  C   UNL     1       9.857  11.289  20.562  0.00  0.00    +0.000 C 
ENDBRANCH  27  30
ENDBRANCH  23  27
ENDBRANCH  22  24
ENDBRANCH  21  22
ENDBRANCH   1  21
TORSDOF 7
ENDMDL
MODEL 9
REMARK VINA RESULT:      -6.8      5.335      9.428
REMARK  Name = 
REMARK  9 active torsions:
REMARK  status: ('A' for Active; 'I' for Inactive)
REMARK    1  A    between atoms: C_1  and  C_2
REMARK    2  A    between atoms: C_2  and  C_3
REMARK    3  A    between atoms: C_3  and  C_4
REMARK    4  A    between atoms: C_3  and  N_5
REMARK    5  A    between atoms: C_6  and  C_8
REMARK    6  A    between atoms: C_8  and  S_9
REMARK    7  A    between atoms: S_9  and  C_10
REMARK    8  A    between atoms: N_19  and  N_20
REMARK    9  A    between atoms: C_21  and  C_23
REMARK                            x       y       z     vdW  Elec       q    Type
REMARK                         _______ _______ _______ _____ _____    ______ ____
ROOT
ATOM      1  C   UNL     1       0.122  11.109  19.031  0.00  0.00    +0.000 A 
ATOM      2  N   UNL     1       0.935  10.605  18.138  0.00  0.00    +0.000 NA
ATOM      3  C   UNL     1       1.522   9.390  18.521  0.00  0.00    +0.000 A 
ATOM      4  C   UNL     1       2.249   8.543  17.654  0.00  0.00    +0.000 A 
ATOM      5  C   UNL     1       2.574   7.350  18.273  0.00  0.00    +0.000 A 
ATOM      6  S   UNL     1       2.055   7.309  19.909  0.00  0.00    +0.000 S 
ATOM      7  C   UNL     1       1.368   8.851  19.763  0.00  0.00    +0.000 A 
ATOM      8  C   UNL     1       0.650   9.500  20.815  0.00  0.00    +0.000 A 
ATOM      9  O   UNL     1       0.727   9.161  21.992  0.00  0.00    +0.000 OA
ATOM     10  N   UNL     1      -0.092  10.593  20.323  0.00  0.00    +0.000 N 
ENDROOT
BRANCH  10  11
ATOM     11  N   UNL     1      -0.988  11.238  21.222  0.00  0.00    +0.000 N 
ATOM     12  C   UNL     1      -0.532  12.296  21.993  0.00  0.00    +0.000 C 
ATOM     13  O   UNL     1       0.613  12.728  22.011  0.00  0.00    +0.000 OA
ATOM     14  H   UNL     1      -1.635  10.621  21.700  0.00  0.00    +0.000 HD
BRANCH  12  15
ATOM     15  C   UNL     1      -1.531  12.842  22.942  0.00  0.00    +0.000 A 
ATOM     16  C   UNL     1      -2.713  12.122  23.137  0.00  0.00    +0.000 A 
ATOM     17  C   UNL     1      -3.731  12.662  23.915  0.00  0.00    +0.000 A 
ATOM     18  C   UNL     1      -3.561  13.913  24.509  0.00  0.00    +0.000 A 
ATOM     19  C   UNL     1      -2.363  14.612  24.357  0.00  0.00    +0.000 A 
ATOM     20  C   UNL     1      -1.337  14.071  23.588  0.00  0.00    +0.000 A 
ENDBRANCH  12  15
ENDBRANCH  10  11
BRANCH   1  21
ATOM     21  S   UNL     1      -0.898  12.444  18.477  0.00  0.00    +0.000 S 
BRANCH  21  22
ATOM     22  C   UNL     1      -2.293  11.630  17.657  0.00  0.00    +0.000 C 
BRANCH  22  24
ATOM     23  N   UNL     1      -4.742  11.898  17.696  0.00  0.00    +0.000 N 
ATOM     24  C   UNL     1      -3.588  11.902  18.447  0.00  0.00    +0.000 C 
ATOM     25  O   UNL     1      -3.558  12.111  19.651  0.00  0.00    +0.000 OA
ATOM     26  H   UNL     1      -4.680  11.758  16.695  0.00  0.00    +0.000 HD
BRANCH  23  27
ATOM     27  C   UNL     1      -6.060  12.135  18.276  0.00  0.00    +0.000 C 
ATOM     28  C   UNL     1      -6.790  10.818  18.542  0.00  0.00    +0.000 C 
BRANCH  27  30
ATOM     29  C   UNL     1      -6.967  14.518  17.879  0.00  0.00    +0.000 C 
ATOM     30  C   UNL     1      -6.899  13.079  17.381  0.00  0.00    +0.000 C 
ENDBRANCH  27  30
ENDBRANCH  23  27
ENDBRANCH  22  24
ENDBRANCH  21  22
ENDBRANCH   1  21
TORSDOF 7
ENDMDL
