MODEL 1
REMARK VINA RESULT:      -8.0      0.000      0.000
REMARK  Name = 
REMARK  7 active torsions:
REMARK  status: ('A' for Active; 'I' for Inactive)
REMARK    1  A    between atoms: C_1  and  C_2
REMARK    2  A    between atoms: C_4  and  C_5
REMARK    3  A    between atoms: C_7  and  C_8
REMARK    4  A    between atoms: C_12  and  C_13
REMARK    5  A    between atoms: C_17  and  C_18
REMARK    6  A    between atoms: C_26  and  N_27
REMARK    7  A    between atoms: C_30  and  N_31
REMARK                            x       y       z     vdW  Elec       q    Type
REMARK                         _______ _______ _______ _____ _____    ______ ____
ROOT
ATOM      1  C   UNL     1      -1.220  11.340  21.826  0.00  0.00    +0.000 A 
ATOM      2  C   UNL     1      -0.892  11.083  23.171  0.00  0.00    +0.000 A 
ATOM      3  N   UNL     1      -0.029  10.155  23.623  0.00  0.00    +0.000 NA
ATOM      4  C   UNL     1       0.574   9.424  22.673  0.00  0.00    +0.000 A 
ATOM      5  C   UNL     1       0.359   9.532  21.292  0.00  0.00    +0.000 A 
ATOM      6  C   UNL     1      -0.582  10.512  20.826  0.00  0.00    +0.000 A 
ENDROOT
BRANCH   5   7
ATOM      7  C   UNL     1       1.196   8.666  20.446  0.00  0.00    +0.000 A 
ATOM      8  N   UNL     1       1.858   9.032  19.363  0.00  0.00    +0.000 NA
ATOM      9  C   UNL     1       2.500   7.925  18.899  0.00  0.00    +0.000 A 
ATOM     10  C   UNL     1       3.279   7.775  17.748  0.00  0.00    +0.000 A 
ATOM     11  C   UNL     1       3.938   6.555  17.527  0.00  0.00    +0.000 A 
ATOM     12  C   UNL     1       3.775   5.499  18.446  0.00  0.00    +0.000 A 
ATOM     13  C   UNL     1       2.937   5.614  19.565  0.00  0.00    +0.000 A 
ATOM     14  C   UNL     1       2.317   6.849  19.754  0.00  0.00    +0.000 A 
ATOM     15  N   UNL     1       1.447   7.328  20.703  0.00  0.00    +0.000 N 
ATOM     16  H   UNL     1       1.059   6.792  21.466  0.00  0.00    +0.000 HD
BRANCH  11  17
ATOM     17  C   UNL     1       4.842   6.399  16.331  0.00  0.00    +0.000 C 
ATOM     18  F   UNL     1       4.878   5.131  15.831  0.00  0.00    +0.000 F 
ATOM     19  F   UNL     1       4.464   7.197  15.293  0.00  0.00    +0.000 F 
ATOM     20  F   UNL     1       6.135   6.727  16.604  0.00  0.00    +0.000 F 
ENDBRANCH  11  17
ENDBRANCH   5   7
BRANCH   1  27
ATOM     21  C   UNL     1      -6.010  12.898  21.325  0.00  0.00    +0.000 C 
ATOM     22  C   UNL     1      -4.542  13.222  21.366  0.00  0.00    +0.000 A 
ATOM     23  C   UNL     1      -4.090  14.480  20.972  0.00  0.00    +0.000 A 
ATOM     24  C   UNL     1      -2.725  14.755  20.924  0.00  0.00    +0.000 A 
ATOM     25  C   UNL     1      -2.233  16.140  20.618  0.00  0.00    +0.000 C 
ATOM     26  C   UNL     1      -1.809  13.722  21.185  0.00  0.00    +0.000 A 
ATOM     27  C   UNL     1      -2.221  12.428  21.574  0.00  0.00    +0.000 A 
ATOM     28  C   UNL     1      -3.603  12.235  21.723  0.00  0.00    +0.000 A 
ENDBRANCH   1  27
BRANCH   6  29
ATOM     29  N   UNL     1      -0.951  10.663  19.471  0.00  0.00    +0.000 N 
ATOM     30  C   UNL     1      -1.349   9.510  18.657  0.00  0.00    +0.000 C 
ATOM     31  C   UNL     1      -2.446   9.963  17.705  0.00  0.00    +0.000 C 
ATOM     32  C   UNL     1      -1.930  11.084  16.799  0.00  0.00    +0.000 C 
ATOM     33  C   UNL     1      -1.204  12.196  17.573  0.00  0.00    +0.000 C 
ATOM     34  C   UNL     1      -0.251  11.686  18.670  0.00  0.00    +0.000 C 
BRANCH  32  35
ATOM     35  N   UNL     1      -3.058  11.642  16.031  0.00  0.00    +0.000 NA
ATOM     36  H   UNL     1      -3.445  12.437  16.544  0.00  0.00    +0.000 HD
ATOM     37  H   UNL     1      -3.806  10.955  15.990  0.00  0.00    +0.000 HD
ENDBRANCH  32  35
ENDBRANCH   6  29
TORSDOF 5
ENDMDL
MODEL 2
REMARK VINA RESULT:      -8.0      0.654      1.514
REMARK  Name = 
REMARK  7 active torsions:
REMARK  status: ('A' for Active; 'I' for Inactive)
REMARK    1  A    between atoms: C_1  and  C_2
REMARK    2  A    between atoms: C_4  and  C_5
REMARK    3  A    between atoms: C_7  and  C_8
REMARK    4  A    between atoms: C_12  and  C_13
REMARK    5  A    between atoms: C_17  and  C_18
REMARK    6  A    between atoms: C_26  and  N_27
REMARK    7  A    between atoms: C_30  and  N_31
REMARK                            x       y       z     vdW  Elec       q    Type
REMARK                         _______ _______ _______ _____ _____    ______ ____
ROOT
ATOM      1  C   UNL     1      -1.445  11.478  21.704  0.00  0.00    +0.000 A 
ATOM      2  C   UNL     1      -1.133  11.276  23.062  0.00  0.00    +0.000 A 
ATOM      3  N   UNL     1      -0.261  10.380  23.560  0.00  0.00    +0.000 NA
ATOM      4  C   UNL     1       0.369   9.627  22.644  0.00  0.00    +0.000 A 
ATOM      5  C   UNL     1       0.173   9.681  21.258  0.00  0.00    +0.000 A 
ATOM      6  C   UNL     1      -0.778  10.626  20.744  0.00  0.00    +0.000 A 
ENDROOT
BRANCH   5   7
ATOM      7  C   UNL     1       1.037   8.801  20.455  0.00  0.00    +0.000 A 
ATOM      8  N   UNL     1       1.706   9.140  19.368  0.00  0.00    +0.000 NA
ATOM      9  C   UNL     1       2.375   8.028  18.954  0.00  0.00    +0.000 A 
ATOM     10  C   UNL     1       3.173   7.852  17.818  0.00  0.00    +0.000 A 
ATOM     11  C   UNL     1       3.858   6.637  17.652  0.00  0.00    +0.000 A 
ATOM     12  C   UNL     1       3.703   5.613  18.608  0.00  0.00    +0.000 A 
ATOM     13  C   UNL     1       2.849   5.754  19.711  0.00  0.00    +0.000 A 
ATOM     14  C   UNL     1       2.202   6.982  19.846  0.00  0.00    +0.000 A 
ATOM     15  N   UNL     1       1.311   7.479  20.766  0.00  0.00    +0.000 N 
ATOM     16  H   UNL     1       0.924   6.964  21.544  0.00  0.00    +0.000 HD
BRANCH  11  17
ATOM     17  C   UNL     1       4.780   6.454  16.473  0.00  0.00    +0.000 C 
ATOM     18  F   UNL     1       6.080   6.765  16.741  0.00  0.00    +0.000 F 
ATOM     19  F   UNL     1       4.790   5.169  16.021  0.00  0.00    +0.000 F 
ATOM     20  F   UNL     1       4.427   7.224  15.407  0.00  0.00    +0.000 F 
ENDBRANCH  11  17
ENDBRANCH   5   7
BRANCH   1  27
ATOM     21  C   UNL     1      -3.344  16.112  22.442  0.00  0.00    +0.000 C 
ATOM     22  C   UNL     1      -3.383  14.800  21.708  0.00  0.00    +0.000 A 
ATOM     23  C   UNL     1      -4.471  14.482  20.897  0.00  0.00    +0.000 A 
ATOM     24  C   UNL     1      -4.552  13.232  20.286  0.00  0.00    +0.000 A 
ATOM     25  C   UNL     1      -5.657  12.925  19.317  0.00  0.00    +0.000 C 
ATOM     26  C   UNL     1      -3.575  12.265  20.573  0.00  0.00    +0.000 A 
ATOM     27  C   UNL     1      -2.462  12.538  21.399  0.00  0.00    +0.000 A 
ATOM     28  C   UNL     1      -2.362  13.847  21.895  0.00  0.00    +0.000 A 
ENDBRANCH   1  27
BRANCH   6  29
ATOM     29  N   UNL     1      -1.130  10.722  19.378  0.00  0.00    +0.000 N 
ATOM     30  C   UNL     1      -1.524   9.539  18.609  0.00  0.00    +0.000 C 
ATOM     31  C   UNL     1      -2.607   9.957  17.625  0.00  0.00    +0.000 C 
ATOM     32  C   UNL     1      -2.073  11.036  16.679  0.00  0.00    +0.000 C 
ATOM     33  C   UNL     1      -1.350  12.176  17.416  0.00  0.00    +0.000 C 
ATOM     34  C   UNL     1      -0.414  11.707  18.544  0.00  0.00    +0.000 C 
BRANCH  32  35
ATOM     35  N   UNL     1      -3.188  11.568  15.875  0.00  0.00    +0.000 NA
ATOM     36  H   UNL     1      -3.140  11.165  14.937  0.00  0.00    +0.000 HD
ATOM     37  H   UNL     1      -3.061  12.569  15.748  0.00  0.00    +0.000 HD
ENDBRANCH  32  35
ENDBRANCH   6  29
TORSDOF 5
ENDMDL
MODEL 3
REMARK VINA RESULT:      -7.9      1.008      2.253
REMARK  Name = 
REMARK  7 active torsions:
REMARK  status: ('A' for Active; 'I' for Inactive)
REMARK    1  A    between atoms: C_1  and  C_2
REMARK    2  A    between atoms: C_4  and  C_5
REMARK    3  A    between atoms: C_7  and  C_8
REMARK    4  A    between atoms: C_12  and  C_13
REMARK    5  A    between atoms: C_17  and  C_18
REMARK    6  A    between atoms: C_26  and  N_27
REMARK    7  A    between atoms: C_30  and  N_31
REMARK                            x       y       z     vdW  Elec       q    Type
REMARK                         _______ _______ _______ _____ _____    ______ ____
ROOT
ATOM      1  C   UNL     1      -1.487  11.550  21.741  0.00  0.00    +0.000 A 
ATOM      2  C   UNL     1      -1.189  11.355  23.104  0.00  0.00    +0.000 A 
ATOM      3  N   UNL     1      -0.331  10.454  23.616  0.00  0.00    +0.000 NA
ATOM      4  C   UNL     1       0.299   9.687  22.713  0.00  0.00    +0.000 A 
ATOM      5  C   UNL     1       0.116   9.732  21.325  0.00  0.00    +0.000 A 
ATOM      6  C   UNL     1      -0.820  10.683  20.794  0.00  0.00    +0.000 A 
ENDROOT
BRANCH   5   7
ATOM      7  C   UNL     1       0.978   8.836  20.537  0.00  0.00    +0.000 A 
ATOM      8  N   UNL     1       1.266   7.578  20.819  0.00  0.00    +0.000 NA
ATOM      9  C   UNL     1       2.085   7.129  19.828  0.00  0.00    +0.000 A 
ATOM     10  C   UNL     1       2.714   5.886  19.700  0.00  0.00    +0.000 A 
ATOM     11  C   UNL     1       3.434   5.607  18.526  0.00  0.00    +0.000 A 
ATOM     12  C   UNL     1       3.537   6.590  17.522  0.00  0.00    +0.000 A 
ATOM     13  C   UNL     1       2.972   7.865  17.673  0.00  0.00    +0.000 A 
ATOM     14  C   UNL     1       2.252   8.092  18.846  0.00  0.00    +0.000 A 
ATOM     15  N   UNL     1       1.580   9.185  19.339  0.00  0.00    +0.000 N 
ATOM     16  H   UNL     1       1.530  10.091  18.896  0.00  0.00    +0.000 HD
BRANCH  11  17
ATOM     17  C   UNL     1       4.056   4.247  18.337  0.00  0.00    +0.000 C 
ATOM     18  F   UNL     1       4.508   4.022  17.071  0.00  0.00    +0.000 F 
ATOM     19  F   UNL     1       5.129   4.054  19.154  0.00  0.00    +0.000 F 
ATOM     20  F   UNL     1       3.190   3.232  18.608  0.00  0.00    +0.000 F 
ENDBRANCH  11  17
ENDBRANCH   5   7
BRANCH   1  27
ATOM     21  C   UNL     1      -2.632  16.398  20.841  0.00  0.00    +0.000 C 
ATOM     22  C   UNL     1      -3.068  14.962  20.937  0.00  0.00    +0.000 A 
ATOM     23  C   UNL     1      -4.424  14.640  20.931  0.00  0.00    +0.000 A 
ATOM     24  C   UNL     1      -4.835  13.320  21.110  0.00  0.00    +0.000 A 
ATOM     25  C   UNL     1      -6.283  12.946  20.985  0.00  0.00    +0.000 C 
ATOM     26  C   UNL     1      -3.872  12.336  21.389  0.00  0.00    +0.000 A 
ATOM     27  C   UNL     1      -2.489  12.618  21.418  0.00  0.00    +0.000 A 
ATOM     28  C   UNL     1      -2.118  13.937  21.116  0.00  0.00    +0.000 A 
ENDBRANCH   1  27
BRANCH   6  29
ATOM     29  N   UNL     1      -1.158  10.772  19.425  0.00  0.00    +0.000 N 
ATOM     30  C   UNL     1      -1.544   9.584  18.658  0.00  0.00    +0.000 C 
ATOM     31  C   UNL     1      -2.617   9.996  17.661  0.00  0.00    +0.000 C 
ATOM     32  C   UNL     1      -2.075  11.071  16.715  0.00  0.00    +0.000 C 
ATOM     33  C   UNL     1      -1.361  12.215  17.452  0.00  0.00    +0.000 C 
ATOM     34  C   UNL     1      -0.435  11.753  18.592  0.00  0.00    +0.000 C 
BRANCH  32  35
ATOM     35  N   UNL     1      -3.183  11.597  15.896  0.00  0.00    +0.000 NA
ATOM     36  H   UNL     1      -4.005  11.714  16.492  0.00  0.00    +0.000 HD
ATOM     37  H   UNL     1      -3.445  10.902  15.203  0.00  0.00    +0.000 HD
ENDBRANCH  32  35
ENDBRANCH   6  29
TORSDOF 5
ENDMDL
MODEL 4
REMARK VINA RESULT:      -7.8      0.997      1.683
REMARK  Name = 
REMARK  7 active torsions:
REMARK  status: ('A' for Active; 'I' for Inactive)
REMARK    1  A    between atoms: C_1  and  C_2
REMARK    2  A    between atoms: C_4  and  C_5
REMARK    3  A    between atoms: C_7  and  C_8
REMARK    4  A    between atoms: C_12  and  C_13
REMARK    5  A    between atoms: C_17  and  C_18
REMARK    6  A    between atoms: C_26  and  N_27
REMARK    7  A    between atoms: C_30  and  N_31
REMARK                            x       y       z     vdW  Elec       q    Type
REMARK                         _______ _______ _______ _____ _____    ______ ____
ROOT
ATOM      1  C   UNL     1      -1.325  11.448  21.821  0.00  0.00    +0.000 A 
ATOM      2  C   UNL     1      -1.008  11.216  23.174  0.00  0.00    +0.000 A 
ATOM      3  N   UNL     1      -0.156  10.290  23.651  0.00  0.00    +0.000 NA
ATOM      4  C   UNL     1       0.447   9.535  22.720  0.00  0.00    +0.000 A 
ATOM      5  C   UNL     1       0.242   9.616  21.336  0.00  0.00    +0.000 A 
ATOM      6  C   UNL     1      -0.687  10.594  20.844  0.00  0.00    +0.000 A 
ENDROOT
BRANCH   5   7
ATOM      7  C   UNL     1       1.077   8.726  20.513  0.00  0.00    +0.000 A 
ATOM      8  N   UNL     1       1.295   7.440  20.724  0.00  0.00    +0.000 NA
ATOM      9  C   UNL     1       2.115   7.010  19.725  0.00  0.00    +0.000 A 
ATOM     10  C   UNL     1       2.684   5.747  19.534  0.00  0.00    +0.000 A 
ATOM     11  C   UNL     1       3.416   5.502  18.361  0.00  0.00    +0.000 A 
ATOM     12  C   UNL     1       3.592   6.536  17.421  0.00  0.00    +0.000 A 
ATOM     13  C   UNL     1       3.087   7.827  17.637  0.00  0.00    +0.000 A 
ATOM     14  C   UNL     1       2.352   8.020  18.807  0.00  0.00    +0.000 A 
ATOM     15  N   UNL     1       1.724   9.114  19.351  0.00  0.00    +0.000 N 
ATOM     16  H   UNL     1       1.729  10.046  18.963  0.00  0.00    +0.000 HD
BRANCH  11  17
ATOM     17  C   UNL     1       3.975   4.126  18.102  0.00  0.00    +0.000 C 
ATOM     18  F   UNL     1       5.312   4.022  18.343  0.00  0.00    +0.000 F 
ATOM     19  F   UNL     1       3.383   3.175  18.879  0.00  0.00    +0.000 F 
ATOM     20  F   UNL     1       3.797   3.721  16.814  0.00  0.00    +0.000 F 
ENDBRANCH  11  17
ENDBRANCH   5   7
BRANCH   1  27
ATOM     21  C   UNL     1      -6.091  13.014  21.145  0.00  0.00    +0.000 C 
ATOM     22  C   UNL     1      -4.625  13.336  21.248  0.00  0.00    +0.000 A 
ATOM     23  C   UNL     1      -4.158  14.598  20.885  0.00  0.00    +0.000 A 
ATOM     24  C   UNL     1      -2.792  14.872  20.893  0.00  0.00    +0.000 A 
ATOM     25  C   UNL     1      -2.288  16.260  20.621  0.00  0.00    +0.000 C 
ATOM     26  C   UNL     1      -1.888  13.836  21.180  0.00  0.00    +0.000 A 
ATOM     27  C   UNL     1      -2.315  12.539  21.541  0.00  0.00    +0.000 A 
ATOM     28  C   UNL     1      -3.701  12.345  21.633  0.00  0.00    +0.000 A 
ENDBRANCH   1  27
BRANCH   6  29
ATOM     29  N   UNL     1      -1.046  10.720  19.482  0.00  0.00    +0.000 N 
ATOM     30  C   UNL     1      -1.447   9.554  18.690  0.00  0.00    +0.000 C 
ATOM     31  C   UNL     1      -2.534   9.996  17.721  0.00  0.00    +0.000 C 
ATOM     32  C   UNL     1      -2.003  11.094  16.796  0.00  0.00    +0.000 C 
ATOM     33  C   UNL     1      -1.274  12.216  17.553  0.00  0.00    +0.000 C 
ATOM     34  C   UNL     1      -0.333  11.721  18.666  0.00  0.00    +0.000 C 
BRANCH  32  35
ATOM     35  N   UNL     1      -3.122  11.645  16.009  0.00  0.00    +0.000 NA
ATOM     36  H   UNL     1      -3.153  11.172  15.104  0.00  0.00    +0.000 HD
ATOM     37  H   UNL     1      -2.934  12.622  15.800  0.00  0.00    +0.000 HD
ENDBRANCH  32  35
ENDBRANCH   6  29
TORSDOF 5
ENDMDL
MODEL 5
REMARK VINA RESULT:      -7.6      0.774      1.008
REMARK  Name = 
REMARK  7 active torsions:
REMARK  status: ('A' for Active; 'I' for Inactive)
REMARK    1  A    between atoms: C_1  and  C_2
REMARK    2  A    between atoms: C_4  and  C_5
REMARK    3  A    between atoms: C_7  and  C_8
REMARK    4  A    between atoms: C_12  and  C_13
REMARK    5  A    between atoms: C_17  and  C_18
REMARK    6  A    between atoms: C_26  and  N_27
REMARK    7  A    between atoms: C_30  and  N_31
REMARK                            x       y       z     vdW  Elec       q    Type
REMARK                         _______ _______ _______ _____ _____    ______ ____
ROOT
ATOM      1  C   UNL     1      -1.797  11.725  21.581  0.00  0.00    +0.000 A 
ATOM      2  C   UNL     1      -1.514  11.573  22.952  0.00  0.00    +0.000 A 
ATOM      3  N   UNL     1      -0.637  10.712  23.500  0.00  0.00    +0.000 NA
ATOM      4  C   UNL     1       0.031   9.943  22.625  0.00  0.00    +0.000 A 
ATOM      5  C   UNL     1      -0.133   9.948  21.233  0.00  0.00    +0.000 A 
ATOM      6  C   UNL     1      -1.089  10.857  20.666  0.00  0.00    +0.000 A 
ENDROOT
BRANCH   5   7
ATOM      7  C   UNL     1       0.768   9.061  20.481  0.00  0.00    +0.000 A 
ATOM      8  N   UNL     1       1.434   9.369  19.382  0.00  0.00    +0.000 NA
ATOM      9  C   UNL     1       2.145   8.263  19.028  0.00  0.00    +0.000 A 
ATOM     10  C   UNL     1       2.958   8.059  17.908  0.00  0.00    +0.000 A 
ATOM     11  C   UNL     1       3.686   6.862  17.807  0.00  0.00    +0.000 A 
ATOM     12  C   UNL     1       3.559   5.882  18.811  0.00  0.00    +0.000 A 
ATOM     13  C   UNL     1       2.692   6.047  19.901  0.00  0.00    +0.000 A 
ATOM     14  C   UNL     1       2.001   7.257  19.970  0.00  0.00    +0.000 A 
ATOM     15  N   UNL     1       1.085   7.766  20.858  0.00  0.00    +0.000 N 
ATOM     16  H   UNL     1       0.710   7.277  21.658  0.00  0.00    +0.000 HD
BRANCH  11  17
ATOM     17  C   UNL     1       4.624   6.655  16.645  0.00  0.00    +0.000 C 
ATOM     18  F   UNL     1       4.296   7.380  15.539  0.00  0.00    +0.000 F 
ATOM     19  F   UNL     1       5.906   7.001  16.950  0.00  0.00    +0.000 F 
ATOM     20  F   UNL     1       4.674   5.357  16.236  0.00  0.00    +0.000 F 
ENDBRANCH  11  17
ENDBRANCH   5   7
BRANCH   1  27
ATOM     21  C   UNL     1      -6.151  13.010  19.342  0.00  0.00    +0.000 C 
ATOM     22  C   UNL     1      -4.959  13.400  20.172  0.00  0.00    +0.000 A 
ATOM     23  C   UNL     1      -4.697  14.743  20.436  0.00  0.00    +0.000 A 
ATOM     24  C   UNL     1      -3.546  15.113  21.129  0.00  0.00    +0.000 A 
ATOM     25  C   UNL     1      -3.316  16.543  21.521  0.00  0.00    +0.000 C 
ATOM     26  C   UNL     1      -2.609  14.125  21.475  0.00  0.00    +0.000 A 
ATOM     27  C   UNL     1      -2.826  12.754  21.217  0.00  0.00    +0.000 A 
ATOM     28  C   UNL     1      -4.053  12.421  20.624  0.00  0.00    +0.000 A 
ENDBRANCH   1  27
BRANCH   6  29
ATOM     29  N   UNL     1      -1.409  10.902  19.290  0.00  0.00    +0.000 N 
ATOM     30  C   UNL     1      -1.806   9.694  18.561  0.00  0.00    +0.000 C 
ATOM     31  C   UNL     1      -2.859  10.088  17.536  0.00  0.00    +0.000 C 
ATOM     32  C   UNL     1      -2.286  11.118  16.559  0.00  0.00    +0.000 C 
ATOM     33  C   UNL     1      -1.561  12.275  17.264  0.00  0.00    +0.000 C 
ATOM     34  C   UNL     1      -0.658  11.839  18.432  0.00  0.00    +0.000 C 
BRANCH  32  35
ATOM     35  N   UNL     1      -3.375  11.633  15.708  0.00  0.00    +0.000 NA
ATOM     36  H   UNL     1      -2.994  11.860  14.787  0.00  0.00    +0.000 HD
ATOM     37  H   UNL     1      -3.709  12.514  16.090  0.00  0.00    +0.000 HD
ENDBRANCH  32  35
ENDBRANCH   6  29
TORSDOF 5
ENDMDL
MODEL 6
REMARK VINA RESULT:      -7.2      3.066      4.628
REMARK  Name = 
REMARK  7 active torsions:
REMARK  status: ('A' for Active; 'I' for Inactive)
REMARK    1  A    between atoms: C_1  and  C_2
REMARK    2  A    between atoms: C_4  and  C_5
REMARK    3  A    between atoms: C_7  and  C_8
REMARK    4  A    between atoms: C_12  and  C_13
REMARK    5  A    between atoms: C_17  and  C_18
REMARK    6  A    between atoms: C_26  and  N_27
REMARK    7  A    between atoms: C_30  and  N_31
REMARK                            x       y       z     vdW  Elec       q    Type
REMARK                         _______ _______ _______ _____ _____    ______ ____
ROOT
ATOM      1  C   UNL     1      -0.971  14.168  20.105  0.00  0.00    +0.000 A 
ATOM      2  C   UNL     1      -2.309  13.750  20.238  0.00  0.00    +0.000 A 
ATOM      3  N   UNL     1      -2.774  12.494  20.102  0.00  0.00    +0.000 NA
ATOM      4  C   UNL     1      -1.843  11.567  19.826  0.00  0.00    +0.000 A 
ATOM      5  C   UNL     1      -0.474  11.804  19.646  0.00  0.00    +0.000 A 
ATOM      6  C   UNL     1       0.003  13.153  19.771  0.00  0.00    +0.000 A 
ENDROOT
BRANCH   5   7
ATOM      7  C   UNL     1       0.357  10.611  19.421  0.00  0.00    +0.000 A 
ATOM      8  N   UNL     1       0.557   9.623  20.275  0.00  0.00    +0.000 NA
ATOM      9  C   UNL     1       1.381   8.730  19.660  0.00  0.00    +0.000 A 
ATOM     10  C   UNL     1       1.935   7.549  20.166  0.00  0.00    +0.000 A 
ATOM     11  C   UNL     1       2.676   6.724  19.304  0.00  0.00    +0.000 A 
ATOM     12  C   UNL     1       2.875   7.115  17.965  0.00  0.00    +0.000 A 
ATOM     13  C   UNL     1       2.385   8.331  17.468  0.00  0.00    +0.000 A 
ATOM     14  C   UNL     1       1.641   9.111  18.354  0.00  0.00    +0.000 A 
ATOM     15  N   UNL     1       1.021  10.332  18.238  0.00  0.00    +0.000 N 
ATOM     16  H   UNL     1       1.043  10.925  17.421  0.00  0.00    +0.000 HD
BRANCH  11  17
ATOM     17  C   UNL     1       3.219   5.412  19.810  0.00  0.00    +0.000 C 
ATOM     18  F   UNL     1       2.727   5.048  21.028  0.00  0.00    +0.000 F 
ATOM     19  F   UNL     1       2.933   4.378  18.970  0.00  0.00    +0.000 F 
ATOM     20  F   UNL     1       4.574   5.421  19.945  0.00  0.00    +0.000 F 
ENDBRANCH  11  17
ENDBRANCH   5   7
BRANCH   1  27
ATOM     21  C   UNL     1      -1.089  18.338  22.972  0.00  0.00    +0.000 C 
ATOM     22  C   UNL     1      -0.711  17.667  21.681  0.00  0.00    +0.000 A 
ATOM     23  C   UNL     1      -0.302  18.429  20.588  0.00  0.00    +0.000 A 
ATOM     24  C   UNL     1      -0.036  17.818  19.364  0.00  0.00    +0.000 A 
ATOM     25  C   UNL     1       0.520  18.612  18.218  0.00  0.00    +0.000 C 
ATOM     26  C   UNL     1      -0.276  16.441  19.220  0.00  0.00    +0.000 A 
ATOM     27  C   UNL     1      -0.703  15.632  20.296  0.00  0.00    +0.000 A 
ATOM     28  C   UNL     1      -0.842  16.272  21.537  0.00  0.00    +0.000 A 
ENDBRANCH   1  27
BRANCH   6  29
ATOM     29  N   UNL     1       1.342  13.538  19.530  0.00  0.00    +0.000 N 
ATOM     30  C   UNL     1       1.917  13.489  18.182  0.00  0.00    +0.000 C 
ATOM     31  C   UNL     1       2.871  14.665  18.036  0.00  0.00    +0.000 C 
ATOM     32  C   UNL     1       3.987  14.573  19.079  0.00  0.00    +0.000 C 
ATOM     33  C   UNL     1       3.462  14.301  20.498  0.00  0.00    +0.000 C 
ATOM     34  C   UNL     1       2.348  13.240  20.568  0.00  0.00    +0.000 C 
BRANCH  32  35
ATOM     35  N   UNL     1       4.777  15.818  19.052  0.00  0.00    +0.000 NA
ATOM     36  H   UNL     1       5.309  15.890  19.922  0.00  0.00    +0.000 HD
ATOM     37  H   UNL     1       4.145  16.615  19.053  0.00  0.00    +0.000 HD
ENDBRANCH  32  35
ENDBRANCH   6  29
TORSDOF 5
ENDMDL
MODEL 7
REMARK VINA RESULT:      -7.2      3.123      4.775
REMARK  Name = 
REMARK  7 active torsions:
REMARK  status: ('A' for Active; 'I' for Inactive)
REMARK    1  A    between atoms: C_1  and  C_2
REMARK    2  A    between atoms: C_4  and  C_5
REMARK    3  A    between atoms: C_7  and  C_8
REMARK    4  A    between atoms: C_12  and  C_13
REMARK    5  A    between atoms: C_17  and  C_18
REMARK    6  A    between atoms: C_26  and  N_27
REMARK    7  A    between atoms: C_30  and  N_31
REMARK                            x       y       z     vdW  Elec       q    Type
REMARK                         _______ _______ _______ _____ _____    ______ ____
ROOT
ATOM      1  C   UNL     1      -0.817  14.191  20.161  0.00  0.00    +0.000 A 
ATOM      2  C   UNL     1      -2.155  13.783  20.331  0.00  0.00    +0.000 A 
ATOM      3  N   UNL     1      -2.632  12.530  20.218  0.00  0.00    +0.000 NA
ATOM      4  C   UNL     1      -1.715  11.594  19.926  0.00  0.00    +0.000 A 
ATOM      5  C   UNL     1      -0.349  11.819  19.709  0.00  0.00    +0.000 A 
ATOM      6  C   UNL     1       0.141  13.166  19.811  0.00  0.00    +0.000 A 
ENDROOT
BRANCH   5   7
ATOM      7  C   UNL     1       0.467  10.618  19.473  0.00  0.00    +0.000 A 
ATOM      8  N   UNL     1       0.622   9.601  20.301  0.00  0.00    +0.000 NA
ATOM      9  C   UNL     1       1.449   8.712  19.685  0.00  0.00    +0.000 A 
ATOM     10  C   UNL     1       1.966   7.507  20.170  0.00  0.00    +0.000 A 
ATOM     11  C   UNL     1       2.719   6.694  19.306  0.00  0.00    +0.000 A 
ATOM     12  C   UNL     1       2.968   7.122  17.987  0.00  0.00    +0.000 A 
ATOM     13  C   UNL     1       2.515   8.362  17.514  0.00  0.00    +0.000 A 
ATOM     14  C   UNL     1       1.757   9.128  18.399  0.00  0.00    +0.000 A 
ATOM     15  N   UNL     1       1.163  10.363  18.302  0.00  0.00    +0.000 N 
ATOM     16  H   UNL     1       1.221  10.980  17.505  0.00  0.00    +0.000 HD
BRANCH  11  17
ATOM     17  C   UNL     1       3.223   5.357  19.788  0.00  0.00    +0.000 C 
ATOM     18  F   UNL     1       3.010   4.340  18.905  0.00  0.00    +0.000 F 
ATOM     19  F   UNL     1       4.564   5.367  20.026  0.00  0.00    +0.000 F 
ATOM     20  F   UNL     1       2.638   4.965  20.954  0.00  0.00    +0.000 F 
ENDBRANCH  11  17
ENDBRANCH   5   7
BRANCH   1  27
ATOM     21  C   UNL     1       0.750  18.630  18.300  0.00  0.00    +0.000 C 
ATOM     22  C   UNL     1       0.184  17.834  19.444  0.00  0.00    +0.000 A 
ATOM     23  C   UNL     1       0.111  18.393  20.719  0.00  0.00    +0.000 A 
ATOM     24  C   UNL     1      -0.328  17.629  21.798  0.00  0.00    +0.000 A 
ATOM     25  C   UNL     1      -0.524  18.254  23.149  0.00  0.00    +0.000 C 
ATOM     26  C   UNL     1      -0.607  16.266  21.604  0.00  0.00    +0.000 A 
ATOM     27  C   UNL     1      -0.534  15.654  20.333  0.00  0.00    +0.000 A 
ATOM     28  C   UNL     1      -0.201  16.492  19.258  0.00  0.00    +0.000 A 
ENDBRANCH   1  27
BRANCH   6  29
ATOM     29  N   UNL     1       1.475  13.538  19.532  0.00  0.00    +0.000 N 
ATOM     30  C   UNL     1       2.031  13.424  18.181  0.00  0.00    +0.000 C 
ATOM     31  C   UNL     1       2.982  14.592  17.964  0.00  0.00    +0.000 C 
ATOM     32  C   UNL     1       4.113  14.552  18.995  0.00  0.00    +0.000 C 
ATOM     33  C   UNL     1       3.608  14.348  20.432  0.00  0.00    +0.000 C 
ATOM     34  C   UNL     1       2.496  13.292  20.569  0.00  0.00    +0.000 C 
BRANCH  32  35
ATOM     35  N   UNL     1       4.901  15.794  18.897  0.00  0.00    +0.000 NA
ATOM     36  H   UNL     1       4.971  16.215  19.826  0.00  0.00    +0.000 HD
ATOM     37  H   UNL     1       4.393  16.468  18.330  0.00  0.00    +0.000 HD
ENDBRANCH  32  35
ENDBRANCH   6  29
TORSDOF 5
ENDMDL
MODEL 8
REMARK VINA RESULT:      -7.2      2.765      4.418
REMARK  Name = 
REMARK  7 active torsions:
REMARK  status: ('A' for Active; 'I' for Inactive)
REMARK    1  A    between atoms: C_1  and  C_2
REMARK    2  A    between atoms: C_4  and  C_5
REMARK    3  A    between atoms: C_7  and  C_8
REMARK    4  A    between atoms: C_12  and  C_13
REMARK    5  A    between atoms: C_17  and  C_18
REMARK    6  A    between atoms: C_26  and  N_27
REMARK    7  A    between atoms: C_30  and  N_31
REMARK                            x       y       z     vdW  Elec       q    Type
REMARK                         _______ _______ _______ _____ _____    ______ ____
ROOT
ATOM      1  C   UNL     1      -1.031  14.104  19.942  0.00  0.00    +0.000 A 
ATOM      2  C   UNL     1      -2.378  13.698  20.021  0.00  0.00    +0.000 A 
ATOM      3  N   UNL     1      -2.846  12.445  19.882  0.00  0.00    +0.000 NA
ATOM      4  C   UNL     1      -1.912  11.507  19.661  0.00  0.00    +0.000 A 
ATOM      5  C   UNL     1      -0.535  11.730  19.538  0.00  0.00    +0.000 A 
ATOM      6  C   UNL     1      -0.052  13.077  19.666  0.00  0.00    +0.000 A 
ENDROOT
BRANCH   5   7
ATOM      7  C   UNL     1       0.295  10.528  19.368  0.00  0.00    +0.000 A 
ATOM      8  N   UNL     1       1.056  10.241  18.326  0.00  0.00    +0.000 NA
ATOM      9  C   UNL     1       1.649   9.043  18.587  0.00  0.00    +0.000 A 
ATOM     10  C   UNL     1       2.494   8.283  17.774  0.00  0.00    +0.000 A 
ATOM     11  C   UNL     1       3.079   7.119  18.301  0.00  0.00    +0.000 A 
ATOM     12  C   UNL     1       2.778   6.725  19.620  0.00  0.00    +0.000 A 
ATOM     13  C   UNL     1       1.874   7.441  20.419  0.00  0.00    +0.000 A 
ATOM     14  C   UNL     1       1.331   8.598  19.860  0.00  0.00    +0.000 A 
ATOM     15  N   UNL     1       0.433   9.530  20.321  0.00  0.00    +0.000 N 
ATOM     16  H   UNL     1      -0.044   9.496  21.210  0.00  0.00    +0.000 HD
BRANCH  11  17
ATOM     17  C   UNL     1       4.051   6.326  17.465  0.00  0.00    +0.000 C 
ATOM     18  F   UNL     1       4.441   6.963  16.325  0.00  0.00    +0.000 F 
ATOM     19  F   UNL     1       5.198   6.040  18.142  0.00  0.00    +0.000 F 
ATOM     20  F   UNL     1       3.543   5.128  17.065  0.00  0.00    +0.000 F 
ENDBRANCH  11  17
ENDBRANCH   5   7
BRANCH   1  27
ATOM     21  C   UNL     1       0.214  18.631  18.049  0.00  0.00    +0.000 C 
ATOM     22  C   UNL     1      -0.196  17.789  19.226  0.00  0.00    +0.000 A 
ATOM     23  C   UNL     1      -0.129  18.310  20.517  0.00  0.00    +0.000 A 
ATOM     24  C   UNL     1      -0.423  17.506  21.616  0.00  0.00    +0.000 A 
ATOM     25  C   UNL     1      -0.471  18.088  22.999  0.00  0.00    +0.000 C 
ATOM     26  C   UNL     1      -0.694  16.142  21.414  0.00  0.00    +0.000 A 
ATOM     27  C   UNL     1      -0.760  15.568  20.125  0.00  0.00    +0.000 A 
ATOM     28  C   UNL     1      -0.574  16.444  19.045  0.00  0.00    +0.000 A 
ENDBRANCH   1  27
BRANCH   6  29
ATOM     29  N   UNL     1       1.299  13.448  19.480  0.00  0.00    +0.000 N 
ATOM     30  C   UNL     1       1.925  13.402  18.156  0.00  0.00    +0.000 C 
ATOM     31  C   UNL     1       2.898  14.568  18.055  0.00  0.00    +0.000 C 
ATOM     32  C   UNL     1       3.971  14.456  19.140  0.00  0.00    +0.000 C 
ATOM     33  C   UNL     1       3.389  14.178  20.535  0.00  0.00    +0.000 C 
ATOM     34  C   UNL     1       2.261  13.130  20.553  0.00  0.00    +0.000 C 
BRANCH  32  35
ATOM     35  N   UNL     1       4.776  15.692  19.154  0.00  0.00    +0.000 NA
ATOM     36  H   UNL     1       5.285  15.744  20.039  0.00  0.00    +0.000 HD
ATOM     37  H   UNL     1       4.153  16.495  19.149  0.00  0.00    +0.000 HD
ENDBRANCH  32  35
ENDBRANCH   6  29
TORSDOF 5
ENDMDL
MODEL 9
REMARK VINA RESULT:      -7.2      1.541      2.520
REMARK  Name = 
REMARK  7 active torsions:
REMARK  status: ('A' for Active; 'I' for Inactive)
REMARK    1  A    between atoms: C_1  and  C_2
REMARK    2  A    between atoms: C_4  and  C_5
REMARK    3  A    between atoms: C_7  and  C_8
REMARK    4  A    between atoms: C_12  and  C_13
REMARK    5  A    between atoms: C_17  and  C_18
REMARK    6  A    between atoms: C_26  and  N_27
REMARK    7  A    between atoms: C_30  and  N_31
REMARK                            x       y       z     vdW  Elec       q    Type
REMARK                         _______ _______ _______ _____ _____    ______ ____
ROOT
ATOM      1  C   UNL     1      -2.180  12.184  21.166  0.00  0.00    +0.000 A 
ATOM      2  C   UNL     1      -1.770  12.347  22.504  0.00  0.00    +0.000 A 
ATOM      3  N   UNL     1      -0.760  11.704  23.117  0.00  0.00    +0.000 NA
ATOM      4  C   UNL     1      -0.085  10.836  22.348  0.00  0.00    +0.000 A 
ATOM      5  C   UNL     1      -0.361  10.537  21.007  0.00  0.00    +0.000 A 
ATOM      6  C   UNL     1      -1.456  11.215  20.373  0.00  0.00    +0.000 A 
ENDROOT
BRANCH   5   7
ATOM      7  C   UNL     1       0.569   9.601  20.356  0.00  0.00    +0.000 A 
ATOM      8  N   UNL     1       0.889   8.392  20.781  0.00  0.00    +0.000 NA
ATOM      9  C   UNL     1       1.771   7.877  19.880  0.00  0.00    +0.000 A 
ATOM     10  C   UNL     1       2.449   6.655  19.910  0.00  0.00    +0.000 A 
ATOM     11  C   UNL     1       3.233   6.285  18.804  0.00  0.00    +0.000 A 
ATOM     12  C   UNL     1       3.349   7.163  17.708  0.00  0.00    +0.000 A 
ATOM     13  C   UNL     1       2.731   8.422  17.699  0.00  0.00    +0.000 A 
ATOM     14  C   UNL     1       1.949   8.740  18.810  0.00  0.00    +0.000 A 
ATOM     15  N   UNL     1       1.215   9.849  19.155  0.00  0.00    +0.000 N 
ATOM     16  H   UNL     1       1.153  10.701  18.618  0.00  0.00    +0.000 HD
BRANCH  11  17
ATOM     17  C   UNL     1       3.913   4.940  18.786  0.00  0.00    +0.000 C 
ATOM     18  F   UNL     1       5.115   4.924  19.430  0.00  0.00    +0.000 F 
ATOM     19  F   UNL     1       3.159   3.974  19.382  0.00  0.00    +0.000 F 
ATOM     20  F   UNL     1       4.162   4.495  17.524  0.00  0.00    +0.000 F 
ENDBRANCH  11  17
ENDBRANCH   5   7
BRANCH   1  27
ATOM     21  C   UNL     1      -4.718  16.564  21.110  0.00  0.00    +0.000 C 
ATOM     22  C   UNL     1      -4.578  15.143  20.636  0.00  0.00    +0.000 A 
ATOM     23  C   UNL     1      -5.623  14.528  19.948  0.00  0.00    +0.000 A 
ATOM     24  C   UNL     1      -5.533  13.186  19.586  0.00  0.00    +0.000 A 
ATOM     25  C   UNL     1      -6.597  12.548  18.741  0.00  0.00    +0.000 C 
ATOM     26  C   UNL     1      -4.420  12.437  20.004  0.00  0.00    +0.000 A 
ATOM     27  C   UNL     1      -3.344  13.015  20.714  0.00  0.00    +0.000 A 
ATOM     28  C   UNL     1      -3.428  14.395  20.952  0.00  0.00    +0.000 A 
ENDBRANCH   1  27
BRANCH   6  29
ATOM     29  N   UNL     1      -1.891  10.944  19.056  0.00  0.00    +0.000 N 
ATOM     30  C   UNL     1      -2.211   9.580  18.626  0.00  0.00    +0.000 C 
ATOM     31  C   UNL     1      -3.381   9.654  17.657  0.00  0.00    +0.000 C 
ATOM     32  C   UNL     1      -3.008  10.506  16.441  0.00  0.00    +0.000 C 
ATOM     33  C   UNL     1      -2.359  11.846  16.824  0.00  0.00    +0.000 C 
ATOM     34  C   UNL     1      -1.321  11.747  17.956  0.00  0.00    +0.000 C 
BRANCH  32  35
ATOM     35  N   UNL     1      -4.212  10.732  15.621  0.00  0.00    +0.000 NA
ATOM     36  H   UNL     1      -4.638  11.619  15.898  0.00  0.00    +0.000 HD
ATOM     37  H   UNL     1      -4.903  10.019  15.839  0.00  0.00    +0.000 HD
ENDBRANCH  32  35
ENDBRANCH   6  29
TORSDOF 5
ENDMDL
