MODEL 1
REMARK VINA RESULT:      -7.7      0.000      0.000
REMARK  Name = 
REMARK  5 active torsions:
REMARK  status: ('A' for Active; 'I' for Inactive)
REMARK    1  A    between atoms: C_1  and  C_2
REMARK    2  A    between atoms: C_2  and  N_3
REMARK    3  A    between atoms: C_7  and  O_8
REMARK    4  A    between atoms: O_8  and  C_9
REMARK    5  A    between atoms: C_9  and  C_10
REMARK                            x       y       z     vdW  Elec       q    Type
REMARK                         _______ _______ _______ _____ _____    ______ ____
ROOT
ATOM      1  N   UNL     1       5.033   4.990  16.884  0.00  0.00    +0.000 N 
ATOM      2  C   UNL     1       5.060   6.370  16.735  0.00  0.00    +0.000 A 
ATOM      3  O   UNL     1       5.981   6.998  16.212  0.00  0.00    +0.000 OA
ATOM      4  C   UNL     1       3.913   7.137  17.254  0.00  0.00    +0.000 A 
ATOM      5  C   UNL     1       2.843   6.544  17.795  0.00  0.00    +0.000 A 
ATOM      6  C   UNL     1       2.781   5.075  17.839  0.00  0.00    +0.000 A 
ATOM      7  C   UNL     1       1.622   4.422  18.301  0.00  0.00    +0.000 A 
ATOM      8  C   UNL     1       1.535   3.031  18.296  0.00  0.00    +0.000 A 
ATOM      9  C   UNL     1       2.612   2.279  17.850  0.00  0.00    +0.000 A 
ATOM     10  C   UNL     1       3.776   2.914  17.406  0.00  0.00    +0.000 A 
ATOM     11  C   UNL     1       3.874   4.314  17.382  0.00  0.00    +0.000 A 
ENDROOT
BRANCH   1  13
ATOM     12  C   UNL     1       6.184   3.982  14.936  0.00  0.00    +0.000 C 
ATOM     13  C   UNL     1       6.210   4.254  16.432  0.00  0.00    +0.000 C 
ENDBRANCH   1  13
BRANCH   5  14
ATOM     14  O   UNL     1       1.746   7.189  18.325  0.00  0.00    +0.000 OA
BRANCH  14  15
ATOM     15  C   UNL     1       1.993   8.374  19.069  0.00  0.00    +0.000 C 
BRANCH  15  16
ATOM     16  C   UNL     1       1.504   8.235  20.517  0.00  0.00    +0.000 C 
ATOM     17  O   UNL     1       1.387   7.135  21.058  0.00  0.00    +0.000 OA
ATOM     18  N   UNL     1       1.234   9.432  21.193  0.00  0.00    +0.000 N 
ATOM     19  C   UNL     1       1.007   9.357  22.634  0.00  0.00    +0.000 C 
ATOM     20  C   UNL     1      -0.478   9.350  22.972  0.00  0.00    +0.000 C 
ATOM     21  C   UNL     1      -1.112  10.737  22.944  0.00  0.00    +0.000 C 
ATOM     22  C   UNL     1      -1.013  11.464  21.605  0.00  0.00    +0.000 C 
ATOM     23  C   UNL     1       0.418  11.846  21.228  0.00  0.00    +0.000 C 
ATOM     24  C   UNL     1       1.190  10.731  20.525  0.00  0.00    +0.000 C 
ENDBRANCH  15  16
ENDBRANCH  14  15
ENDBRANCH   5  14
TORSDOF 4
ENDMDL
MODEL 2
REMARK VINA RESULT:      -7.7      1.071      1.802
REMARK  Name = 
REMARK  5 active torsions:
REMARK  status: ('A' for Active; 'I' for Inactive)
REMARK    1  A    between atoms: C_1  and  C_2
REMARK    2  A    between atoms: C_2  and  N_3
REMARK    3  A    between atoms: C_7  and  O_8
REMARK    4  A    between atoms: O_8  and  C_9
REMARK    5  A    between atoms: C_9  and  C_10
REMARK                            x       y       z     vdW  Elec       q    Type
REMARK                         _______ _______ _______ _____ _____    ______ ____
ROOT
ATOM      1  N   UNL     1       5.372   5.129  16.974  0.00  0.00    +0.000 N 
ATOM      2  C   UNL     1       5.415   6.508  16.824  0.00  0.00    +0.000 A 
ATOM      3  O   UNL     1       6.374   7.132  16.369  0.00  0.00    +0.000 OA
ATOM      4  C   UNL     1       4.235   7.280  17.254  0.00  0.00    +0.000 A 
ATOM      5  C   UNL     1       3.125   6.691  17.716  0.00  0.00    +0.000 A 
ATOM      6  C   UNL     1       3.056   5.222  17.759  0.00  0.00    +0.000 A 
ATOM      7  C   UNL     1       1.864   4.574  18.135  0.00  0.00    +0.000 A 
ATOM      8  C   UNL     1       1.773   3.184  18.127  0.00  0.00    +0.000 A 
ATOM      9  C   UNL     1       2.879   2.427  17.763  0.00  0.00    +0.000 A 
ATOM     10  C   UNL     1       4.074   3.057  17.406  0.00  0.00    +0.000 A 
ATOM     11  C   UNL     1       4.178   4.457  17.386  0.00  0.00    +0.000 A 
ENDROOT
BRANCH   1  13
ATOM     12  C   UNL     1       7.661   4.493  17.676  0.00  0.00    +0.000 C 
ATOM     13  C   UNL     1       6.578   4.388  16.613  0.00  0.00    +0.000 C 
ENDBRANCH   1  13
BRANCH   5  14
ATOM     14  O   UNL     1       1.994   7.340  18.160  0.00  0.00    +0.000 OA
BRANCH  14  15
ATOM     15  C   UNL     1       2.134   8.164  19.310  0.00  0.00    +0.000 C 
BRANCH  15  16
ATOM     16  C   UNL     1       1.219   9.393  19.231  0.00  0.00    +0.000 C 
ATOM     17  O   UNL     1       1.363  10.252  18.360  0.00  0.00    +0.000 OA
ATOM     18  N   UNL     1       0.193   9.459  20.183  0.00  0.00    +0.000 N 
ATOM     19  C   UNL     1      -0.840  10.473  19.991  0.00  0.00    +0.000 C 
ATOM     20  C   UNL     1      -0.580  11.712  20.838  0.00  0.00    +0.000 C 
ATOM     21  C   UNL     1      -1.006  11.552  22.294  0.00  0.00    +0.000 C 
ATOM     22  C   UNL     1      -0.325  10.409  23.042  0.00  0.00    +0.000 C 
ATOM     23  C   UNL     1      -0.718   9.026  22.523  0.00  0.00    +0.000 C 
ATOM     24  C   UNL     1       0.111   8.556  21.329  0.00  0.00    +0.000 C 
ENDBRANCH  15  16
ENDBRANCH  14  15
ENDBRANCH   5  14
TORSDOF 4
ENDMDL
MODEL 3
REMARK VINA RESULT:      -7.6      1.169      2.002
REMARK  Name = 
REMARK  5 active torsions:
REMARK  status: ('A' for Active; 'I' for Inactive)
REMARK    1  A    between atoms: C_1  and  C_2
REMARK    2  A    between atoms: C_2  and  N_3
REMARK    3  A    between atoms: C_7  and  O_8
REMARK    4  A    between atoms: O_8  and  C_9
REMARK    5  A    between atoms: C_9  and  C_10
REMARK                            x       y       z     vdW  Elec       q    Type
REMARK                         _______ _______ _______ _____ _____    ______ ____
ROOT
ATOM      1  N   UNL     1       5.042   4.861  16.859  0.00  0.00    +0.000 N 
ATOM      2  C   UNL     1       5.079   6.248  16.814  0.00  0.00    +0.000 A 
ATOM      3  O   UNL     1       5.973   6.906  16.282  0.00  0.00    +0.000 OA
ATOM      4  C   UNL     1       3.976   6.983  17.460  0.00  0.00    +0.000 A 
ATOM      5  C   UNL     1       2.934   6.360  18.022  0.00  0.00    +0.000 A 
ATOM      6  C   UNL     1       2.855   4.892  17.959  0.00  0.00    +0.000 A 
ATOM      7  C   UNL     1       1.719   4.216  18.442  0.00  0.00    +0.000 A 
ATOM      8  C   UNL     1       1.613   2.831  18.338  0.00  0.00    +0.000 A 
ATOM      9  C   UNL     1       2.651   2.105  17.769  0.00  0.00    +0.000 A 
ATOM     10  C   UNL     1       3.793   2.762  17.302  0.00  0.00    +0.000 A 
ATOM     11  C   UNL     1       3.908   4.159  17.377  0.00  0.00    +0.000 A 
ENDROOT
BRANCH   1  13
ATOM     12  C   UNL     1       6.036   3.957  14.778  0.00  0.00    +0.000 C 
ATOM     13  C   UNL     1       6.179   4.152  16.280  0.00  0.00    +0.000 C 
ENDBRANCH   1  13
BRANCH   5  14
ATOM     14  O   UNL     1       1.881   6.972  18.667  0.00  0.00    +0.000 OA
BRANCH  14  15
ATOM     15  C   UNL     1       2.151   8.211  19.307  0.00  0.00    +0.000 C 
BRANCH  15  16
ATOM     16  C   UNL     1       1.433   9.371  18.604  0.00  0.00    +0.000 C 
ATOM     17  O   UNL     1       1.718   9.706  17.453  0.00  0.00    +0.000 OA
ATOM     18  N   UNL     1       0.413   9.996  19.333  0.00  0.00    +0.000 N 
ATOM     19  C   UNL     1      -0.453  10.930  18.617  0.00  0.00    +0.000 C 
ATOM     20  C   UNL     1      -0.023  12.375  18.829  0.00  0.00    +0.000 C 
ATOM     21  C   UNL     1      -0.493  12.958  20.159  0.00  0.00    +0.000 C 
ATOM     22  C   UNL     1      -0.004  12.212  21.398  0.00  0.00    +0.000 C 
ATOM     23  C   UNL     1      -0.591  10.807  21.530  0.00  0.00    +0.000 C 
ATOM     24  C   UNL     1       0.177   9.741  20.752  0.00  0.00    +0.000 C 
ENDBRANCH  15  16
ENDBRANCH  14  15
ENDBRANCH   5  14
TORSDOF 4
ENDMDL
MODEL 4
REMARK VINA RESULT:      -7.6      2.715      8.183
REMARK  Name = 
REMARK  5 active torsions:
REMARK  status: ('A' for Active; 'I' for Inactive)
REMARK    1  A    between atoms: C_1  and  C_2
REMARK    2  A    between atoms: C_2  and  N_3
REMARK    3  A    between atoms: C_7  and  O_8
REMARK    4  A    between atoms: O_8  and  C_9
REMARK    5  A    between atoms: C_9  and  C_10
REMARK                            x       y       z     vdW  Elec       q    Type
REMARK                         _______ _______ _______ _____ _____    ______ ____
ROOT
ATOM      1  N   UNL     1      -1.545  11.889  20.834  0.00  0.00    +0.000 N 
ATOM      2  C   UNL     1      -0.525  11.513  21.697  0.00  0.00    +0.000 A 
ATOM      3  O   UNL     1      -0.431  11.880  22.868  0.00  0.00    +0.000 OA
ATOM      4  C   UNL     1       0.526  10.624  21.169  0.00  0.00    +0.000 A 
ATOM      5  C   UNL     1       0.487  10.131  19.926  0.00  0.00    +0.000 A 
ATOM      6  C   UNL     1      -0.662  10.448  19.062  0.00  0.00    +0.000 A 
ATOM      7  C   UNL     1      -0.784   9.857  17.791  0.00  0.00    +0.000 A 
ATOM      8  C   UNL     1      -1.895  10.110  16.989  0.00  0.00    +0.000 A 
ATOM      9  C   UNL     1      -2.885  10.973  17.441  0.00  0.00    +0.000 A 
ATOM     10  C   UNL     1      -2.766  11.581  18.694  0.00  0.00    +0.000 A 
ATOM     11  C   UNL     1      -1.666  11.321  19.526  0.00  0.00    +0.000 A 
ENDROOT
BRANCH   1  13
ATOM     12  C   UNL     1      -2.187  14.273  21.027  0.00  0.00    +0.000 C 
ATOM     13  C   UNL     1      -2.535  12.828  21.351  0.00  0.00    +0.000 C 
ENDBRANCH   1  13
BRANCH   5  14
ATOM     14  O   UNL     1       1.440   9.319  19.351  0.00  0.00    +0.000 OA
BRANCH  14  15
ATOM     15  C   UNL     1       1.725   8.094  20.011  0.00  0.00    +0.000 C 
BRANCH  15  16
ATOM     16  C   UNL     1       2.398   7.092  19.063  0.00  0.00    +0.000 C 
ATOM     17  O   UNL     1       2.900   7.448  17.996  0.00  0.00    +0.000 OA
ATOM     18  N   UNL     1       2.439   5.762  19.500  0.00  0.00    +0.000 N 
ATOM     19  C   UNL     1       3.279   4.831  18.752  0.00  0.00    +0.000 C 
ATOM     20  C   UNL     1       2.468   4.013  17.756  0.00  0.00    +0.000 C 
ATOM     21  C   UNL     1       1.733   2.837  18.394  0.00  0.00    +0.000 C 
ATOM     22  C   UNL     1       0.746   3.216  19.495  0.00  0.00    +0.000 C 
ATOM     23  C   UNL     1       1.420   3.785  20.744  0.00  0.00    +0.000 C 
ATOM     24  C   UNL     1       1.699   5.284  20.667  0.00  0.00    +0.000 C 
ENDBRANCH  15  16
ENDBRANCH  14  15
ENDBRANCH   5  14
TORSDOF 4
ENDMDL
MODEL 5
REMARK VINA RESULT:      -7.5      1.940      3.540
REMARK  Name = 
REMARK  5 active torsions:
REMARK  status: ('A' for Active; 'I' for Inactive)
REMARK    1  A    between atoms: C_1  and  C_2
REMARK    2  A    between atoms: C_2  and  N_3
REMARK    3  A    between atoms: C_7  and  O_8
REMARK    4  A    between atoms: O_8  and  C_9
REMARK    5  A    between atoms: C_9  and  C_10
REMARK                            x       y       z     vdW  Elec       q    Type
REMARK                         _______ _______ _______ _____ _____    ______ ____
ROOT
ATOM      1  N   UNL     1       2.385   3.566  18.698  0.00  0.00    +0.000 N 
ATOM      2  C   UNL     1       1.653   3.774  19.860  0.00  0.00    +0.000 A 
ATOM      3  O   UNL     1       1.073   2.889  20.487  0.00  0.00    +0.000 OA
ATOM      4  C   UNL     1       1.555   5.155  20.368  0.00  0.00    +0.000 A 
ATOM      5  C   UNL     1       2.190   6.178  19.786  0.00  0.00    +0.000 A 
ATOM      6  C   UNL     1       3.054   5.919  18.622  0.00  0.00    +0.000 A 
ATOM      7  C   UNL     1       3.820   6.956  18.057  0.00  0.00    +0.000 A 
ATOM      8  C   UNL     1       4.681   6.709  16.990  0.00  0.00    +0.000 A 
ATOM      9  C   UNL     1       4.769   5.427  16.463  0.00  0.00    +0.000 A 
ATOM     10  C   UNL     1       3.999   4.393  17.003  0.00  0.00    +0.000 A 
ATOM     11  C   UNL     1       3.144   4.617  18.093  0.00  0.00    +0.000 A 
ENDROOT
BRANCH   1  13
ATOM     12  C   UNL     1       3.620   1.420  18.647  0.00  0.00    +0.000 C 
ATOM     13  C   UNL     1       2.409   2.205  18.169  0.00  0.00    +0.000 C 
ENDBRANCH   1  13
BRANCH   5  14
ATOM     14  O   UNL     1       2.128   7.496  20.182  0.00  0.00    +0.000 OA
BRANCH  14  15
ATOM     15  C   UNL     1       1.069   7.855  21.059  0.00  0.00    +0.000 C 
BRANCH  15  16
ATOM     16  C   UNL     1       1.166   9.328  21.478  0.00  0.00    +0.000 C 
ATOM     17  O   UNL     1       1.600   9.658  22.583  0.00  0.00    +0.000 OA
ATOM     18  N   UNL     1       0.769  10.269  20.520  0.00  0.00    +0.000 N 
ATOM     19  C   UNL     1       1.077  11.672  20.784  0.00  0.00    +0.000 C 
ATOM     20  C   UNL     1      -0.121  12.414  21.362  0.00  0.00    +0.000 C 
ATOM     21  C   UNL     1      -1.139  12.836  20.307  0.00  0.00    +0.000 C 
ATOM     22  C   UNL     1      -1.736  11.689  19.493  0.00  0.00    +0.000 C 
ATOM     23  C   UNL     1      -0.720  10.998  18.584  0.00  0.00    +0.000 C 
ATOM     24  C   UNL     1       0.087   9.904  19.280  0.00  0.00    +0.000 C 
ENDBRANCH  15  16
ENDBRANCH  14  15
ENDBRANCH   5  14
TORSDOF 4
ENDMDL
MODEL 6
REMARK VINA RESULT:      -7.5      1.036      1.302
REMARK  Name = 
REMARK  5 active torsions:
REMARK  status: ('A' for Active; 'I' for Inactive)
REMARK    1  A    between atoms: C_1  and  C_2
REMARK    2  A    between atoms: C_2  and  N_3
REMARK    3  A    between atoms: C_7  and  O_8
REMARK    4  A    between atoms: O_8  and  C_9
REMARK    5  A    between atoms: C_9  and  C_10
REMARK                            x       y       z     vdW  Elec       q    Type
REMARK                         _______ _______ _______ _____ _____    ______ ____
ROOT
ATOM      1  N   UNL     1       5.162   4.971  16.915  0.00  0.00    +0.000 N 
ATOM      2  C   UNL     1       5.211   6.357  16.866  0.00  0.00    +0.000 A 
ATOM      3  O   UNL     1       6.134   7.005  16.373  0.00  0.00    +0.000 OA
ATOM      4  C   UNL     1       4.087   7.104  17.458  0.00  0.00    +0.000 A 
ATOM      5  C   UNL     1       3.015   6.491  17.974  0.00  0.00    +0.000 A 
ATOM      6  C   UNL     1       2.927   5.023  17.914  0.00  0.00    +0.000 A 
ATOM      7  C   UNL     1       1.765   4.358  18.347  0.00  0.00    +0.000 A 
ATOM      8  C   UNL     1       1.653   2.973  18.244  0.00  0.00    +0.000 A 
ATOM      9  C   UNL     1       2.710   2.237  17.726  0.00  0.00    +0.000 A 
ATOM     10  C   UNL     1       3.877   2.883  17.309  0.00  0.00    +0.000 A 
ATOM     11  C   UNL     1       4.000   4.279  17.383  0.00  0.00    +0.000 A 
ENDROOT
BRANCH   1  13
ATOM     12  C   UNL     1       6.227   4.021  14.890  0.00  0.00    +0.000 C 
ATOM     13  C   UNL     1       6.319   4.250  16.391  0.00  0.00    +0.000 C 
ENDBRANCH   1  13
BRANCH   5  14
ATOM     14  O   UNL     1       1.938   7.113  18.568  0.00  0.00    +0.000 OA
BRANCH  14  15
ATOM     15  C   UNL     1       1.940   8.534  18.574  0.00  0.00    +0.000 C 
BRANCH  15  16
ATOM     16  C   UNL     1       1.398   9.087  19.899  0.00  0.00    +0.000 C 
ATOM     17  O   UNL     1       1.368   8.401  20.922  0.00  0.00    +0.000 OA
ATOM     18  N   UNL     1       0.975  10.422  19.883  0.00  0.00    +0.000 N 
ATOM     19  C   UNL     1       0.687  11.055  21.168  0.00  0.00    +0.000 C 
ATOM     20  C   UNL     1      -0.804  11.051  21.478  0.00  0.00    +0.000 C 
ATOM     21  C   UNL     1      -1.575  12.156  20.761  0.00  0.00    +0.000 C 
ATOM     22  C   UNL     1      -1.485  12.119  19.237  0.00  0.00    +0.000 C 
ATOM     23  C   UNL     1      -0.084  12.419  18.705  0.00  0.00    +0.000 C 
ATOM     24  C   UNL     1       0.831  11.197  18.652  0.00  0.00    +0.000 C 
ENDBRANCH  15  16
ENDBRANCH  14  15
ENDBRANCH   5  14
TORSDOF 4
ENDMDL
MODEL 7
REMARK VINA RESULT:      -7.4      0.965      1.158
REMARK  Name = 
REMARK  5 active torsions:
REMARK  status: ('A' for Active; 'I' for Inactive)
REMARK    1  A    between atoms: C_1  and  C_2
REMARK    2  A    between atoms: C_2  and  N_3
REMARK    3  A    between atoms: C_7  and  O_8
REMARK    4  A    between atoms: O_8  and  C_9
REMARK    5  A    between atoms: C_9  and  C_10
REMARK                            x       y       z     vdW  Elec       q    Type
REMARK                         _______ _______ _______ _____ _____    ______ ____
ROOT
ATOM      1  N   UNL     1       5.545   5.326  17.797  0.00  0.00    +0.000 N 
ATOM      2  C   UNL     1       5.427   6.612  17.287  0.00  0.00    +0.000 A 
ATOM      3  O   UNL     1       6.334   7.227  16.726  0.00  0.00    +0.000 OA
ATOM      4  C   UNL     1       4.128   7.292  17.441  0.00  0.00    +0.000 A 
ATOM      5  C   UNL     1       3.067   6.691  17.992  0.00  0.00    +0.000 A 
ATOM      6  C   UNL     1       3.179   5.288  18.422  0.00  0.00    +0.000 A 
ATOM      7  C   UNL     1       2.051   4.596  18.903  0.00  0.00    +0.000 A 
ATOM      8  C   UNL     1       2.136   3.253  19.262  0.00  0.00    +0.000 A 
ATOM      9  C   UNL     1       3.354   2.593  19.165  0.00  0.00    +0.000 A 
ATOM     10  C   UNL     1       4.486   3.274  18.707  0.00  0.00    +0.000 A 
ATOM     11  C   UNL     1       4.415   4.620  18.318  0.00  0.00    +0.000 A 
ENDROOT
BRANCH   1  13
ATOM     12  C   UNL     1       7.833   5.230  18.742  0.00  0.00    +0.000 C 
ATOM     13  C   UNL     1       6.860   4.697  17.702  0.00  0.00    +0.000 C 
ENDBRANCH   1  13
BRANCH   5  14
ATOM     14  O   UNL     1       1.831   7.265  18.195  0.00  0.00    +0.000 OA
BRANCH  14  15
ATOM     15  C   UNL     1       1.806   8.521  18.860  0.00  0.00    +0.000 C 
BRANCH  15  16
ATOM     16  C   UNL     1       1.453   8.360  20.344  0.00  0.00    +0.000 C 
ATOM     17  O   UNL     1       1.435   7.255  20.889  0.00  0.00    +0.000 OA
ATOM     18  N   UNL     1       1.190   9.542  21.047  0.00  0.00    +0.000 N 
ATOM     19  C   UNL     1       1.095   9.456  22.502  0.00  0.00    +0.000 C 
ATOM     20  C   UNL     1      -0.353   9.380  22.970  0.00  0.00    +0.000 C 
ATOM     21  C   UNL     1      -1.051  10.737  23.004  0.00  0.00    +0.000 C 
ATOM     22  C   UNL     1      -1.103  11.468  21.665  0.00  0.00    +0.000 C 
ATOM     23  C   UNL     1       0.270  11.916  21.165  0.00  0.00    +0.000 C 
ATOM     24  C   UNL     1       1.027  10.838  20.392  0.00  0.00    +0.000 C 
ENDBRANCH  15  16
ENDBRANCH  14  15
ENDBRANCH   5  14
TORSDOF 4
ENDMDL
MODEL 8
REMARK VINA RESULT:      -7.4      1.661      3.438
REMARK  Name = 
REMARK  5 active torsions:
REMARK  status: ('A' for Active; 'I' for Inactive)
REMARK    1  A    between atoms: C_1  and  C_2
REMARK    2  A    between atoms: C_2  and  N_3
REMARK    3  A    between atoms: C_7  and  O_8
REMARK    4  A    between atoms: O_8  and  C_9
REMARK    5  A    between atoms: C_9  and  C_10
REMARK                            x       y       z     vdW  Elec       q    Type
REMARK                         _______ _______ _______ _____ _____    ______ ____
ROOT
ATOM      1  N   UNL     1       2.672   3.623  18.100  0.00  0.00    +0.000 N 
ATOM      2  C   UNL     1       1.873   4.065  19.146  0.00  0.00    +0.000 A 
ATOM      3  O   UNL     1       1.170   3.335  19.844  0.00  0.00    +0.000 OA
ATOM      4  C   UNL     1       1.856   5.512  19.430  0.00  0.00    +0.000 A 
ATOM      5  C   UNL     1       2.622   6.381  18.760  0.00  0.00    +0.000 A 
ATOM      6  C   UNL     1       3.548   5.879  17.732  0.00  0.00    +0.000 A 
ATOM      7  C   UNL     1       4.444   6.754  17.090  0.00  0.00    +0.000 A 
ATOM      8  C   UNL     1       5.360   6.279  16.154  0.00  0.00    +0.000 A 
ATOM      9  C   UNL     1       5.377   4.928  15.836  0.00  0.00    +0.000 A 
ATOM     10  C   UNL     1       4.480   4.051  16.453  0.00  0.00    +0.000 A 
ATOM     11  C   UNL     1       3.565   4.507  17.415  0.00  0.00    +0.000 A 
ENDROOT
BRANCH   1  13
ATOM     12  C   UNL     1       3.661   1.397  18.551  0.00  0.00    +0.000 C 
ATOM     13  C   UNL     1       2.618   2.198  17.785  0.00  0.00    +0.000 C 
ENDBRANCH   1  13
BRANCH   5  14
ATOM     14  O   UNL     1       2.645   7.746  18.947  0.00  0.00    +0.000 OA
BRANCH  14  15
ATOM     15  C   UNL     1       1.730   8.281  19.893  0.00  0.00    +0.000 C 
BRANCH  15  16
ATOM     16  C   UNL     1       0.848   9.368  19.264  0.00  0.00    +0.000 C 
ATOM     17  O   UNL     1       0.966   9.692  18.081  0.00  0.00    +0.000 OA
ATOM     18  N   UNL     1      -0.118   9.940  20.102  0.00  0.00    +0.000 N 
ATOM     19  C   UNL     1      -1.130  10.791  19.483  0.00  0.00    +0.000 C 
ATOM     20  C   UNL     1      -0.784  12.268  19.614  0.00  0.00    +0.000 C 
ATOM     21  C   UNL     1      -1.129  12.853  20.981  0.00  0.00    +0.000 C 
ATOM     22  C   UNL     1      -0.439  12.175  22.163  0.00  0.00    +0.000 C 
ATOM     23  C   UNL     1      -0.902  10.737  22.392  0.00  0.00    +0.000 C 
ATOM     24  C   UNL     1      -0.159   9.707  21.544  0.00  0.00    +0.000 C 
ENDBRANCH  15  16
ENDBRANCH  14  15
ENDBRANCH   5  14
TORSDOF 4
ENDMDL
MODEL 9
REMARK VINA RESULT:      -7.3      1.884      3.656
REMARK  Name = 
REMARK  5 active torsions:
REMARK  status: ('A' for Active; 'I' for Inactive)
REMARK    1  A    between atoms: C_1  and  C_2
REMARK    2  A    between atoms: C_2  and  N_3
REMARK    3  A    between atoms: C_7  and  O_8
REMARK    4  A    between atoms: O_8  and  C_9
REMARK    5  A    between atoms: C_9  and  C_10
REMARK                            x       y       z     vdW  Elec       q    Type
REMARK                         _______ _______ _______ _____ _____    ______ ____
ROOT
ATOM      1  N   UNL     1       3.311   4.243  19.054  0.00  0.00    +0.000 N 
ATOM      2  C   UNL     1       2.607   5.095  19.894  0.00  0.00    +0.000 A 
ATOM      3  O   UNL     1       2.073   4.751  20.948  0.00  0.00    +0.000 OA
ATOM      4  C   UNL     1       2.479   6.506  19.488  0.00  0.00    +0.000 A 
ATOM      5  C   UNL     1       3.065   6.988  18.386  0.00  0.00    +0.000 A 
ATOM      6  C   UNL     1       3.903   6.097  17.568  0.00  0.00    +0.000 A 
ATOM      7  C   UNL     1       4.620   6.601  16.467  0.00  0.00    +0.000 A 
ATOM      8  C   UNL     1       5.457   5.775  15.720  0.00  0.00    +0.000 A 
ATOM      9  C   UNL     1       5.570   4.432  16.053  0.00  0.00    +0.000 A 
ATOM     10  C   UNL     1       4.849   3.914  17.133  0.00  0.00    +0.000 A 
ATOM     11  C   UNL     1       4.019   4.735  17.911  0.00  0.00    +0.000 A 
ENDROOT
BRANCH   1  13
ATOM     12  C   UNL     1       2.216   2.032  18.839  0.00  0.00    +0.000 C 
ATOM     13  C   UNL     1       3.363   2.835  19.434  0.00  0.00    +0.000 C 
ENDBRANCH   1  13
BRANCH   5  14
ATOM     14  O   UNL     1       2.973   8.283  17.925  0.00  0.00    +0.000 OA
BRANCH  14  15
ATOM     15  C   UNL     1       1.686   8.886  17.953  0.00  0.00    +0.000 C 
BRANCH  15  16
ATOM     16  C   UNL     1       1.787  10.410  18.099  0.00  0.00    +0.000 C 
ATOM     17  O   UNL     1       2.706  11.050  17.586  0.00  0.00    +0.000 OA
ATOM     18  N   UNL     1       0.756  11.030  18.817  0.00  0.00    +0.000 N 
ATOM     19  C   UNL     1       0.681  12.488  18.770  0.00  0.00    +0.000 C 
ATOM     20  C   UNL     1       1.318  13.126  19.997  0.00  0.00    +0.000 C 
ATOM     21  C   UNL     1       0.410  13.120  21.223  0.00  0.00    +0.000 C 
ATOM     22  C   UNL     1      -0.040  11.735  21.684  0.00  0.00    +0.000 C 
ATOM     23  C   UNL     1      -0.971  11.040  20.691  0.00  0.00    +0.000 C 
ATOM     24  C   UNL     1      -0.240  10.284  19.584  0.00  0.00    +0.000 C 
ENDBRANCH  15  16
ENDBRANCH  14  15
ENDBRANCH   5  14
TORSDOF 4
ENDMDL
