MODEL 1
REMARK VINA RESULT:      -7.1      0.000      0.000
REMARK  Name = 
REMARK  15 active torsions:
REMARK  status: ('A' for Active; 'I' for Inactive)
REMARK    1  A    between atoms: C_1  and  C_2
REMARK    2  A    between atoms: C_2  and  C_3
REMARK    3  A    between atoms: C_2  and  C_4
REMARK    4  A    between atoms: C_4  and  O_5
REMARK    5  A    between atoms: C_4  and  C_28
REMARK    6  A    between atoms: O_5  and  C_6
REMARK    7  A    between atoms: N_8  and  C_9
REMARK    8  A    between atoms: C_9  and  C_10
REMARK    9  A    between atoms: C_9  and  C_17
REMARK   10  A    between atoms: C_10  and  C_11
REMARK   11  A    between atoms: C_17  and  C_19
REMARK   12  A    between atoms: N_21  and  C_22
REMARK   13  A    between atoms: C_22  and  C_23
REMARK   14  A    between atoms: C_28  and  C_29
REMARK   15  A    between atoms: C_28  and  C_30
REMARK                            x       y       z     vdW  Elec       q    Type
REMARK                         _______ _______ _______ _____ _____    ______ ____
ROOT
ATOM      1  C   UNL     1       0.576  10.055  18.714  0.00  0.00    +0.000 C 
ENDROOT
BRANCH   1   4
ATOM      2  C   UNL     1       2.252   8.237  18.341  0.00  0.00    +0.000 C 
ATOM      3  O   UNL     1       2.539   8.631  17.216  0.00  0.00    +0.000 OA
ATOM      4  N   UNL     1       1.355   8.878  19.152  0.00  0.00    +0.000 N 
ATOM      5  H   UNL     1       1.113   8.429  20.028  0.00  0.00    +0.000 HD
BRANCH   2   6
ATOM      6  O   UNL     1       2.665   7.066  18.894  0.00  0.00    +0.000 OA
BRANCH   6   7
ATOM      7  C   UNL     1       2.585   5.802  18.126  0.00  0.00    +0.000 C 
BRANCH   7   9
ATOM      8  C   UNL     1       1.841   3.381  18.164  0.00  0.00    +0.000 C 
ATOM      9  C   UNL     1       1.573   4.782  18.734  0.00  0.00    +0.000 C 
ATOM     10  C   UNL     1       1.579   4.672  20.263  0.00  0.00    +0.000 C 
ENDBRANCH   7   9
BRANCH   7  11
ATOM     11  C   UNL     1       4.045   5.353  17.818  0.00  0.00    +0.000 C 
ATOM     12  C   UNL     1       4.803   6.082  16.710  0.00  0.00    +0.000 C 
ATOM     13  C   UNL     1       4.901   5.516  19.092  0.00  0.00    +0.000 C 
ENDBRANCH   7  11
ENDBRANCH   6   7
ENDBRANCH   2   6
ENDBRANCH   1   4
BRANCH   1  14
ATOM     14  C   UNL     1       1.252  11.357  19.148  0.00  0.00    +0.000 C 
ATOM     15  O   UNL     1       2.033  12.010  18.465  0.00  0.00    +0.000 OA
BRANCH  14  16
ATOM     16  C   UNL     1       0.925  11.814  20.571  0.00  0.00    +0.000 C 
ATOM     17  O   UNL     1       1.280  11.128  21.517  0.00  0.00    +0.000 OA
ATOM     18  N   UNL     1       0.313  13.043  20.648  0.00  0.00    +0.000 N 
ATOM     19  H   UNL     1       0.084  13.530  19.787  0.00  0.00    +0.000 HD
BRANCH  18  20
ATOM     20  C   UNL     1       0.050  13.707  21.904  0.00  0.00    +0.000 C 
BRANCH  20  21
ATOM     21  C   UNL     1      -1.320  13.334  22.365  0.00  0.00    +0.000 A 
ATOM     22  C   UNL     1      -1.686  12.276  23.173  0.00  0.00    +0.000 A 
ATOM     23  C   UNL     1      -3.091  12.226  23.403  0.00  0.00    +0.000 A 
ATOM     24  C   UNL     1      -3.752  13.253  22.768  0.00  0.00    +0.000 A 
ATOM     25  S   UNL     1      -2.683  14.267  21.900  0.00  0.00    +0.000 S 
ENDBRANCH  20  21
ENDBRANCH  18  20
ENDBRANCH  14  16
ENDBRANCH   1  14
BRANCH   1  26
ATOM     26  C   UNL     1      -0.908  10.076  19.178  0.00  0.00    +0.000 C 
BRANCH  26  27
ATOM     27  C   UNL     1      -1.953  10.358  18.116  0.00  0.00    +0.000 A 
ATOM     28  C   UNL     1      -3.003  11.255  18.327  0.00  0.00    +0.000 A 
ATOM     29  C   UNL     1      -3.912  11.548  17.302  0.00  0.00    +0.000 A 
ATOM     30  C   UNL     1      -3.781  10.955  16.050  0.00  0.00    +0.000 A 
ATOM     31  C   UNL     1      -2.744  10.067  15.827  0.00  0.00    +0.000 A 
ATOM     32  C   UNL     1      -1.841   9.786  16.852  0.00  0.00    +0.000 A 
ENDBRANCH  26  27
ENDBRANCH   1  26
TORSDOF 11
ENDMDL
MODEL 2
REMARK VINA RESULT:      -7.0      0.738      1.198
REMARK  Name = 
REMARK  15 active torsions:
REMARK  status: ('A' for Active; 'I' for Inactive)
REMARK    1  A    between atoms: C_1  and  C_2
REMARK    2  A    between atoms: C_2  and  C_3
REMARK    3  A    between atoms: C_2  and  C_4
REMARK    4  A    between atoms: C_4  and  O_5
REMARK    5  A    between atoms: C_4  and  C_28
REMARK    6  A    between atoms: O_5  and  C_6
REMARK    7  A    between atoms: N_8  and  C_9
REMARK    8  A    between atoms: C_9  and  C_10
REMARK    9  A    between atoms: C_9  and  C_17
REMARK   10  A    between atoms: C_10  and  C_11
REMARK   11  A    between atoms: C_17  and  C_19
REMARK   12  A    between atoms: N_21  and  C_22
REMARK   13  A    between atoms: C_22  and  C_23
REMARK   14  A    between atoms: C_28  and  C_29
REMARK   15  A    between atoms: C_28  and  C_30
REMARK                            x       y       z     vdW  Elec       q    Type
REMARK                         _______ _______ _______ _____ _____    ______ ____
ROOT
ATOM      1  C   UNL     1       0.423  10.200  18.790  0.00  0.00    +0.000 C 
ENDROOT
BRANCH   1   4
ATOM      2  C   UNL     1       2.168   8.448  18.422  0.00  0.00    +0.000 C 
ATOM      3  O   UNL     1       2.350   8.768  17.253  0.00  0.00    +0.000 OA
ATOM      4  N   UNL     1       1.298   9.102  19.252  0.00  0.00    +0.000 N 
ATOM      5  H   UNL     1       1.148   8.710  20.174  0.00  0.00    +0.000 HD
BRANCH   2   6
ATOM      6  O   UNL     1       2.688   7.346  19.026  0.00  0.00    +0.000 OA
BRANCH   6   7
ATOM      7  C   UNL     1       3.052   6.153  18.228  0.00  0.00    +0.000 C 
BRANCH   7   9
ATOM      8  C   UNL     1       1.736   5.113  20.125  0.00  0.00    +0.000 C 
ATOM      9  C   UNL     1       2.434   4.833  18.786  0.00  0.00    +0.000 C 
ATOM     10  C   UNL     1       1.424   4.134  17.871  0.00  0.00    +0.000 C 
ENDBRANCH   7   9
BRANCH   7  11
ATOM     11  C   UNL     1       4.583   6.232  17.947  0.00  0.00    +0.000 C 
ATOM     12  C   UNL     1       5.525   5.474  18.881  0.00  0.00    +0.000 C 
ATOM     13  C   UNL     1       4.865   5.690  16.531  0.00  0.00    +0.000 C 
ENDBRANCH   7  11
ENDBRANCH   6   7
ENDBRANCH   2   6
ENDBRANCH   1   4
BRANCH   1  14
ATOM     14  C   UNL     1       0.923  11.554  19.295  0.00  0.00    +0.000 C 
ATOM     15  O   UNL     1       1.544  12.372  18.626  0.00  0.00    +0.000 OA
BRANCH  14  16
ATOM     16  C   UNL     1       0.634  11.844  20.769  0.00  0.00    +0.000 C 
ATOM     17  O   UNL     1       1.275  11.261  21.631  0.00  0.00    +0.000 OA
ATOM     18  N   UNL     1      -0.297  12.832  20.984  0.00  0.00    +0.000 N 
ATOM     19  H   UNL     1      -0.751  13.259  20.183  0.00  0.00    +0.000 HD
BRANCH  18  20
ATOM     20  C   UNL     1      -0.603  13.344  22.300  0.00  0.00    +0.000 C 
BRANCH  20  21
ATOM     21  C   UNL     1      -2.083  13.306  22.496  0.00  0.00    +0.000 A 
ATOM     22  C   UNL     1      -3.035  12.741  21.669  0.00  0.00    +0.000 A 
ATOM     23  C   UNL     1      -4.358  12.899  22.175  0.00  0.00    +0.000 A 
ATOM     24  C   UNL     1      -4.372  13.574  23.375  0.00  0.00    +0.000 A 
ATOM     25  S   UNL     1      -2.800  14.012  23.885  0.00  0.00    +0.000 S 
ENDBRANCH  20  21
ENDBRANCH  18  20
ENDBRANCH  14  16
ENDBRANCH   1  14
BRANCH   1  26
ATOM     26  C   UNL     1      -1.080  10.046  19.158  0.00  0.00    +0.000 C 
BRANCH  26  27
ATOM     27  C   UNL     1      -2.087  10.360  18.069  0.00  0.00    +0.000 A 
ATOM     28  C   UNL     1      -3.141  11.255  18.267  0.00  0.00    +0.000 A 
ATOM     29  C   UNL     1      -4.013  11.578  17.220  0.00  0.00    +0.000 A 
ATOM     30  C   UNL     1      -3.840  11.019  15.957  0.00  0.00    +0.000 A 
ATOM     31  C   UNL     1      -2.798  10.133  15.747  0.00  0.00    +0.000 A 
ATOM     32  C   UNL     1      -1.932   9.822  16.794  0.00  0.00    +0.000 A 
ENDBRANCH  26  27
ENDBRANCH   1  26
TORSDOF 11
ENDMDL
MODEL 3
REMARK VINA RESULT:      -7.0      4.449      9.003
REMARK  Name = 
REMARK  15 active torsions:
REMARK  status: ('A' for Active; 'I' for Inactive)
REMARK    1  A    between atoms: C_1  and  C_2
REMARK    2  A    between atoms: C_2  and  C_3
REMARK    3  A    between atoms: C_2  and  C_4
REMARK    4  A    between atoms: C_4  and  O_5
REMARK    5  A    between atoms: C_4  and  C_28
REMARK    6  A    between atoms: O_5  and  C_6
REMARK    7  A    between atoms: N_8  and  C_9
REMARK    8  A    between atoms: C_9  and  C_10
REMARK    9  A    between atoms: C_9  and  C_17
REMARK   10  A    between atoms: C_10  and  C_11
REMARK   11  A    between atoms: C_17  and  C_19
REMARK   12  A    between atoms: N_21  and  C_22
REMARK   13  A    between atoms: C_22  and  C_23
REMARK   14  A    between atoms: C_28  and  C_29
REMARK   15  A    between atoms: C_28  and  C_30
REMARK                            x       y       z     vdW  Elec       q    Type
REMARK                         _______ _______ _______ _____ _____    ______ ____
ROOT
ATOM      1  C   UNL     1       5.087   4.916  16.676  0.00  0.00    +0.000 C 
ENDROOT
BRANCH   1   4
ATOM      2  C   UNL     1       3.618   6.742  17.547  0.00  0.00    +0.000 C 
ATOM      3  O   UNL     1       4.511   7.580  17.512  0.00  0.00    +0.000 OA
ATOM      4  N   UNL     1       3.785   5.450  17.127  0.00  0.00    +0.000 N 
ATOM      5  H   UNL     1       3.017   4.806  17.279  0.00  0.00    +0.000 HD
BRANCH   2   6
ATOM      6  O   UNL     1       2.395   6.920  18.114  0.00  0.00    +0.000 OA
BRANCH   6   7
ATOM      7  C   UNL     1       2.094   8.149  18.882  0.00  0.00    +0.000 C 
BRANCH   7   9
ATOM      8  C   UNL     1       1.745   6.481  20.755  0.00  0.00    +0.000 C 
ATOM      9  C   UNL     1       1.345   7.864  20.221  0.00  0.00    +0.000 C 
ATOM     10  C   UNL     1       1.580   8.883  21.342  0.00  0.00    +0.000 C 
ENDBRANCH   7   9
BRANCH   7  11
ATOM     11  C   UNL     1       1.515   9.192  17.879  0.00  0.00    +0.000 C 
ATOM     12  C   UNL     1       0.046   9.589  18.021  0.00  0.00    +0.000 C 
ATOM     13  C   UNL     1       2.320  10.503  17.994  0.00  0.00    +0.000 C 
ENDBRANCH   7  11
ENDBRANCH   6   7
ENDBRANCH   2   6
ENDBRANCH   1   4
BRANCH   1  14
ATOM     14  C   UNL     1       6.041   4.720  17.856  0.00  0.00    +0.000 C 
ATOM     15  O   UNL     1       7.253   4.903  17.822  0.00  0.00    +0.000 OA
BRANCH  14  16
ATOM     16  C   UNL     1       5.387   4.216  19.143  0.00  0.00    +0.000 C 
ATOM     17  O   UNL     1       5.037   5.021  19.992  0.00  0.00    +0.000 OA
ATOM     18  N   UNL     1       5.173   2.858  19.180  0.00  0.00    +0.000 N 
ATOM     19  H   UNL     1       5.493   2.291  18.401  0.00  0.00    +0.000 HD
BRANCH  18  20
ATOM     20  C   UNL     1       4.444   2.211  20.247  0.00  0.00    +0.000 C 
BRANCH  20  21
ATOM     21  C   UNL     1       2.984   2.452  20.043  0.00  0.00    +0.000 A 
ATOM     22  C   UNL     1       2.265   2.360  18.868  0.00  0.00    +0.000 A 
ATOM     23  C   UNL     1       0.884   2.665  19.050  0.00  0.00    +0.000 A 
ATOM     24  C   UNL     1       0.595   2.973  20.360  0.00  0.00    +0.000 A 
ATOM     25  S   UNL     1       1.980   2.895  21.360  0.00  0.00    +0.000 S 
ENDBRANCH  20  21
ENDBRANCH  18  20
ENDBRANCH  14  16
ENDBRANCH   1  14
BRANCH   1  26
ATOM     26  C   UNL     1       5.803   5.755  15.580  0.00  0.00    +0.000 C 
BRANCH  26  27
ATOM     27  C   UNL     1       6.144   5.043  14.286  0.00  0.00    +0.000 A 
ATOM     28  C   UNL     1       7.338   5.281  13.600  0.00  0.00    +0.000 A 
ATOM     29  C   UNL     1       7.657   4.555  12.445  0.00  0.00    +0.000 A 
ATOM     30  C   UNL     1       6.794   3.576  11.963  0.00  0.00    +0.000 A 
ATOM     31  C   UNL     1       5.609   3.329  12.635  0.00  0.00    +0.000 A 
ATOM     32  C   UNL     1       5.303   4.052  13.787  0.00  0.00    +0.000 A 
ENDBRANCH  26  27
ENDBRANCH   1  26
TORSDOF 11
ENDMDL
MODEL 4
REMARK VINA RESULT:      -6.9      2.517      5.732
REMARK  Name = 
REMARK  15 active torsions:
REMARK  status: ('A' for Active; 'I' for Inactive)
REMARK    1  A    between atoms: C_1  and  C_2
REMARK    2  A    between atoms: C_2  and  C_3
REMARK    3  A    between atoms: C_2  and  C_4
REMARK    4  A    between atoms: C_4  and  O_5
REMARK    5  A    between atoms: C_4  and  C_28
REMARK    6  A    between atoms: O_5  and  C_6
REMARK    7  A    between atoms: N_8  and  C_9
REMARK    8  A    between atoms: C_9  and  C_10
REMARK    9  A    between atoms: C_9  and  C_17
REMARK   10  A    between atoms: C_10  and  C_11
REMARK   11  A    between atoms: C_17  and  C_19
REMARK   12  A    between atoms: N_21  and  C_22
REMARK   13  A    between atoms: C_22  and  C_23
REMARK   14  A    between atoms: C_28  and  C_29
REMARK   15  A    between atoms: C_28  and  C_30
REMARK                            x       y       z     vdW  Elec       q    Type
REMARK                         _______ _______ _______ _____ _____    ______ ____
ROOT
ATOM      1  C   UNL     1       2.008   6.876  19.797  0.00  0.00    +0.000 C 
ENDROOT
BRANCH   1   4
ATOM      2  C   UNL     1       3.842   6.124  18.273  0.00  0.00    +0.000 C 
ATOM      3  O   UNL     1       3.067   5.614  17.471  0.00  0.00    +0.000 OA
ATOM      4  N   UNL     1       3.427   6.790  19.395  0.00  0.00    +0.000 N 
ATOM      5  H   UNL     1       4.140   7.099  20.045  0.00  0.00    +0.000 HD
BRANCH   2   6
ATOM      6  O   UNL     1       5.195   6.002  18.246  0.00  0.00    +0.000 OA
BRANCH   6   7
ATOM      7  C   UNL     1       5.953   6.300  17.009  0.00  0.00    +0.000 C 
BRANCH   7   9
ATOM      8  C   UNL     1       6.926   5.263  14.914  0.00  0.00    +0.000 C 
ATOM      9  C   UNL     1       5.743   5.231  15.892  0.00  0.00    +0.000 C 
ATOM     10  C   UNL     1       5.578   3.787  16.379  0.00  0.00    +0.000 C 
ENDBRANCH   7   9
BRANCH   7  11
ATOM     11  C   UNL     1       7.397   6.700  17.436  0.00  0.00    +0.000 C 
ATOM     12  C   UNL     1       7.715   8.186  17.596  0.00  0.00    +0.000 C 
ATOM     13  C   UNL     1       7.718   6.051  18.799  0.00  0.00    +0.000 C 
ENDBRANCH   7  11
ENDBRANCH   6   7
ENDBRANCH   2   6
ENDBRANCH   1   4
BRANCH   1  14
ATOM     14  C   UNL     1       1.672   8.265  20.344  0.00  0.00    +0.000 C 
ATOM     15  O   UNL     1       1.517   8.540  21.528  0.00  0.00    +0.000 OA
BRANCH  14  16
ATOM     16  C   UNL     1       1.488   9.352  19.283  0.00  0.00    +0.000 C 
ATOM     17  O   UNL     1       2.053   9.240  18.205  0.00  0.00    +0.000 OA
ATOM     18  N   UNL     1       0.603  10.345  19.632  0.00  0.00    +0.000 N 
ATOM     19  H   UNL     1       0.179  10.320  20.554  0.00  0.00    +0.000 HD
BRANCH  18  20
ATOM     20  C   UNL     1       0.191  11.382  18.714  0.00  0.00    +0.000 C 
BRANCH  20  21
ATOM     21  C   UNL     1      -1.280  11.263  18.488  0.00  0.00    +0.000 A 
ATOM     22  C   UNL     1      -2.295  11.962  19.113  0.00  0.00    +0.000 A 
ATOM     23  C   UNL     1      -3.586  11.583  18.644  0.00  0.00    +0.000 A 
ATOM     24  C   UNL     1      -3.515  10.612  17.671  0.00  0.00    +0.000 A 
ATOM     25  S   UNL     1      -1.900  10.162  17.328  0.00  0.00    +0.000 S 
ENDBRANCH  20  21
ENDBRANCH  18  20
ENDBRANCH  14  16
ENDBRANCH   1  14
BRANCH   1  26
ATOM     26  C   UNL     1       1.544   5.804  20.824  0.00  0.00    +0.000 C 
BRANCH  26  27
ATOM     27  C   UNL     1       1.663   4.353  20.398  0.00  0.00    +0.000 A 
ATOM     28  C   UNL     1       0.727   3.747  19.557  0.00  0.00    +0.000 A 
ATOM     29  C   UNL     1       0.902   2.426  19.124  0.00  0.00    +0.000 A 
ATOM     30  C   UNL     1       2.018   1.694  19.519  0.00  0.00    +0.000 A 
ATOM     31  C   UNL     1       2.954   2.284  20.350  0.00  0.00    +0.000 A 
ATOM     32  C   UNL     1       2.774   3.601  20.771  0.00  0.00    +0.000 A 
ENDBRANCH  26  27
ENDBRANCH   1  26
TORSDOF 11
ENDMDL
MODEL 5
REMARK VINA RESULT:      -6.8      2.553      5.191
REMARK  Name = 
REMARK  15 active torsions:
REMARK  status: ('A' for Active; 'I' for Inactive)
REMARK    1  A    between atoms: C_1  and  C_2
REMARK    2  A    between atoms: C_2  and  C_3
REMARK    3  A    between atoms: C_2  and  C_4
REMARK    4  A    between atoms: C_4  and  O_5
REMARK    5  A    between atoms: C_4  and  C_28
REMARK    6  A    between atoms: O_5  and  C_6
REMARK    7  A    between atoms: N_8  and  C_9
REMARK    8  A    between atoms: C_9  and  C_10
REMARK    9  A    between atoms: C_9  and  C_17
REMARK   10  A    between atoms: C_10  and  C_11
REMARK   11  A    between atoms: C_17  and  C_19
REMARK   12  A    between atoms: N_21  and  C_22
REMARK   13  A    between atoms: C_22  and  C_23
REMARK   14  A    between atoms: C_28  and  C_29
REMARK   15  A    between atoms: C_28  and  C_30
REMARK                            x       y       z     vdW  Elec       q    Type
REMARK                         _______ _______ _______ _____ _____    ______ ____
ROOT
ATOM      1  C   UNL     1       1.796   6.978  19.830  0.00  0.00    +0.000 C 
ENDROOT
BRANCH   1   4
ATOM      2  C   UNL     1       3.783   6.946  18.312  0.00  0.00    +0.000 C 
ATOM      3  O   UNL     1       3.149   7.370  17.352  0.00  0.00    +0.000 OA
ATOM      4  N   UNL     1       3.232   6.766  19.553  0.00  0.00    +0.000 N 
ATOM      5  H   UNL     1       3.808   6.326  20.261  0.00  0.00    +0.000 HD
BRANCH   2   6
ATOM      6  O   UNL     1       5.058   6.478  18.269  0.00  0.00    +0.000 OA
BRANCH   6   7
ATOM      7  C   UNL     1       5.823   6.497  17.000  0.00  0.00    +0.000 C 
BRANCH   7   9
ATOM      8  C   UNL     1       6.668   4.955  15.178  0.00  0.00    +0.000 C 
ATOM      9  C   UNL     1       5.456   5.317  16.048  0.00  0.00    +0.000 C 
ATOM     10  C   UNL     1       4.975   4.035  16.736  0.00  0.00    +0.000 C 
ENDBRANCH   7   9
BRANCH   7  11
ATOM     11  C   UNL     1       7.315   6.762  17.364  0.00  0.00    +0.000 C 
ATOM     12  C   UNL     1       7.754   8.208  17.593  0.00  0.00    +0.000 C 
ATOM     13  C   UNL     1       7.659   6.006  18.664  0.00  0.00    +0.000 C 
ENDBRANCH   7  11
ENDBRANCH   6   7
ENDBRANCH   2   6
ENDBRANCH   1   4
BRANCH   1  14
ATOM     14  C   UNL     1       1.578   8.219  20.697  0.00  0.00    +0.000 C 
ATOM     15  O   UNL     1       1.807   8.291  21.899  0.00  0.00    +0.000 OA
BRANCH  14  16
ATOM     16  C   UNL     1       0.989   9.426  19.964  0.00  0.00    +0.000 C 
ATOM     17  O   UNL     1       0.927   9.414  18.744  0.00  0.00    +0.000 OA
ATOM     18  N   UNL     1       0.490  10.407  20.789  0.00  0.00    +0.000 N 
ATOM     19  H   UNL     1       0.583  10.294  21.794  0.00  0.00    +0.000 HD
BRANCH  18  20
ATOM     20  C   UNL     1      -0.229  11.556  20.290  0.00  0.00    +0.000 C 
BRANCH  20  21
ATOM     21  C   UNL     1      -1.324  11.889  21.250  0.00  0.00    +0.000 A 
ATOM     22  C   UNL     1      -1.380  11.614  22.602  0.00  0.00    +0.000 A 
ATOM     23  C   UNL     1      -2.587  12.079  23.201  0.00  0.00    +0.000 A 
ATOM     24  C   UNL     1      -3.408  12.701  22.288  0.00  0.00    +0.000 A 
ATOM     25  S   UNL     1      -2.727  12.721  20.720  0.00  0.00    +0.000 S 
ENDBRANCH  20  21
ENDBRANCH  18  20
ENDBRANCH  14  16
ENDBRANCH   1  14
BRANCH   1  26
ATOM     26  C   UNL     1       1.064   5.771  20.483  0.00  0.00    +0.000 C 
BRANCH  26  27
ATOM     27  C   UNL     1       1.460   4.388  20.002  0.00  0.00    +0.000 A 
ATOM     28  C   UNL     1       1.337   4.003  18.665  0.00  0.00    +0.000 A 
ATOM     29  C   UNL     1       1.779   2.744  18.239  0.00  0.00    +0.000 A 
ATOM     30  C   UNL     1       2.356   1.854  19.139  0.00  0.00    +0.000 A 
ATOM     31  C   UNL     1       2.486   2.225  20.466  0.00  0.00    +0.000 A 
ATOM     32  C   UNL     1       2.049   3.482  20.880  0.00  0.00    +0.000 A 
ENDBRANCH  26  27
ENDBRANCH   1  26
TORSDOF 11
ENDMDL
MODEL 6
REMARK VINA RESULT:      -6.8      5.576      8.978
REMARK  Name = 
REMARK  15 active torsions:
REMARK  status: ('A' for Active; 'I' for Inactive)
REMARK    1  A    between atoms: C_1  and  C_2
REMARK    2  A    between atoms: C_2  and  C_3
REMARK    3  A    between atoms: C_2  and  C_4
REMARK    4  A    between atoms: C_4  and  O_5
REMARK    5  A    between atoms: C_4  and  C_28
REMARK    6  A    between atoms: O_5  and  C_6
REMARK    7  A    between atoms: N_8  and  C_9
REMARK    8  A    between atoms: C_9  and  C_10
REMARK    9  A    between atoms: C_9  and  C_17
REMARK   10  A    between atoms: C_10  and  C_11
REMARK   11  A    between atoms: C_17  and  C_19
REMARK   12  A    between atoms: N_21  and  C_22
REMARK   13  A    between atoms: C_22  and  C_23
REMARK   14  A    between atoms: C_28  and  C_29
REMARK   15  A    between atoms: C_28  and  C_30
REMARK                            x       y       z     vdW  Elec       q    Type
REMARK                         _______ _______ _______ _____ _____    ______ ____
ROOT
ATOM      1  C   UNL     1       6.236   7.182  17.336  0.00  0.00    +0.000 C 
ENDROOT
BRANCH   1   4
ATOM      2  C   UNL     1       8.153   8.697  17.866  0.00  0.00    +0.000 C 
ATOM      3  O   UNL     1       8.510   8.031  18.831  0.00  0.00    +0.000 OA
ATOM      4  N   UNL     1       7.101   8.348  17.063  0.00  0.00    +0.000 N 
ATOM      5  H   UNL     1       6.823   9.007  16.344  0.00  0.00    +0.000 HD
BRANCH   2   6
ATOM      6  O   UNL     1       8.645   9.919  17.529  0.00  0.00    +0.000 OA
BRANCH   6   7
ATOM      7  C   UNL     1       8.731  10.999  18.538  0.00  0.00    +0.000 C 
BRANCH   7   9
ATOM      8  C   UNL     1       7.450  12.544  16.993  0.00  0.00    +0.000 C 
ATOM      9  C   UNL     1       8.676  12.427  17.910  0.00  0.00    +0.000 C 
ATOM     10  C   UNL     1       8.624  13.589  18.908  0.00  0.00    +0.000 C 
ENDBRANCH   7   9
BRANCH   7  11
ATOM     11  C   UNL     1       9.887  10.628  19.516  0.00  0.00    +0.000 C 
ATOM     12  C   UNL     1      11.225  11.347  19.353  0.00  0.00    +0.000 C 
ATOM     13  C   UNL     1       9.431  10.906  20.963  0.00  0.00    +0.000 C 
ENDBRANCH   7  11
ENDBRANCH   6   7
ENDBRANCH   2   6
ENDBRANCH   1   4
BRANCH   1  14
ATOM     14  C   UNL     1       6.896   5.883  16.869  0.00  0.00    +0.000 C 
ATOM     15  O   UNL     1       7.506   5.740  15.815  0.00  0.00    +0.000 OA
BRANCH  14  16
ATOM     16  C   UNL     1       6.715   4.690  17.808  0.00  0.00    +0.000 C 
ATOM     17  O   UNL     1       7.629   4.370  18.553  0.00  0.00    +0.000 OA
ATOM     18  N   UNL     1       5.461   4.126  17.779  0.00  0.00    +0.000 N 
ATOM     19  H   UNL     1       4.775   4.493  17.127  0.00  0.00    +0.000 HD
BRANCH  18  20
ATOM     20  C   UNL     1       5.054   3.081  18.690  0.00  0.00    +0.000 C 
BRANCH  20  21
ATOM     21  C   UNL     1       3.569   3.133  18.844  0.00  0.00    +0.000 A 
ATOM     22  C   UNL     1       2.615   3.232  17.850  0.00  0.00    +0.000 A 
ATOM     23  C   UNL     1       1.289   3.259  18.369  0.00  0.00    +0.000 A 
ATOM     24  C   UNL     1       1.272   3.173  19.743  0.00  0.00    +0.000 A 
ATOM     25  S   UNL     1       2.848   3.061  20.399  0.00  0.00    +0.000 S 
ENDBRANCH  20  21
ENDBRANCH  18  20
ENDBRANCH  14  16
ENDBRANCH   1  14
BRANCH   1  26
ATOM     26  C   UNL     1       4.804   7.266  16.736  0.00  0.00    +0.000 C 
BRANCH  26  27
ATOM     27  C   UNL     1       3.663   7.473  17.714  0.00  0.00    +0.000 A 
ATOM     28  C   UNL     1       3.453   6.621  18.801  0.00  0.00    +0.000 A 
ATOM     29  C   UNL     1       2.435   6.880  19.727  0.00  0.00    +0.000 A 
ATOM     30  C   UNL     1       1.616   7.997  19.586  0.00  0.00    +0.000 A 
ATOM     31  C   UNL     1       1.816   8.850  18.514  0.00  0.00    +0.000 A 
ATOM     32  C   UNL     1       2.836   8.587  17.601  0.00  0.00    +0.000 A 
ENDBRANCH  26  27
ENDBRANCH   1  26
TORSDOF 11
ENDMDL
MODEL 7
REMARK VINA RESULT:      -6.8      6.931      9.200
REMARK  Name = 
REMARK  15 active torsions:
REMARK  status: ('A' for Active; 'I' for Inactive)
REMARK    1  A    between atoms: C_1  and  C_2
REMARK    2  A    between atoms: C_2  and  C_3
REMARK    3  A    between atoms: C_2  and  C_4
REMARK    4  A    between atoms: C_4  and  O_5
REMARK    5  A    between atoms: C_4  and  C_28
REMARK    6  A    between atoms: O_5  and  C_6
REMARK    7  A    between atoms: N_8  and  C_9
REMARK    8  A    between atoms: C_9  and  C_10
REMARK    9  A    between atoms: C_9  and  C_17
REMARK   10  A    between atoms: C_10  and  C_11
REMARK   11  A    between atoms: C_17  and  C_19
REMARK   12  A    between atoms: N_21  and  C_22
REMARK   13  A    between atoms: C_22  and  C_23
REMARK   14  A    between atoms: C_28  and  C_29
REMARK   15  A    between atoms: C_28  and  C_30
REMARK                            x       y       z     vdW  Elec       q    Type
REMARK                         _______ _______ _______ _____ _____    ______ ____
ROOT
ATOM      1  C   UNL     1       6.920   4.946  17.297  0.00  0.00    +0.000 C 
ENDROOT
BRANCH   1   4
ATOM      2  C   UNL     1       5.080   4.365  18.886  0.00  0.00    +0.000 C 
ATOM      3  O   UNL     1       4.573   5.480  18.825  0.00  0.00    +0.000 OA
ATOM      4  N   UNL     1       6.180   4.001  18.158  0.00  0.00    +0.000 N 
ATOM      5  H   UNL     1       6.581   3.088  18.342  0.00  0.00    +0.000 HD
BRANCH   2   6
ATOM      6  O   UNL     1       4.720   3.385  19.757  0.00  0.00    +0.000 OA
BRANCH   6   7
ATOM      7  C   UNL     1       3.299   2.998  19.909  0.00  0.00    +0.000 C 
BRANCH   7   9
ATOM      8  C   UNL     1       3.315   1.842  17.656  0.00  0.00    +0.000 C 
ATOM      9  C   UNL     1       2.560   2.841  18.544  0.00  0.00    +0.000 C 
ATOM     10  C   UNL     1       1.101   2.379  18.629  0.00  0.00    +0.000 C 
ENDBRANCH   7   9
BRANCH   7  11
ATOM     11  C   UNL     1       2.689   3.905  21.019  0.00  0.00    +0.000 C 
ATOM     12  C   UNL     1       1.765   5.044  20.591  0.00  0.00    +0.000 C 
ATOM     13  C   UNL     1       1.861   3.032  21.985  0.00  0.00    +0.000 C 
ENDBRANCH   7  11
ENDBRANCH   6   7
ENDBRANCH   2   6
ENDBRANCH   1   4
BRANCH   1  14
ATOM     14  C   UNL     1       7.544   6.073  18.122  0.00  0.00    +0.000 C 
ATOM     15  O   UNL     1       8.172   5.920  19.164  0.00  0.00    +0.000 OA
BRANCH  14  16
ATOM     16  C   UNL     1       7.302   7.483  17.582  0.00  0.00    +0.000 C 
ATOM     17  O   UNL     1       6.296   7.710  16.929  0.00  0.00    +0.000 OA
ATOM     18  N   UNL     1       8.239   8.412  17.973  0.00  0.00    +0.000 N 
ATOM     19  H   UNL     1       9.026   8.105  18.535  0.00  0.00    +0.000 HD
BRANCH  18  20
ATOM     20  C   UNL     1       8.110   9.821  17.682  0.00  0.00    +0.000 C 
BRANCH  20  21
ATOM     21  C   UNL     1       9.073  10.576  18.537  0.00  0.00    +0.000 A 
ATOM     22  C   UNL     1       9.371  10.366  19.869  0.00  0.00    +0.000 A 
ATOM     23  C   UNL     1      10.341  11.286  20.362  0.00  0.00    +0.000 A 
ATOM     24  C   UNL     1      10.756  12.166  19.388  0.00  0.00    +0.000 A 
ATOM     25  S   UNL     1       9.979  11.880  17.890  0.00  0.00    +0.000 S 
ENDBRANCH  20  21
ENDBRANCH  18  20
ENDBRANCH  14  16
ENDBRANCH   1  14
BRANCH   1  26
ATOM     26  C   UNL     1       6.094   5.569  16.135  0.00  0.00    +0.000 C 
BRANCH  26  27
ATOM     27  C   UNL     1       6.376   5.047  14.739  0.00  0.00    +0.000 A 
ATOM     28  C   UNL     1       7.510   5.431  14.018  0.00  0.00    +0.000 A 
ATOM     29  C   UNL     1       7.780   4.877  12.760  0.00  0.00    +0.000 A 
ATOM     30  C   UNL     1       6.926   3.928  12.207  0.00  0.00    +0.000 A 
ATOM     31  C   UNL     1       5.801   3.538  12.912  0.00  0.00    +0.000 A 
ATOM     32  C   UNL     1       5.543   4.090  14.166  0.00  0.00    +0.000 A 
ENDBRANCH  26  27
ENDBRANCH   1  26
TORSDOF 11
ENDMDL
MODEL 8
REMARK VINA RESULT:      -6.7      2.574      5.736
REMARK  Name = 
REMARK  15 active torsions:
REMARK  status: ('A' for Active; 'I' for Inactive)
REMARK    1  A    between atoms: C_1  and  C_2
REMARK    2  A    between atoms: C_2  and  C_3
REMARK    3  A    between atoms: C_2  and  C_4
REMARK    4  A    between atoms: C_4  and  O_5
REMARK    5  A    between atoms: C_4  and  C_28
REMARK    6  A    between atoms: O_5  and  C_6
REMARK    7  A    between atoms: N_8  and  C_9
REMARK    8  A    between atoms: C_9  and  C_10
REMARK    9  A    between atoms: C_9  and  C_17
REMARK   10  A    between atoms: C_10  and  C_11
REMARK   11  A    between atoms: C_17  and  C_19
REMARK   12  A    between atoms: N_21  and  C_22
REMARK   13  A    between atoms: C_22  and  C_23
REMARK   14  A    between atoms: C_28  and  C_29
REMARK   15  A    between atoms: C_28  and  C_30
REMARK                            x       y       z     vdW  Elec       q    Type
REMARK                         _______ _______ _______ _____ _____    ______ ____
ROOT
ATOM      1  C   UNL     1       2.676   6.769  17.755  0.00  0.00    +0.000 C 
ENDROOT
BRANCH   1   4
ATOM      2  C   UNL     1       4.808   7.038  16.478  0.00  0.00    +0.000 C 
ATOM      3  O   UNL     1       4.243   7.476  15.482  0.00  0.00    +0.000 OA
ATOM      4  N   UNL     1       4.147   6.711  17.631  0.00  0.00    +0.000 N 
ATOM      5  H   UNL     1       4.684   6.271  18.370  0.00  0.00    +0.000 HD
BRANCH   2   6
ATOM      6  O   UNL     1       6.121   6.693  16.550  0.00  0.00    +0.000 OA
BRANCH   6   7
ATOM      7  C   UNL     1       6.547   5.516  17.342  0.00  0.00    +0.000 C 
BRANCH   7   9
ATOM      8  C   UNL     1       8.055   7.329  18.264  0.00  0.00    +0.000 C 
ATOM      9  C   UNL     1       7.720   5.831  18.322  0.00  0.00    +0.000 C 
ATOM     10  C   UNL     1       7.475   5.464  19.789  0.00  0.00    +0.000 C 
ENDBRANCH   7   9
BRANCH   7  11
ATOM     11  C   UNL     1       6.663   4.313  16.358  0.00  0.00    +0.000 C 
ATOM     12  C   UNL     1       5.399   3.510  16.053  0.00  0.00    +0.000 C 
ATOM     13  C   UNL     1       7.178   4.823  14.997  0.00  0.00    +0.000 C 
ENDBRANCH   7  11
ENDBRANCH   6   7
ENDBRANCH   2   6
ENDBRANCH   1   4
BRANCH   1  14
ATOM     14  C   UNL     1       2.255   7.597  18.971  0.00  0.00    +0.000 C 
ATOM     15  O   UNL     1       2.326   7.227  20.137  0.00  0.00    +0.000 OA
BRANCH  14  16
ATOM     16  C   UNL     1       1.671   8.973  18.646  0.00  0.00    +0.000 C 
ATOM     17  O   UNL     1       1.895   9.478  17.557  0.00  0.00    +0.000 OA
ATOM     18  N   UNL     1       0.849   9.488  19.622  0.00  0.00    +0.000 N 
ATOM     19  H   UNL     1       0.725   8.964  20.483  0.00  0.00    +0.000 HD
BRANCH  18  20
ATOM     20  C   UNL     1       0.096  10.708  19.444  0.00  0.00    +0.000 C 
BRANCH  20  21
ATOM     21  C   UNL     1      -0.571  11.051  20.736  0.00  0.00    +0.000 A 
ATOM     22  C   UNL     1      -1.507  12.038  20.973  0.00  0.00    +0.000 A 
ATOM     23  C   UNL     1      -1.922  12.079  22.336  0.00  0.00    +0.000 A 
ATOM     24  C   UNL     1      -1.294  11.117  23.094  0.00  0.00    +0.000 A 
ATOM     25  S   UNL     1      -0.211  10.172  22.165  0.00  0.00    +0.000 S 
ENDBRANCH  20  21
ENDBRANCH  18  20
ENDBRANCH  14  16
ENDBRANCH   1  14
BRANCH   1  26
ATOM     26  C   UNL     1       1.962   5.388  17.814  0.00  0.00    +0.000 C 
BRANCH  26  27
ATOM     27  C   UNL     1       2.262   4.513  19.015  0.00  0.00    +0.000 A 
ATOM     28  C   UNL     1       1.289   4.201  19.969  0.00  0.00    +0.000 A 
ATOM     29  C   UNL     1       1.577   3.333  21.029  0.00  0.00    +0.000 A 
ATOM     30  C   UNL     1       2.838   2.756  21.149  0.00  0.00    +0.000 A 
ATOM     31  C   UNL     1       3.810   3.054  20.209  0.00  0.00    +0.000 A 
ATOM     32  C   UNL     1       3.512   3.916  19.155  0.00  0.00    +0.000 A 
ENDBRANCH  26  27
ENDBRANCH   1  26
TORSDOF 11
ENDMDL
MODEL 9
REMARK VINA RESULT:      -6.6      6.148      9.254
REMARK  Name = 
REMARK  15 active torsions:
REMARK  status: ('A' for Active; 'I' for Inactive)
REMARK    1  A    between atoms: C_1  and  C_2
REMARK    2  A    between atoms: C_2  and  C_3
REMARK    3  A    between atoms: C_2  and  C_4
REMARK    4  A    between atoms: C_4  and  O_5
REMARK    5  A    between atoms: C_4  and  C_28
REMARK    6  A    between atoms: O_5  and  C_6
REMARK    7  A    between atoms: N_8  and  C_9
REMARK    8  A    between atoms: C_9  and  C_10
REMARK    9  A    between atoms: C_9  and  C_17
REMARK   10  A    between atoms: C_10  and  C_11
REMARK   11  A    between atoms: C_17  and  C_19
REMARK   12  A    between atoms: N_21  and  C_22
REMARK   13  A    between atoms: C_22  and  C_23
REMARK   14  A    between atoms: C_28  and  C_29
REMARK   15  A    between atoms: C_28  and  C_30
REMARK                            x       y       z     vdW  Elec       q    Type
REMARK                         _______ _______ _______ _____ _____    ______ ____
ROOT
ATOM      1  C   UNL     1       7.010   5.345  16.984  0.00  0.00    +0.000 C 
ENDROOT
BRANCH   1   4
ATOM      2  C   UNL     1       4.977   4.496  18.166  0.00  0.00    +0.000 C 
ATOM      3  O   UNL     1       5.628   3.940  19.043  0.00  0.00    +0.000 OA
ATOM      4  N   UNL     1       5.548   5.230  17.161  0.00  0.00    +0.000 N 
ATOM      5  H   UNL     1       4.937   5.577  16.431  0.00  0.00    +0.000 HD
BRANCH   2   6
ATOM      6  O   UNL     1       3.637   4.369  17.981  0.00  0.00    +0.000 OA
BRANCH   6   7
ATOM      7  C   UNL     1       2.723   4.274  19.143  0.00  0.00    +0.000 C 
BRANCH   7   9
ATOM      8  C   UNL     1       2.860   1.782  18.715  0.00  0.00    +0.000 C 
ATOM      9  C   UNL     1       1.952   2.919  19.204  0.00  0.00    +0.000 C 
ATOM     10  C   UNL     1       1.412   2.524  20.583  0.00  0.00    +0.000 C 
ENDBRANCH   7   9
BRANCH   7  11
ATOM     11  C   UNL     1       1.937   5.617  19.224  0.00  0.00    +0.000 C 
ATOM     12  C   UNL     1       1.890   6.343  20.568  0.00  0.00    +0.000 C 
ATOM     13  C   UNL     1       2.547   6.619  18.223  0.00  0.00    +0.000 C 
ENDBRANCH   7  11
ENDBRANCH   6   7
ENDBRANCH   2   6
ENDBRANCH   1   4
BRANCH   1  14
ATOM     14  C   UNL     1       7.608   6.354  17.966  0.00  0.00    +0.000 C 
ATOM     15  O   UNL     1       8.220   6.067  18.988  0.00  0.00    +0.000 OA
BRANCH  14  16
ATOM     16  C   UNL     1       7.361   7.823  17.617  0.00  0.00    +0.000 C 
ATOM     17  O   UNL     1       6.335   8.135  17.031  0.00  0.00    +0.000 OA
ATOM     18  N   UNL     1       8.317   8.691  18.091  0.00  0.00    +0.000 N 
ATOM     19  H   UNL     1       9.119   8.312  18.584  0.00  0.00    +0.000 HD
BRANCH  18  20
ATOM     20  C   UNL     1       8.190  10.126  17.986  0.00  0.00    +0.000 C 
BRANCH  20  21
ATOM     21  C   UNL     1       9.400  10.759  18.589  0.00  0.00    +0.000 A 
ATOM     22  C   UNL     1      10.532  11.215  17.942  0.00  0.00    +0.000 A 
ATOM     23  C   UNL     1      11.492  11.760  18.843  0.00  0.00    +0.000 A 
ATOM     24  C   UNL     1      11.059  11.708  20.149  0.00  0.00    +0.000 A 
ATOM     25  S   UNL     1       9.505  11.005  20.283  0.00  0.00    +0.000 S 
ENDBRANCH  20  21
ENDBRANCH  18  20
ENDBRANCH  14  16
ENDBRANCH   1  14
BRANCH   1  26
ATOM     26  C   UNL     1       7.476   5.704  15.544  0.00  0.00    +0.000 C 
BRANCH  26  27
ATOM     27  C   UNL     1       6.921   4.857  14.414  0.00  0.00    +0.000 A 
ATOM     28  C   UNL     1       5.701   4.184  14.521  0.00  0.00    +0.000 A 
ATOM     29  C   UNL     1       5.181   3.469  13.435  0.00  0.00    +0.000 A 
ATOM     30  C   UNL     1       5.867   3.421  12.225  0.00  0.00    +0.000 A 
ATOM     31  C   UNL     1       7.075   4.085  12.106  0.00  0.00    +0.000 A 
ATOM     32  C   UNL     1       7.582   4.799  13.190  0.00  0.00    +0.000 A 
ENDBRANCH  26  27
ENDBRANCH   1  26
TORSDOF 11
ENDMDL
