MODEL 1
REMARK VINA RESULT:      -7.2      0.000      0.000
REMARK  Name = 
REMARK  7 active torsions:
REMARK  status: ('A' for Active; 'I' for Inactive)
REMARK    1  A    between atoms: C_2  and  O_3
REMARK    2  A    between atoms: C_2  and  C_4
REMARK    3  A    between atoms: C_7  and  N_8
REMARK    4  A    between atoms: C_9  and  S_10
REMARK    5  A    between atoms: N_11  and  C_12
REMARK    6  A    between atoms: C_12  and  C_13
REMARK    7  A    between atoms: C_13  and  C_14
REMARK                            x       y       z     vdW  Elec       q    Type
REMARK                         _______ _______ _______ _____ _____    ______ ____
ROOT
ATOM      1  N   UNK     1       6.093   6.247  18.363  0.00  0.00    +0.000 NA
ATOM      2  C   UNK     1       6.819   6.390  17.296  0.00  0.00    +0.000 C 
ATOM      3  N   UNK     1       7.600   7.492  17.054  0.00  0.00    +0.000 N 
ATOM      4  H   UNK     1       8.153   7.419  16.210  0.00  0.00    +0.000 HD
ENDROOT
BRANCH   1   8
ATOM      5  C   UNK     1       4.551   3.129  19.156  0.00  0.00    +0.000 A 
ATOM      6  C   UNK     1       3.430   3.580  18.493  0.00  0.00    +0.000 A 
ATOM      7  S   UNK     1       3.708   5.157  17.893  0.00  0.00    +0.000 S 
ATOM      8  C   UNK     1       5.314   5.144  18.543  0.00  0.00    +0.000 A 
ATOM      9  N   UNK     1       5.619   4.031  19.188  0.00  0.00    +0.000 NA
BRANCH   5  11
ATOM     10  O   UNK     1       4.946   1.647  20.970  0.00  0.00    +0.000 OA
ATOM     11  C   UNK     1       4.682   1.822  19.789  0.00  0.00    +0.000 C 
BRANCH  11  12
ATOM     12  O   UNK     1       4.467   0.800  18.918  0.00  0.00    +0.000 OA
ATOM     13  H   UNK     1       4.786  -0.031  19.332  0.00  0.00    +0.000 HD
ENDBRANCH  11  12
ENDBRANCH   5  11
ENDBRANCH   1   8
BRANCH   2  14
ATOM     14  S   UNK     1       6.970   5.265  15.948  0.00  0.00    +0.000 S 
ATOM     15  H   UNK     1       5.667   5.213  15.640  0.00  0.00    +0.000 HD
ENDBRANCH   2  14
BRANCH   3  16
ATOM     16  C   UNK     1       8.171   8.306  18.116  0.00  0.00    +0.000 C 
BRANCH  16  17
ATOM     17  C   UNK     1       8.193   9.794  17.723  0.00  0.00    +0.000 C 
BRANCH  17  18
ATOM     18  C   UNK     1       9.293  10.525  18.458  0.00  0.00    +0.000 A 
ATOM     19  C   UNK     1       9.311  10.581  19.858  0.00  0.00    +0.000 A 
ATOM     20  C   UNK     1      10.248  11.378  20.520  0.00  0.00    +0.000 A 
ATOM     21  C   UNK     1      11.188  12.104  19.792  0.00  0.00    +0.000 A 
ATOM     22  C   UNK     1      11.203  12.024  18.401  0.00  0.00    +0.000 A 
ATOM     23  C   UNK     1      10.260  11.239  17.737  0.00  0.00    +0.000 A 
ENDBRANCH  17  18
ENDBRANCH  16  17
ENDBRANCH   3  16
TORSDOF 7
ENDMDL
MODEL 2
REMARK VINA RESULT:      -6.9      0.591      1.250
REMARK  Name = 
REMARK  7 active torsions:
REMARK  status: ('A' for Active; 'I' for Inactive)
REMARK    1  A    between atoms: C_2  and  O_3
REMARK    2  A    between atoms: C_2  and  C_4
REMARK    3  A    between atoms: C_7  and  N_8
REMARK    4  A    between atoms: C_9  and  S_10
REMARK    5  A    between atoms: N_11  and  C_12
REMARK    6  A    between atoms: C_12  and  C_13
REMARK    7  A    between atoms: C_13  and  C_14
REMARK                            x       y       z     vdW  Elec       q    Type
REMARK                         _______ _______ _______ _____ _____    ______ ____
ROOT
ATOM      1  N   UNK     1       5.998   6.510  18.380  0.00  0.00    +0.000 NA
ATOM      2  C   UNK     1       6.811   6.483  17.368  0.00  0.00    +0.000 C 
ATOM      3  N   UNK     1       7.693   7.494  17.078  0.00  0.00    +0.000 N 
ATOM      4  H   UNK     1       8.300   7.289  16.295  0.00  0.00    +0.000 HD
ENDROOT
BRANCH   1   8
ATOM      5  C   UNK     1       4.145   3.633  19.389  0.00  0.00    +0.000 A 
ATOM      6  C   UNK     1       3.147   4.047  18.535  0.00  0.00    +0.000 A 
ATOM      7  S   UNK     1       3.610   5.503  17.765  0.00  0.00    +0.000 S 
ATOM      8  C   UNK     1       5.123   5.491  18.609  0.00  0.00    +0.000 A 
ATOM      9  N   UNK     1       5.267   4.467  19.432  0.00  0.00    +0.000 NA
BRANCH   5  11
ATOM     10  O   UNK     1       3.234   2.174  21.028  0.00  0.00    +0.000 OA
ATOM     11  C   UNK     1       4.103   2.425  20.206  0.00  0.00    +0.000 C 
BRANCH  11  12
ATOM     12  O   UNK     1       5.143   1.589  19.948  0.00  0.00    +0.000 OA
ATOM     13  H   UNK     1       4.788   0.775  19.529  0.00  0.00    +0.000 HD
ENDBRANCH  11  12
ENDBRANCH   5  11
ENDBRANCH   1   8
BRANCH   2  14
ATOM     14  S   UNK     1       6.973   5.208  16.162  0.00  0.00    +0.000 S 
ATOM     15  H   UNK     1       7.677   4.360  16.922  0.00  0.00    +0.000 HD
ENDBRANCH   2  14
BRANCH   3  16
ATOM     16  C   UNK     1       8.245   8.377  18.093  0.00  0.00    +0.000 C 
BRANCH  16  17
ATOM     17  C   UNK     1       8.295   9.833  17.594  0.00  0.00    +0.000 C 
BRANCH  17  18
ATOM     18  C   UNK     1       9.284  10.641  18.400  0.00  0.00    +0.000 A 
ATOM     19  C   UNK     1      10.340  11.319  17.775  0.00  0.00    +0.000 A 
ATOM     20  C   UNK     1      11.328  11.943  18.540  0.00  0.00    +0.000 A 
ATOM     21  C   UNK     1      11.258  11.915  19.931  0.00  0.00    +0.000 A 
ATOM     22  C   UNK     1      10.191  11.277  20.561  0.00  0.00    +0.000 A 
ATOM     23  C   UNK     1       9.209  10.643  19.799  0.00  0.00    +0.000 A 
ENDBRANCH  17  18
ENDBRANCH  16  17
ENDBRANCH   3  16
TORSDOF 7
ENDMDL
MODEL 3
REMARK VINA RESULT:      -6.6      2.153      2.774
REMARK  Name = 
REMARK  7 active torsions:
REMARK  status: ('A' for Active; 'I' for Inactive)
REMARK    1  A    between atoms: C_2  and  O_3
REMARK    2  A    between atoms: C_2  and  C_4
REMARK    3  A    between atoms: C_7  and  N_8
REMARK    4  A    between atoms: C_9  and  S_10
REMARK    5  A    between atoms: N_11  and  C_12
REMARK    6  A    between atoms: C_12  and  C_13
REMARK    7  A    between atoms: C_13  and  C_14
REMARK                            x       y       z     vdW  Elec       q    Type
REMARK                         _______ _______ _______ _____ _____    ______ ____
ROOT
ATOM      1  N   UNK     1       7.035   7.229  17.284  0.00  0.00    +0.000 NA
ATOM      2  C   UNK     1       7.833   7.103  18.300  0.00  0.00    +0.000 C 
ATOM      3  N   UNK     1       8.746   8.059  18.670  0.00  0.00    +0.000 N 
ATOM      4  H   UNK     1       9.245   7.835  19.521  0.00  0.00    +0.000 HD
ENDROOT
BRANCH   1   8
ATOM      5  C   UNK     1       4.392   4.871  16.857  0.00  0.00    +0.000 A 
ATOM      6  C   UNK     1       5.122   4.327  15.823  0.00  0.00    +0.000 A 
ATOM      7  S   UNK     1       6.585   5.192  15.629  0.00  0.00    +0.000 S 
ATOM      8  C   UNK     1       6.164   6.239  16.944  0.00  0.00    +0.000 A 
ATOM      9  N   UNK     1       4.990   5.968  17.487  0.00  0.00    +0.000 NA
BRANCH   5  11
ATOM     10  O   UNK     1       2.692   3.241  17.167  0.00  0.00    +0.000 OA
ATOM     11  C   UNK     1       3.096   4.385  17.316  0.00  0.00    +0.000 C 
BRANCH  11  12
ATOM     12  O   UNK     1       2.375   5.350  17.947  0.00  0.00    +0.000 OA
ATOM     13  H   UNK     1       2.826   6.211  17.812  0.00  0.00    +0.000 HD
ENDBRANCH  11  12
ENDBRANCH   5  11
ENDBRANCH   1   8
BRANCH   2  14
ATOM     14  S   UNK     1       7.951   5.733  19.403  0.00  0.00    +0.000 S 
ATOM     15  H   UNK     1       8.962   6.210  20.140  0.00  0.00    +0.000 HD
ENDBRANCH   2  14
BRANCH   3  16
ATOM     16  C   UNK     1       8.561   9.476  18.399  0.00  0.00    +0.000 C 
BRANCH  16  17
ATOM     17  C   UNK     1       9.080  10.337  19.565  0.00  0.00    +0.000 C 
BRANCH  17  18
ATOM     18  C   UNK     1      10.238  11.198  19.120  0.00  0.00    +0.000 A 
ATOM     19  C   UNK     1      11.136  11.738  20.052  0.00  0.00    +0.000 A 
ATOM     20  C   UNK     1      12.114  12.647  19.644  0.00  0.00    +0.000 A 
ATOM     21  C   UNK     1      12.220  13.007  18.302  0.00  0.00    +0.000 A 
ATOM     22  C   UNK     1      11.357  12.446  17.362  0.00  0.00    +0.000 A 
ATOM     23  C   UNK     1      10.371  11.547  17.769  0.00  0.00    +0.000 A 
ENDBRANCH  17  18
ENDBRANCH  16  17
ENDBRANCH   3  16
TORSDOF 7
ENDMDL
MODEL 4
REMARK VINA RESULT:      -6.5      1.118      1.210
REMARK  Name = 
REMARK  7 active torsions:
REMARK  status: ('A' for Active; 'I' for Inactive)
REMARK    1  A    between atoms: C_2  and  O_3
REMARK    2  A    between atoms: C_2  and  C_4
REMARK    3  A    between atoms: C_7  and  N_8
REMARK    4  A    between atoms: C_9  and  S_10
REMARK    5  A    between atoms: N_11  and  C_12
REMARK    6  A    between atoms: C_12  and  C_13
REMARK    7  A    between atoms: C_13  and  C_14
REMARK                            x       y       z     vdW  Elec       q    Type
REMARK                         _______ _______ _______ _____ _____    ______ ____
ROOT
ATOM      1  N   UNK     1       5.569   6.631  18.021  0.00  0.00    +0.000 NA
ATOM      2  C   UNK     1       6.717   6.345  17.487  0.00  0.00    +0.000 C 
ATOM      3  N   UNK     1       7.590   7.294  17.016  0.00  0.00    +0.000 N 
ATOM      4  H   UNK     1       8.467   6.911  16.689  0.00  0.00    +0.000 HD
ENDROOT
BRANCH   1   8
ATOM      5  C   UNK     1       3.867   3.849  19.466  0.00  0.00    +0.000 A 
ATOM      6  C   UNK     1       2.733   4.274  18.809  0.00  0.00    +0.000 A 
ATOM      7  S   UNK     1       3.079   5.692  17.917  0.00  0.00    +0.000 S 
ATOM      8  C   UNK     1       4.727   5.650  18.450  0.00  0.00    +0.000 A 
ATOM      9  N   UNK     1       4.999   4.644  19.263  0.00  0.00    +0.000 NA
BRANCH   5  11
ATOM     10  O   UNK     1       3.159   2.393  21.204  0.00  0.00    +0.000 OA
ATOM     11  C   UNK     1       3.951   2.665  20.315  0.00  0.00    +0.000 C 
BRANCH  11  12
ATOM     12  O   UNK     1       5.014   1.877  20.001  0.00  0.00    +0.000 OA
ATOM     13  H   UNK     1       5.730   2.053  20.650  0.00  0.00    +0.000 HD
ENDBRANCH  11  12
ENDBRANCH   5  11
ENDBRANCH   1   8
BRANCH   2  14
ATOM     14  S   UNK     1       7.407   4.744  17.231  0.00  0.00    +0.000 S 
ATOM     15  H   UNK     1       6.366   4.047  17.703  0.00  0.00    +0.000 HD
ENDBRANCH   2  14
BRANCH   3  16
ATOM     16  C   UNK     1       7.649   8.647  17.545  0.00  0.00    +0.000 C 
BRANCH  16  17
ATOM     17  C   UNK     1       8.702   8.760  18.663  0.00  0.00    +0.000 C 
BRANCH  17  18
ATOM     18  C   UNK     1       9.063  10.206  18.914  0.00  0.00    +0.000 A 
ATOM     19  C   UNK     1       9.448  10.641  20.190  0.00  0.00    +0.000 A 
ATOM     20  C   UNK     1       9.639  12.001  20.443  0.00  0.00    +0.000 A 
ATOM     21  C   UNK     1       9.470  12.933  19.421  0.00  0.00    +0.000 A 
ATOM     22  C   UNK     1       9.125  12.506  18.140  0.00  0.00    +0.000 A 
ATOM     23  C   UNK     1       8.921  11.150  17.888  0.00  0.00    +0.000 A 
ENDBRANCH  17  18
ENDBRANCH  16  17
ENDBRANCH   3  16
TORSDOF 7
ENDMDL
MODEL 5
REMARK VINA RESULT:      -6.5      4.645      7.938
REMARK  Name = 
REMARK  7 active torsions:
REMARK  status: ('A' for Active; 'I' for Inactive)
REMARK    1  A    between atoms: C_2  and  O_3
REMARK    2  A    between atoms: C_2  and  C_4
REMARK    3  A    between atoms: C_7  and  N_8
REMARK    4  A    between atoms: C_9  and  S_10
REMARK    5  A    between atoms: N_11  and  C_12
REMARK    6  A    between atoms: C_12  and  C_13
REMARK    7  A    between atoms: C_13  and  C_14
REMARK                            x       y       z     vdW  Elec       q    Type
REMARK                         _______ _______ _______ _____ _____    ______ ____
ROOT
ATOM      1  N   UNK     1       4.036   5.272  18.723  0.00  0.00    +0.000 NA
ATOM      2  C   UNK     1       3.192   6.258  18.692  0.00  0.00    +0.000 C 
ATOM      3  N   UNK     1       2.034   6.286  19.427  0.00  0.00    +0.000 N 
ATOM      4  H   UNK     1       1.519   7.153  19.340  0.00  0.00    +0.000 HD
ENDROOT
BRANCH   1   8
ATOM      5  C   UNK     1       6.595   5.094  16.244  0.00  0.00    +0.000 A 
ATOM      6  C   UNK     1       7.475   5.549  17.201  0.00  0.00    +0.000 A 
ATOM      7  S   UNK     1       6.646   5.803  18.676  0.00  0.00    +0.000 S 
ATOM      8  C   UNK     1       5.160   5.281  17.954  0.00  0.00    +0.000 A 
ATOM      9  N   UNK     1       5.274   4.952  16.678  0.00  0.00    +0.000 NA
BRANCH   5  11
ATOM     10  O   UNK     1       7.689   5.430  14.162  0.00  0.00    +0.000 OA
ATOM     11  C   UNK     1       6.950   4.760  14.869  0.00  0.00    +0.000 C 
BRANCH  11  12
ATOM     12  O   UNK     1       6.372   3.603  14.451  0.00  0.00    +0.000 OA
ATOM     13  H   UNK     1       7.059   3.055  14.013  0.00  0.00    +0.000 HD
ENDBRANCH  11  12
ENDBRANCH   5  11
ENDBRANCH   1   8
BRANCH   2  14
ATOM     14  S   UNK     1       3.308   7.733  17.736  0.00  0.00    +0.000 S 
ATOM     15  H   UNK     1       2.408   7.389  16.806  0.00  0.00    +0.000 HD
ENDBRANCH   2  14
BRANCH   3  16
ATOM     16  C   UNK     1       1.883   5.586  20.693  0.00  0.00    +0.000 C 
BRANCH  16  17
ATOM     17  C   UNK     1       1.069   4.291  20.518  0.00  0.00    +0.000 C 
BRANCH  17  18
ATOM     18  C   UNK     1       1.886   3.238  19.808  0.00  0.00    +0.000 A 
ATOM     19  C   UNK     1       3.032   2.691  20.403  0.00  0.00    +0.000 A 
ATOM     20  C   UNK     1       3.857   1.826  19.681  0.00  0.00    +0.000 A 
ATOM     21  C   UNK     1       3.534   1.483  18.370  0.00  0.00    +0.000 A 
ATOM     22  C   UNK     1       2.377   1.991  17.783  0.00  0.00    +0.000 A 
ATOM     23  C   UNK     1       1.558   2.864  18.498  0.00  0.00    +0.000 A 
ENDBRANCH  17  18
ENDBRANCH  16  17
ENDBRANCH   3  16
TORSDOF 7
ENDMDL
MODEL 6
REMARK VINA RESULT:      -6.5      2.323      2.897
REMARK  Name = 
REMARK  7 active torsions:
REMARK  status: ('A' for Active; 'I' for Inactive)
REMARK    1  A    between atoms: C_2  and  O_3
REMARK    2  A    between atoms: C_2  and  C_4
REMARK    3  A    between atoms: C_7  and  N_8
REMARK    4  A    between atoms: C_9  and  S_10
REMARK    5  A    between atoms: N_11  and  C_12
REMARK    6  A    between atoms: C_12  and  C_13
REMARK    7  A    between atoms: C_13  and  C_14
REMARK                            x       y       z     vdW  Elec       q    Type
REMARK                         _______ _______ _______ _____ _____    ______ ____
ROOT
ATOM      1  N   UNK     1       6.625   7.116  17.246  0.00  0.00    +0.000 NA
ATOM      2  C   UNK     1       7.551   7.016  18.150  0.00  0.00    +0.000 C 
ATOM      3  N   UNK     1       8.521   7.966  18.350  0.00  0.00    +0.000 N 
ATOM      4  H   UNK     1       9.126   7.769  19.135  0.00  0.00    +0.000 HD
ENDROOT
BRANCH   1   8
ATOM      5  C   UNK     1       3.856   4.867  17.207  0.00  0.00    +0.000 A 
ATOM      6  C   UNK     1       4.549   4.121  16.278  0.00  0.00    +0.000 A 
ATOM      7  S   UNK     1       6.054   4.863  15.946  0.00  0.00    +0.000 S 
ATOM      8  C   UNK     1       5.700   6.132  17.071  0.00  0.00    +0.000 A 
ATOM      9  N   UNK     1       4.516   6.018  17.649  0.00  0.00    +0.000 NA
BRANCH   5  11
ATOM     10  O   UNK     1       1.795   3.688  17.263  0.00  0.00    +0.000 OA
ATOM     11  C   UNK     1       2.539   4.534  17.737  0.00  0.00    +0.000 C 
BRANCH  11  12
ATOM     12  O   UNK     1       2.222   5.267  18.837  0.00  0.00    +0.000 OA
ATOM     13  H   UNK     1       3.056   5.600  19.236  0.00  0.00    +0.000 HD
ENDBRANCH  11  12
ENDBRANCH   5  11
ENDBRANCH   1   8
BRANCH   2  14
ATOM     14  S   UNK     1       7.793   5.693  19.289  0.00  0.00    +0.000 S 
ATOM     15  H   UNK     1       8.943   5.247  18.769  0.00  0.00    +0.000 HD
ENDBRANCH   2  14
BRANCH   3  16
ATOM     16  C   UNK     1       8.324   9.374  18.041  0.00  0.00    +0.000 C 
BRANCH  16  17
ATOM     17  C   UNK     1       9.068  10.272  19.047  0.00  0.00    +0.000 C 
BRANCH  17  18
ATOM     18  C   UNK     1       9.631  11.493  18.360  0.00  0.00    +0.000 A 
ATOM     19  C   UNK     1      10.936  11.495  17.848  0.00  0.00    +0.000 A 
ATOM     20  C   UNK     1      11.494  12.672  17.345  0.00  0.00    +0.000 A 
ATOM     21  C   UNK     1      10.749  13.849  17.328  0.00  0.00    +0.000 A 
ATOM     22  C   UNK     1       9.437  13.848  17.799  0.00  0.00    +0.000 A 
ATOM     23  C   UNK     1       8.881  12.677  18.313  0.00  0.00    +0.000 A 
ENDBRANCH  17  18
ENDBRANCH  16  17
ENDBRANCH   3  16
TORSDOF 7
ENDMDL
MODEL 7
REMARK VINA RESULT:      -6.5      2.243      2.844
REMARK  Name = 
REMARK  7 active torsions:
REMARK  status: ('A' for Active; 'I' for Inactive)
REMARK    1  A    between atoms: C_2  and  O_3
REMARK    2  A    between atoms: C_2  and  C_4
REMARK    3  A    between atoms: C_7  and  N_8
REMARK    4  A    between atoms: C_9  and  S_10
REMARK    5  A    between atoms: N_11  and  C_12
REMARK    6  A    between atoms: C_12  and  C_13
REMARK    7  A    between atoms: C_13  and  C_14
REMARK                            x       y       z     vdW  Elec       q    Type
REMARK                         _______ _______ _______ _____ _____    ______ ____
ROOT
ATOM      1  N   UNK     1       6.864   7.112  17.305  0.00  0.00    +0.000 NA
ATOM      2  C   UNK     1       7.715   7.004  18.280  0.00  0.00    +0.000 C 
ATOM      3  N   UNK     1       8.656   7.959  18.572  0.00  0.00    +0.000 N 
ATOM      4  H   UNK     1       9.198   7.754  19.401  0.00  0.00    +0.000 HD
ENDROOT
BRANCH   1   8
ATOM      5  C   UNK     1       4.151   4.810  17.047  0.00  0.00    +0.000 A 
ATOM      6  C   UNK     1       4.877   4.151  16.078  0.00  0.00    +0.000 A 
ATOM      7  S   UNK     1       6.369   4.949  15.831  0.00  0.00    +0.000 S 
ATOM      8  C   UNK     1       5.966   6.122  17.040  0.00  0.00    +0.000 A 
ATOM      9  N   UNK     1       4.776   5.938  17.586  0.00  0.00    +0.000 NA
BRANCH   5  11
ATOM     10  O   UNK     1       2.168   3.501  17.047  0.00  0.00    +0.000 OA
ATOM     11  C   UNK     1       2.833   4.408  17.527  0.00  0.00    +0.000 C 
BRANCH  11  12
ATOM     12  O   UNK     1       2.418   5.152  18.586  0.00  0.00    +0.000 OA
ATOM     13  H   UNK     1       2.499   6.101  18.348  0.00  0.00    +0.000 HD
ENDBRANCH  11  12
ENDBRANCH   5  11
ENDBRANCH   1   8
BRANCH   2  14
ATOM     14  S   UNK     1       7.877   5.665  19.413  0.00  0.00    +0.000 S 
ATOM     15  H   UNK     1       8.450   6.363  20.401  0.00  0.00    +0.000 HD
ENDBRANCH   2  14
BRANCH   3  16
ATOM     16  C   UNK     1       8.471   9.371  18.271  0.00  0.00    +0.000 C 
BRANCH  16  17
ATOM     17  C   UNK     1       9.082  10.257  19.371  0.00  0.00    +0.000 C 
BRANCH  17  18
ATOM     18  C   UNK     1       9.900  11.374  18.765  0.00  0.00    +0.000 A 
ATOM     19  C   UNK     1       9.322  12.289  17.874  0.00  0.00    +0.000 A 
ATOM     20  C   UNK     1      10.118  13.226  17.211  0.00  0.00    +0.000 A 
ATOM     21  C   UNK     1      11.490  13.273  17.450  0.00  0.00    +0.000 A 
ATOM     22  C   UNK     1      12.067  12.393  18.364  0.00  0.00    +0.000 A 
ATOM     23  C   UNK     1      11.277  11.448  19.017  0.00  0.00    +0.000 A 
ENDBRANCH  17  18
ENDBRANCH  16  17
ENDBRANCH   3  16
TORSDOF 7
ENDMDL
MODEL 8
REMARK VINA RESULT:      -6.4      1.096      1.292
REMARK  Name = 
REMARK  7 active torsions:
REMARK  status: ('A' for Active; 'I' for Inactive)
REMARK    1  A    between atoms: C_2  and  O_3
REMARK    2  A    between atoms: C_2  and  C_4
REMARK    3  A    between atoms: C_7  and  N_8
REMARK    4  A    between atoms: C_9  and  S_10
REMARK    5  A    between atoms: N_11  and  C_12
REMARK    6  A    between atoms: C_12  and  C_13
REMARK    7  A    between atoms: C_13  and  C_14
REMARK                            x       y       z     vdW  Elec       q    Type
REMARK                         _______ _______ _______ _____ _____    ______ ____
ROOT
ATOM      1  N   UNK     1       5.614   6.626  18.053  0.00  0.00    +0.000 NA
ATOM      2  C   UNK     1       6.520   6.488  17.132  0.00  0.00    +0.000 C 
ATOM      3  N   UNK     1       7.572   7.355  16.970  0.00  0.00    +0.000 N 
ATOM      4  H   UNK     1       8.223   7.071  16.250  0.00  0.00    +0.000 HD
ENDROOT
BRANCH   1   8
ATOM      5  C   UNK     1       3.343   3.897  18.402  0.00  0.00    +0.000 A 
ATOM      6  C   UNK     1       2.318   4.806  18.256  0.00  0.00    +0.000 A 
ATOM      7  S   UNK     1       2.963   6.377  18.049  0.00  0.00    +0.000 S 
ATOM      8  C   UNK     1       4.575   5.752  18.155  0.00  0.00    +0.000 A 
ATOM      9  N   UNK     1       4.629   4.445  18.352  0.00  0.00    +0.000 NA
BRANCH   5  11
ATOM     10  O   UNK     1       3.714   1.603  17.907  0.00  0.00    +0.000 OA
ATOM     11  C   UNK     1       3.171   2.460  18.589  0.00  0.00    +0.000 C 
BRANCH  11  12
ATOM     12  O   UNK     1       2.337   2.169  19.622  0.00  0.00    +0.000 OA
ATOM     13  H   UNK     1       2.453   1.221  19.854  0.00  0.00    +0.000 HD
ENDBRANCH  11  12
ENDBRANCH   5  11
ENDBRANCH   1   8
BRANCH   2  14
ATOM     14  S   UNK     1       6.618   5.222  15.911  0.00  0.00    +0.000 S 
ATOM     15  H   UNK     1       7.944   5.046  15.973  0.00  0.00    +0.000 HD
ENDBRANCH   2  14
BRANCH   3  16
ATOM     16  C   UNK     1       8.137   8.128  18.065  0.00  0.00    +0.000 C 
BRANCH  16  17
ATOM     17  C   UNK     1       8.095   9.636  17.760  0.00  0.00    +0.000 C 
BRANCH  17  18
ATOM     18  C   UNK     1       9.189  10.363  18.505  0.00  0.00    +0.000 A 
ATOM     19  C   UNK     1       9.194  10.418  19.905  0.00  0.00    +0.000 A 
ATOM     20  C   UNK     1      10.127  11.212  20.576  0.00  0.00    +0.000 A 
ATOM     21  C   UNK     1      11.075  11.937  19.858  0.00  0.00    +0.000 A 
ATOM     22  C   UNK     1      11.103  11.858  18.467  0.00  0.00    +0.000 A 
ATOM     23  C   UNK     1      10.164  11.076  17.793  0.00  0.00    +0.000 A 
ENDBRANCH  17  18
ENDBRANCH  16  17
ENDBRANCH   3  16
TORSDOF 7
ENDMDL
MODEL 9
REMARK VINA RESULT:      -6.4      0.874      1.585
REMARK  Name = 
REMARK  7 active torsions:
REMARK  status: ('A' for Active; 'I' for Inactive)
REMARK    1  A    between atoms: C_2  and  O_3
REMARK    2  A    between atoms: C_2  and  C_4
REMARK    3  A    between atoms: C_7  and  N_8
REMARK    4  A    between atoms: C_9  and  S_10
REMARK    5  A    between atoms: N_11  and  C_12
REMARK    6  A    between atoms: C_12  and  C_13
REMARK    7  A    between atoms: C_13  and  C_14
REMARK                            x       y       z     vdW  Elec       q    Type
REMARK                         _______ _______ _______ _____ _____    ______ ____
ROOT
ATOM      1  N   UNK     1       5.793   6.715  18.107  0.00  0.00    +0.000 NA
ATOM      2  C   UNK     1       6.702   6.603  17.187  0.00  0.00    +0.000 C 
ATOM      3  N   UNK     1       7.722   7.506  17.017  0.00  0.00    +0.000 N 
ATOM      4  H   UNK     1       8.382   7.240  16.298  0.00  0.00    +0.000 HD
ENDROOT
BRANCH   1   8
ATOM      5  C   UNK     1       3.616   3.923  18.546  0.00  0.00    +0.000 A 
ATOM      6  C   UNK     1       2.568   4.766  18.250  0.00  0.00    +0.000 A 
ATOM      7  S   UNK     1       3.161   6.342  17.947  0.00  0.00    +0.000 S 
ATOM      8  C   UNK     1       4.785   5.805  18.218  0.00  0.00    +0.000 A 
ATOM      9  N   UNK     1       4.878   4.525  18.534  0.00  0.00    +0.000 NA
BRANCH   5  11
ATOM     10  O   UNK     1       3.644   1.603  18.034  0.00  0.00    +0.000 OA
ATOM     11  C   UNK     1       3.490   2.501  18.848  0.00  0.00    +0.000 C 
BRANCH  11  12
ATOM     12  O   UNK     1       3.186   2.274  20.154  0.00  0.00    +0.000 OA
ATOM     13  H   UNK     1       3.678   2.924  20.703  0.00  0.00    +0.000 HD
ENDBRANCH  11  12
ENDBRANCH   5  11
ENDBRANCH   1   8
BRANCH   2  14
ATOM     14  S   UNK     1       6.843   5.333  15.974  0.00  0.00    +0.000 S 
ATOM     15  H   UNK     1       6.247   4.368  16.686  0.00  0.00    +0.000 HD
ENDBRANCH   2  14
BRANCH   3  16
ATOM     16  C   UNK     1       8.260   8.305  18.106  0.00  0.00    +0.000 C 
BRANCH  16  17
ATOM     17  C   UNK     1       8.102   9.810  17.821  0.00  0.00    +0.000 C 
BRANCH  17  18
ATOM     18  C   UNK     1       9.196  10.601  18.498  0.00  0.00    +0.000 A 
ATOM     19  C   UNK     1      10.249  11.157  17.758  0.00  0.00    +0.000 A 
ATOM     20  C   UNK     1      11.326  11.761  18.409  0.00  0.00    +0.000 A 
ATOM     21  C   UNK     1      11.351  11.837  19.799  0.00  0.00    +0.000 A 
ATOM     22  C   UNK     1      10.291  11.322  20.543  0.00  0.00    +0.000 A 
ATOM     23  C   UNK     1       9.219  10.707  19.896  0.00  0.00    +0.000 A 
ENDBRANCH  17  18
ENDBRANCH  16  17
ENDBRANCH   3  16
TORSDOF 7
ENDMDL
