MODEL 1
REMARK VINA RESULT:      -8.1      0.000      0.000
REMARK  Name = 
REMARK  11 active torsions:
REMARK  status: ('A' for Active; 'I' for Inactive)
REMARK    1  A    between atoms: C_1  and  C_2
REMARK    2  A    between atoms: C_2  and  C_3
REMARK    3  A    between atoms: C_3  and  C_4
REMARK    4  A    between atoms: C_4  and  C_5
REMARK    5  A    between atoms: C_5  and  C_6
REMARK    6  A    between atoms: C_5  and  C_8
REMARK    7  A    between atoms: C_6  and  C_7
REMARK    8  A    between atoms: C_8  and  N_9
REMARK    9  A    between atoms: C_10  and  C_12
REMARK   10  A    between atoms: C_15  and  N_16
REMARK   11  A    between atoms: N_16  and  N_17
REMARK                            x       y       z     vdW  Elec       q    Type
REMARK                         _______ _______ _______ _____ _____    ______ ____
ROOT
ATOM      1  C   UNL     1       4.831   5.084  16.404  0.00  0.00    +0.000 A 
ATOM      2  C   UNL     1       3.880   4.455  17.231  0.00  0.00    +0.000 A 
ATOM      3  C   UNL     1       3.036   5.192  18.089  0.00  0.00    +0.000 A 
ATOM      4  C   UNL     1       3.105   6.574  18.110  0.00  0.00    +0.000 A 
ATOM      5  C   UNL     1       4.146   7.189  17.371  0.00  0.00    +0.000 A 
ATOM      6  C   UNL     1       4.996   6.463  16.520  0.00  0.00    +0.000 A 
ENDROOT
BRANCH   1   8
ATOM      7  N   UNL     1       5.632   4.562  14.103  0.00  0.00    +0.000 N 
ATOM      8  C   UNL     1       5.631   4.227  15.464  0.00  0.00    +0.000 C 
ATOM      9  O   UNL     1       6.225   3.257  15.893  0.00  0.00    +0.000 OA
ATOM     10  H   UNL     1       5.064   5.332  13.783  0.00  0.00    +0.000 HD
BRANCH   7  11
ATOM     11  C   UNL     1       6.351   3.777  13.103  0.00  0.00    +0.000 C 
BRANCH  11  12
ATOM     12  C   UNL     1       5.438   2.949  12.161  0.00  0.00    +0.000 C 
BRANCH  12  13
ATOM     13  C   UNL     1       6.273   2.127  11.145  0.00  0.00    +0.000 C 
ATOM     14  C   UNL     1       6.117   0.611  11.216  0.00  0.00    +0.000 C 
ENDBRANCH  12  13
BRANCH  12  15
ATOM     15  C   UNL     1       4.375   3.842  11.475  0.00  0.00    +0.000 C 
BRANCH  15  16
ATOM     16  C   UNL     1       3.330   3.118  10.611  0.00  0.00    +0.000 C 
BRANCH  16  18
ATOM     17  C   UNL     1       2.204   4.933   9.268  0.00  0.00    +0.000 C 
ATOM     18  C   UNL     1       3.137   3.729   9.221  0.00  0.00    +0.000 C 
ENDBRANCH  16  18
ENDBRANCH  15  16
ENDBRANCH  12  15
ENDBRANCH  11  12
ENDBRANCH   7  11
ENDBRANCH   1   8
BRANCH   4  19
ATOM     19  N   UNL     1       2.268   7.427  18.853  0.00  0.00    +0.000 N 
ATOM     20  H   UNL     1       2.402   7.212  19.854  0.00  0.00    +0.000 HD
BRANCH  19  21
ATOM     21  N   UNL     1       1.897   8.729  18.559  0.00  0.00    +0.000 NA
ATOM     22  C   UNL     1       1.184   9.246  19.528  0.00  0.00    +0.000 C 
ATOM     23  C   UNL     1       0.835   8.490  20.834  0.00  0.00    +0.000 C 
ATOM     24  O   UNL     1       1.428   7.533  21.287  0.00  0.00    +0.000 OA
ATOM     25  N   UNL     1      -0.183   9.183  21.415  0.00  0.00    +0.000 N 
ATOM     26  C   UNL     1      -0.267  10.447  20.846  0.00  0.00    +0.000 A 
ATOM     27  C   UNL     1      -0.934  11.514  21.420  0.00  0.00    +0.000 A 
ATOM     28  C   UNL     1      -0.824  12.747  20.791  0.00  0.00    +0.000 A 
ATOM     29  C   UNL     1      -0.111  12.858  19.581  0.00  0.00    +0.000 A 
ATOM     30 BR   UNL     1       0.024  14.576  18.785  0.00  0.00    +0.000 Br
ATOM     31  C   UNL     1       0.547  11.758  18.993  0.00  0.00    +0.000 A 
ATOM     32  C   UNL     1       0.507  10.559  19.679  0.00  0.00    +0.000 A 
ATOM     33  H   UNL     1      -0.639   8.877  22.262  0.00  0.00    +0.000 HD
ENDBRANCH  19  21
ENDBRANCH   4  19
TORSDOF 9
ENDMDL
MODEL 2
REMARK VINA RESULT:      -8.0      2.911      5.133
REMARK  Name = 
REMARK  11 active torsions:
REMARK  status: ('A' for Active; 'I' for Inactive)
REMARK    1  A    between atoms: C_1  and  C_2
REMARK    2  A    between atoms: C_2  and  C_3
REMARK    3  A    between atoms: C_3  and  C_4
REMARK    4  A    between atoms: C_4  and  C_5
REMARK    5  A    between atoms: C_5  and  C_6
REMARK    6  A    between atoms: C_5  and  C_8
REMARK    7  A    between atoms: C_6  and  C_7
REMARK    8  A    between atoms: C_8  and  N_9
REMARK    9  A    between atoms: C_10  and  C_12
REMARK   10  A    between atoms: C_15  and  N_16
REMARK   11  A    between atoms: N_16  and  N_17
REMARK                            x       y       z     vdW  Elec       q    Type
REMARK                         _______ _______ _______ _____ _____    ______ ____
ROOT
ATOM      1  C   UNL     1       2.680   6.980  19.226  0.00  0.00    +0.000 A 
ATOM      2  C   UNL     1       2.586   7.729  18.037  0.00  0.00    +0.000 A 
ATOM      3  C   UNL     1       1.870   8.944  17.975  0.00  0.00    +0.000 A 
ATOM      4  C   UNL     1       1.265   9.449  19.113  0.00  0.00    +0.000 A 
ATOM      5  C   UNL     1       1.259   8.631  20.269  0.00  0.00    +0.000 A 
ATOM      6  C   UNL     1       1.962   7.417  20.337  0.00  0.00    +0.000 A 
ENDROOT
BRANCH   1   8
ATOM      7  N   UNL     1       4.520   5.626  18.234  0.00  0.00    +0.000 N 
ATOM      8  C   UNL     1       3.529   5.741  19.218  0.00  0.00    +0.000 C 
ATOM      9  O   UNL     1       3.319   4.863  20.032  0.00  0.00    +0.000 OA
ATOM     10  H   UNL     1       4.607   6.347  17.533  0.00  0.00    +0.000 HD
BRANCH   7  11
ATOM     11  C   UNL     1       5.378   4.449  18.119  0.00  0.00    +0.000 C 
BRANCH  11  12
ATOM     12  C   UNL     1       6.881   4.770  17.909  0.00  0.00    +0.000 C 
BRANCH  12  13
ATOM     13  C   UNL     1       7.261   6.133  18.543  0.00  0.00    +0.000 C 
ATOM     14  C   UNL     1       7.605   7.256  17.570  0.00  0.00    +0.000 C 
ENDBRANCH  12  13
BRANCH  12  15
ATOM     15  C   UNL     1       7.277   4.674  16.415  0.00  0.00    +0.000 C 
BRANCH  15  16
ATOM     16  C   UNL     1       6.256   4.005  15.480  0.00  0.00    +0.000 C 
BRANCH  16  18
ATOM     17  C   UNL     1       5.406   3.652  13.132  0.00  0.00    +0.000 C 
ATOM     18  C   UNL     1       6.443   4.351  14.001  0.00  0.00    +0.000 C 
ENDBRANCH  16  18
ENDBRANCH  15  16
ENDBRANCH  12  15
ENDBRANCH  11  12
ENDBRANCH   7  11
ENDBRANCH   1   8
BRANCH   4  19
ATOM     19  N   UNL     1       0.596  10.684  19.207  0.00  0.00    +0.000 N 
ATOM     20  H   UNL     1       0.189  10.897  18.283  0.00  0.00    +0.000 HD
BRANCH  19  21
ATOM     21  N   UNL     1      -0.074  11.212  20.299  0.00  0.00    +0.000 NA
ATOM     22  C   UNL     1      -1.298  11.551  19.982  0.00  0.00    +0.000 C 
ATOM     23  C   UNL     1      -1.904  11.355  18.571  0.00  0.00    +0.000 C 
ATOM     24  O   UNL     1      -1.507  10.584  17.722  0.00  0.00    +0.000 OA
ATOM     25  N   UNL     1      -3.023  12.130  18.526  0.00  0.00    +0.000 N 
ATOM     26  C   UNL     1      -3.390  12.488  19.816  0.00  0.00    +0.000 A 
ATOM     27  C   UNL     1      -4.643  12.960  20.164  0.00  0.00    +0.000 A 
ATOM     28  C   UNL     1      -4.896  13.159  21.515  0.00  0.00    +0.000 A 
ATOM     29  C   UNL     1      -3.875  12.943  22.461  0.00  0.00    +0.000 A 
ATOM     30 BR   UNL     1      -4.294  13.208  24.294  0.00  0.00    +0.000 Br
ATOM     31  C   UNL     1      -2.594  12.483  22.092  0.00  0.00    +0.000 A 
ATOM     32  C   UNL     1      -2.386  12.201  20.756  0.00  0.00    +0.000 A 
ATOM     33  H   UNL     1      -3.587  12.227  17.695  0.00  0.00    +0.000 HD
ENDBRANCH  19  21
ENDBRANCH   4  19
TORSDOF 9
ENDMDL
MODEL 3
REMARK VINA RESULT:      -7.9      3.393      5.132
REMARK  Name = 
REMARK  11 active torsions:
REMARK  status: ('A' for Active; 'I' for Inactive)
REMARK    1  A    between atoms: C_1  and  C_2
REMARK    2  A    between atoms: C_2  and  C_3
REMARK    3  A    between atoms: C_3  and  C_4
REMARK    4  A    between atoms: C_4  and  C_5
REMARK    5  A    between atoms: C_5  and  C_6
REMARK    6  A    between atoms: C_5  and  C_8
REMARK    7  A    between atoms: C_6  and  C_7
REMARK    8  A    between atoms: C_8  and  N_9
REMARK    9  A    between atoms: C_10  and  C_12
REMARK   10  A    between atoms: C_15  and  N_16
REMARK   11  A    between atoms: N_16  and  N_17
REMARK                            x       y       z     vdW  Elec       q    Type
REMARK                         _______ _______ _______ _____ _____    ______ ____
ROOT
ATOM      1  C   UNL     1       2.748   6.990  18.732  0.00  0.00    +0.000 A 
ATOM      2  C   UNL     1       2.190   7.188  20.011  0.00  0.00    +0.000 A 
ATOM      3  C   UNL     1       1.419   8.329  20.318  0.00  0.00    +0.000 A 
ATOM      4  C   UNL     1       1.163   9.276  19.342  0.00  0.00    +0.000 A 
ATOM      5  C   UNL     1       1.830   9.133  18.100  0.00  0.00    +0.000 A 
ATOM      6  C   UNL     1       2.606   8.004  17.788  0.00  0.00    +0.000 A 
ENDROOT
BRANCH   1   8
ATOM      7  N   UNL     1       4.801   5.595  18.950  0.00  0.00    +0.000 N 
ATOM      8  C   UNL     1       3.487   5.708  18.473  0.00  0.00    +0.000 C 
ATOM      9  O   UNL     1       2.951   4.823  17.836  0.00  0.00    +0.000 OA
ATOM     10  H   UNL     1       5.230   6.385  19.408  0.00  0.00    +0.000 HD
BRANCH   7  11
ATOM     11  C   UNL     1       5.616   4.404  18.725  0.00  0.00    +0.000 C 
BRANCH  11  12
ATOM     12  C   UNL     1       7.076   4.700  18.293  0.00  0.00    +0.000 C 
BRANCH  12  13
ATOM     13  C   UNL     1       7.569   6.056  18.861  0.00  0.00    +0.000 C 
ATOM     14  C   UNL     1       7.728   7.191  17.853  0.00  0.00    +0.000 C 
ENDBRANCH  12  13
BRANCH  12  15
ATOM     15  C   UNL     1       7.244   4.599  16.757  0.00  0.00    +0.000 C 
BRANCH  15  16
ATOM     16  C   UNL     1       6.046   4.033  15.975  0.00  0.00    +0.000 C 
BRANCH  16  18
ATOM     17  C   UNL     1       5.196   6.341  15.415  0.00  0.00    +0.000 C 
ATOM     18  C   UNL     1       5.528   4.957  14.871  0.00  0.00    +0.000 C 
ENDBRANCH  16  18
ENDBRANCH  15  16
ENDBRANCH  12  15
ENDBRANCH  11  12
ENDBRANCH   7  11
ENDBRANCH   1   8
BRANCH   4  19
ATOM     19  N   UNL     1       0.345  10.412  19.493  0.00  0.00    +0.000 N 
ATOM     20  H   UNL     1      -0.554  10.221  19.023  0.00  0.00    +0.000 HD
BRANCH  19  21
ATOM     21  N   UNL     1       0.293  11.290  20.563  0.00  0.00    +0.000 NA
ATOM     22  C   UNL     1      -0.800  12.011  20.528  0.00  0.00    +0.000 C 
ATOM     23  C   UNL     1      -1.890  11.865  19.438  0.00  0.00    +0.000 C 
ATOM     24  O   UNL     1      -2.069  10.894  18.731  0.00  0.00    +0.000 OA
ATOM     25  N   UNL     1      -2.661  12.984  19.518  0.00  0.00    +0.000 N 
ATOM     26  C   UNL     1      -2.427  13.622  20.728  0.00  0.00    +0.000 A 
ATOM     27  C   UNL     1      -3.272  14.565  21.284  0.00  0.00    +0.000 A 
ATOM     28  C   UNL     1      -2.965  15.023  22.559  0.00  0.00    +0.000 A 
ATOM     29  C   UNL     1      -1.795  14.576  23.203  0.00  0.00    +0.000 A 
ATOM     30 BR   UNL     1      -1.444  15.220  24.955  0.00  0.00    +0.000 Br
ATOM     31  C   UNL     1      -0.928  13.631  22.617  0.00  0.00    +0.000 A 
ATOM     32  C   UNL     1      -1.296  13.114  21.388  0.00  0.00    +0.000 A 
ATOM     33  H   UNL     1      -3.422  13.169  18.880  0.00  0.00    +0.000 HD
ENDBRANCH  19  21
ENDBRANCH   4  19
TORSDOF 9
ENDMDL
MODEL 4
REMARK VINA RESULT:      -7.8      3.507      5.495
REMARK  Name = 
REMARK  11 active torsions:
REMARK  status: ('A' for Active; 'I' for Inactive)
REMARK    1  A    between atoms: C_1  and  C_2
REMARK    2  A    between atoms: C_2  and  C_3
REMARK    3  A    between atoms: C_3  and  C_4
REMARK    4  A    between atoms: C_4  and  C_5
REMARK    5  A    between atoms: C_5  and  C_6
REMARK    6  A    between atoms: C_5  and  C_8
REMARK    7  A    between atoms: C_6  and  C_7
REMARK    8  A    between atoms: C_8  and  N_9
REMARK    9  A    between atoms: C_10  and  C_12
REMARK   10  A    between atoms: C_15  and  N_16
REMARK   11  A    between atoms: N_16  and  N_17
REMARK                            x       y       z     vdW  Elec       q    Type
REMARK                         _______ _______ _______ _____ _____    ______ ____
ROOT
ATOM      1  C   UNL     1       2.369   7.365  19.441  0.00  0.00    +0.000 A 
ATOM      2  C   UNL     1       2.252   7.967  18.172  0.00  0.00    +0.000 A 
ATOM      3  C   UNL     1       1.527   9.161  17.978  0.00  0.00    +0.000 A 
ATOM      4  C   UNL     1       0.935   9.795  19.057  0.00  0.00    +0.000 A 
ATOM      5  C   UNL     1       0.951   9.120  20.302  0.00  0.00    +0.000 A 
ATOM      6  C   UNL     1       1.664   7.927  20.503  0.00  0.00    +0.000 A 
ENDROOT
BRANCH   1   8
ATOM      7  N   UNL     1       4.309   5.996  18.687  0.00  0.00    +0.000 N 
ATOM      8  C   UNL     1       3.227   6.138  19.567  0.00  0.00    +0.000 C 
ATOM      9  O   UNL     1       2.949   5.292  20.395  0.00  0.00    +0.000 OA
ATOM     10  H   UNL     1       4.455   6.688  17.967  0.00  0.00    +0.000 HD
BRANCH   7  11
ATOM     11  C   UNL     1       5.185   4.827  18.705  0.00  0.00    +0.000 C 
BRANCH  11  12
ATOM     12  C   UNL     1       4.989   3.860  17.508  0.00  0.00    +0.000 C 
BRANCH  12  13
ATOM     13  C   UNL     1       4.899   4.634  16.167  0.00  0.00    +0.000 C 
ATOM     14  C   UNL     1       5.821   4.155  15.049  0.00  0.00    +0.000 C 
ENDBRANCH  12  13
BRANCH  12  15
ATOM     15  C   UNL     1       3.783   2.916  17.735  0.00  0.00    +0.000 C 
BRANCH  15  16
ATOM     16  C   UNL     1       2.482   3.281  17.002  0.00  0.00    +0.000 C 
BRANCH  16  18
ATOM     17  C   UNL     1       1.065   2.528  18.949  0.00  0.00    +0.000 C 
ATOM     18  C   UNL     1       1.319   3.634  17.932  0.00  0.00    +0.000 C 
ENDBRANCH  16  18
ENDBRANCH  15  16
ENDBRANCH  12  15
ENDBRANCH  11  12
ENDBRANCH   7  11
ENDBRANCH   1   8
BRANCH   4  19
ATOM     19  N   UNL     1       0.258  11.029  19.014  0.00  0.00    +0.000 N 
ATOM     20  H   UNL     1      -0.073  11.177  18.048  0.00  0.00    +0.000 HD
BRANCH  19  21
ATOM     21  N   UNL     1      -0.499  11.623  20.011  0.00  0.00    +0.000 NA
ATOM     22  C   UNL     1      -1.750  11.743  19.644  0.00  0.00    +0.000 C 
ATOM     23  C   UNL     1      -2.294  11.255  18.279  0.00  0.00    +0.000 C 
ATOM     24  O   UNL     1      -1.781  10.422  17.560  0.00  0.00    +0.000 OA
ATOM     25  N   UNL     1      -3.504  11.857  18.114  0.00  0.00    +0.000 N 
ATOM     26  C   UNL     1      -3.943  12.356  19.332  0.00  0.00    +0.000 A 
ATOM     27  C   UNL     1      -5.255  12.704  19.602  0.00  0.00    +0.000 A 
ATOM     28  C   UNL     1      -5.562  13.071  20.905  0.00  0.00    +0.000 A 
ATOM     29  C   UNL     1      -4.542  13.141  21.875  0.00  0.00    +0.000 A 
ATOM     30 BR   UNL     1      -5.031  13.625  23.645  0.00  0.00    +0.000 Br
ATOM     31  C   UNL     1      -3.204  12.806  21.583  0.00  0.00    +0.000 A 
ATOM     32  C   UNL     1      -2.930  12.353  20.306  0.00  0.00    +0.000 A 
ATOM     33  H   UNL     1      -4.058  11.749  17.276  0.00  0.00    +0.000 HD
ENDBRANCH  19  21
ENDBRANCH   4  19
TORSDOF 9
ENDMDL
MODEL 5
REMARK VINA RESULT:      -7.8      3.811      6.196
REMARK  Name = 
REMARK  11 active torsions:
REMARK  status: ('A' for Active; 'I' for Inactive)
REMARK    1  A    between atoms: C_1  and  C_2
REMARK    2  A    between atoms: C_2  and  C_3
REMARK    3  A    between atoms: C_3  and  C_4
REMARK    4  A    between atoms: C_4  and  C_5
REMARK    5  A    between atoms: C_5  and  C_6
REMARK    6  A    between atoms: C_5  and  C_8
REMARK    7  A    between atoms: C_6  and  C_7
REMARK    8  A    between atoms: C_8  and  N_9
REMARK    9  A    between atoms: C_10  and  C_12
REMARK   10  A    between atoms: C_15  and  N_16
REMARK   11  A    between atoms: N_16  and  N_17
REMARK                            x       y       z     vdW  Elec       q    Type
REMARK                         _______ _______ _______ _____ _____    ______ ____
ROOT
ATOM      1  C   UNL     1       1.855   7.851  19.363  0.00  0.00    +0.000 A 
ATOM      2  C   UNL     1       1.166   8.417  20.454  0.00  0.00    +0.000 A 
ATOM      3  C   UNL     1       0.320   9.536  20.301  0.00  0.00    +0.000 A 
ATOM      4  C   UNL     1       0.121  10.087  19.046  0.00  0.00    +0.000 A 
ATOM      5  C   UNL     1       0.912   9.592  17.981  0.00  0.00    +0.000 A 
ATOM      6  C   UNL     1       1.762   8.484  18.126  0.00  0.00    +0.000 A 
ENDROOT
BRANCH   1   8
ATOM      7  N   UNL     1       3.797   6.396  18.800  0.00  0.00    +0.000 N 
ATOM      8  C   UNL     1       2.671   6.613  19.606  0.00  0.00    +0.000 C 
ATOM      9  O   UNL     1       2.324   5.822  20.461  0.00  0.00    +0.000 OA
ATOM     10  H   UNL     1       4.004   7.043  18.054  0.00  0.00    +0.000 HD
BRANCH   7  11
ATOM     11  C   UNL     1       4.640   5.210  18.934  0.00  0.00    +0.000 C 
BRANCH  11  12
ATOM     12  C   UNL     1       5.113   4.605  17.586  0.00  0.00    +0.000 C 
BRANCH  12  13
ATOM     13  C   UNL     1       5.210   5.691  16.484  0.00  0.00    +0.000 C 
ATOM     14  C   UNL     1       5.540   5.196  15.078  0.00  0.00    +0.000 C 
ENDBRANCH  12  13
BRANCH  12  15
ATOM     15  C   UNL     1       4.231   3.403  17.165  0.00  0.00    +0.000 C 
BRANCH  15  16
ATOM     16  C   UNL     1       3.217   2.902  18.207  0.00  0.00    +0.000 C 
BRANCH  16  18
ATOM     17  C   UNL     1       0.809   2.715  18.934  0.00  0.00    +0.000 C 
ATOM     18  C   UNL     1       1.776   3.342  17.938  0.00  0.00    +0.000 C 
ENDBRANCH  16  18
ENDBRANCH  15  16
ENDBRANCH  12  15
ENDBRANCH  11  12
ENDBRANCH   7  11
ENDBRANCH   1   8
BRANCH   4  19
ATOM     19  N   UNL     1      -0.757  11.146  18.745  0.00  0.00    +0.000 N 
ATOM     20  H   UNL     1      -0.810  11.232  17.718  0.00  0.00    +0.000 HD
BRANCH  19  21
ATOM     21  N   UNL     1      -1.883  11.547  19.445  0.00  0.00    +0.000 NA
ATOM     22  C   UNL     1      -2.930  11.605  18.661  0.00  0.00    +0.000 C 
ATOM     23  C   UNL     1      -2.895  11.242  17.156  0.00  0.00    +0.000 C 
ATOM     24  O   UNL     1      -2.063  10.550  16.605  0.00  0.00    +0.000 OA
ATOM     25  N   UNL     1      -4.034  11.755  16.615  0.00  0.00    +0.000 N 
ATOM     26  C   UNL     1      -4.931  12.062  17.628  0.00  0.00    +0.000 A 
ATOM     27  C   UNL     1      -6.286  12.263  17.432  0.00  0.00    +0.000 A 
ATOM     28  C   UNL     1      -7.074  12.440  18.561  0.00  0.00    +0.000 A 
ATOM     29  C   UNL     1      -6.477  12.478  19.837  0.00  0.00    +0.000 A 
ATOM     30 BR   UNL     1      -7.612  12.699  21.343  0.00  0.00    +0.000 Br
ATOM     31  C   UNL     1      -5.091  12.295  20.023  0.00  0.00    +0.000 A 
ATOM     32  C   UNL     1      -4.333  12.027  18.899  0.00  0.00    +0.000 A 
ATOM     33  H   UNL     1      -4.241  11.704  15.627  0.00  0.00    +0.000 HD
ENDBRANCH  19  21
ENDBRANCH   4  19
TORSDOF 9
ENDMDL
MODEL 6
REMARK VINA RESULT:      -7.7      2.833      4.978
REMARK  Name = 
REMARK  11 active torsions:
REMARK  status: ('A' for Active; 'I' for Inactive)
REMARK    1  A    between atoms: C_1  and  C_2
REMARK    2  A    between atoms: C_2  and  C_3
REMARK    3  A    between atoms: C_3  and  C_4
REMARK    4  A    between atoms: C_4  and  C_5
REMARK    5  A    between atoms: C_5  and  C_6
REMARK    6  A    between atoms: C_5  and  C_8
REMARK    7  A    between atoms: C_6  and  C_7
REMARK    8  A    between atoms: C_8  and  N_9
REMARK    9  A    between atoms: C_10  and  C_12
REMARK   10  A    between atoms: C_15  and  N_16
REMARK   11  A    between atoms: N_16  and  N_17
REMARK                            x       y       z     vdW  Elec       q    Type
REMARK                         _______ _______ _______ _____ _____    ______ ____
ROOT
ATOM      1  C   UNL     1       2.452   6.695  18.887  0.00  0.00    +0.000 A 
ATOM      2  C   UNL     1       2.247   7.803  18.042  0.00  0.00    +0.000 A 
ATOM      3  C   UNL     1       1.696   9.012  18.518  0.00  0.00    +0.000 A 
ATOM      4  C   UNL     1       1.373   9.145  19.858  0.00  0.00    +0.000 A 
ATOM      5  C   UNL     1       1.465   7.989  20.671  0.00  0.00    +0.000 A 
ATOM      6  C   UNL     1       2.005   6.780  20.204  0.00  0.00    +0.000 A 
ENDROOT
BRANCH   1   8
ATOM      7  N   UNL     1       4.464   5.578  17.934  0.00  0.00    +0.000 N 
ATOM      8  C   UNL     1       3.118   5.478  18.311  0.00  0.00    +0.000 C 
ATOM      9  O   UNL     1       2.475   4.457  18.156  0.00  0.00    +0.000 OA
ATOM     10  H   UNL     1       4.935   6.467  18.012  0.00  0.00    +0.000 HD
BRANCH   7  11
ATOM     11  C   UNL     1       5.195   4.463  17.335  0.00  0.00    +0.000 C 
BRANCH  11  12
ATOM     12  C   UNL     1       6.711   4.724  17.138  0.00  0.00    +0.000 C 
BRANCH  12  13
ATOM     13  C   UNL     1       7.200   5.905  18.016  0.00  0.00    +0.000 C 
ATOM     14  C   UNL     1       7.510   7.206  17.282  0.00  0.00    +0.000 C 
ENDBRANCH  12  13
BRANCH  12  15
ATOM     15  C   UNL     1       7.064   4.905  15.641  0.00  0.00    +0.000 C 
BRANCH  15  16
ATOM     16  C   UNL     1       6.380   3.942  14.657  0.00  0.00    +0.000 C 
BRANCH  16  18
ATOM     17  C   UNL     1       5.896   3.307  12.264  0.00  0.00    +0.000 C 
ATOM     18  C   UNL     1       6.655   4.255  13.184  0.00  0.00    +0.000 C 
ENDBRANCH  16  18
ENDBRANCH  15  16
ENDBRANCH  12  15
ENDBRANCH  11  12
ENDBRANCH   7  11
ENDBRANCH   1   8
BRANCH   4  19
ATOM     19  N   UNL     1       0.897  10.318  20.474  0.00  0.00    +0.000 N 
ATOM     20  H   UNL     1       1.074  11.108  19.835  0.00  0.00    +0.000 HD
BRANCH  19  21
ATOM     21  N   UNL     1      -0.191  10.457  21.321  0.00  0.00    +0.000 NA
ATOM     22  C   UNL     1      -0.359  11.707  21.670  0.00  0.00    +0.000 C 
ATOM     23  C   UNL     1       0.538  12.866  21.170  0.00  0.00    +0.000 C 
ATOM     24  O   UNL     1       1.232  12.855  20.174  0.00  0.00    +0.000 OA
ATOM     25  N   UNL     1       0.298  13.919  21.999  0.00  0.00    +0.000 N 
ATOM     26  C   UNL     1      -0.874  13.692  22.708  0.00  0.00    +0.000 A 
ATOM     27  C   UNL     1      -1.591  14.680  23.359  0.00  0.00    +0.000 A 
ATOM     28  C   UNL     1      -2.809  14.319  23.920  0.00  0.00    +0.000 A 
ATOM     29  C   UNL     1      -3.236  12.978  23.870  0.00  0.00    +0.000 A 
ATOM     30 BR   UNL     1      -4.922  12.553  24.633  0.00  0.00    +0.000 Br
ATOM     31  C   UNL     1      -2.486  11.974  23.222  0.00  0.00    +0.000 A 
ATOM     32  C   UNL     1      -1.322  12.366  22.588  0.00  0.00    +0.000 A 
ATOM     33  H   UNL     1       0.794  14.795  21.927  0.00  0.00    +0.000 HD
ENDBRANCH  19  21
ENDBRANCH   4  19
TORSDOF 9
ENDMDL
MODEL 7
REMARK VINA RESULT:      -7.7      3.755      5.878
REMARK  Name = 
REMARK  11 active torsions:
REMARK  status: ('A' for Active; 'I' for Inactive)
REMARK    1  A    between atoms: C_1  and  C_2
REMARK    2  A    between atoms: C_2  and  C_3
REMARK    3  A    between atoms: C_3  and  C_4
REMARK    4  A    between atoms: C_4  and  C_5
REMARK    5  A    between atoms: C_5  and  C_6
REMARK    6  A    between atoms: C_5  and  C_8
REMARK    7  A    between atoms: C_6  and  C_7
REMARK    8  A    between atoms: C_8  and  N_9
REMARK    9  A    between atoms: C_10  and  C_12
REMARK   10  A    between atoms: C_15  and  N_16
REMARK   11  A    between atoms: N_16  and  N_17
REMARK                            x       y       z     vdW  Elec       q    Type
REMARK                         _______ _______ _______ _____ _____    ______ ____
ROOT
ATOM      1  C   UNL     1       1.959   7.936  19.060  0.00  0.00    +0.000 A 
ATOM      2  C   UNL     1       1.289   8.426  20.198  0.00  0.00    +0.000 A 
ATOM      3  C   UNL     1       0.427   9.541  20.132  0.00  0.00    +0.000 A 
ATOM      4  C   UNL     1       0.191  10.164  18.918  0.00  0.00    +0.000 A 
ATOM      5  C   UNL     1       0.963   9.744  17.807  0.00  0.00    +0.000 A 
ATOM      6  C   UNL     1       1.830   8.641  17.865  0.00  0.00    +0.000 A 
ENDROOT
BRANCH   1   8
ATOM      7  N   UNL     1       3.518   6.250  18.094  0.00  0.00    +0.000 N 
ATOM      8  C   UNL     1       2.795   6.696  19.209  0.00  0.00    +0.000 C 
ATOM      9  O   UNL     1       2.802   6.098  20.267  0.00  0.00    +0.000 OA
ATOM     10  H   UNL     1       3.423   6.736  17.215  0.00  0.00    +0.000 HD
BRANCH   7  11
ATOM     11  C   UNL     1       4.336   5.040  18.123  0.00  0.00    +0.000 C 
BRANCH  11  12
ATOM     12  C   UNL     1       5.763   5.217  17.543  0.00  0.00    +0.000 C 
BRANCH  12  13
ATOM     13  C   UNL     1       6.068   6.706  17.238  0.00  0.00    +0.000 C 
ATOM     14  C   UNL     1       7.511   7.155  17.447  0.00  0.00    +0.000 C 
ENDBRANCH  12  13
BRANCH  12  15
ATOM     15  C   UNL     1       5.994   4.297  16.318  0.00  0.00    +0.000 C 
BRANCH  15  16
ATOM     16  C   UNL     1       5.665   4.898  14.942  0.00  0.00    +0.000 C 
BRANCH  16  18
ATOM     17  C   UNL     1       5.993   3.543  12.839  0.00  0.00    +0.000 C 
ATOM     18  C   UNL     1       6.642   4.496  13.835  0.00  0.00    +0.000 C 
ENDBRANCH  16  18
ENDBRANCH  15  16
ENDBRANCH  12  15
ENDBRANCH  11  12
ENDBRANCH   7  11
ENDBRANCH   1   8
BRANCH   4  19
ATOM     19  N   UNL     1      -0.706  11.226  18.701  0.00  0.00    +0.000 N 
ATOM     20  H   UNL     1      -0.775  11.382  17.684  0.00  0.00    +0.000 HD
BRANCH  19  21
ATOM     21  N   UNL     1      -1.828  11.561  19.441  0.00  0.00    +0.000 NA
ATOM     22  C   UNL     1      -2.895  11.610  18.684  0.00  0.00    +0.000 C 
ATOM     23  C   UNL     1      -2.884  11.304  17.166  0.00  0.00    +0.000 C 
ATOM     24  O   UNL     1      -2.042  10.664  16.571  0.00  0.00    +0.000 OA
ATOM     25  N   UNL     1      -4.053  11.795  16.670  0.00  0.00    +0.000 N 
ATOM     26  C   UNL     1      -4.936  12.033  17.714  0.00  0.00    +0.000 A 
ATOM     27  C   UNL     1      -6.301  12.192  17.556  0.00  0.00    +0.000 A 
ATOM     28  C   UNL     1      -7.067  12.299  18.710  0.00  0.00    +0.000 A 
ATOM     29  C   UNL     1      -6.442  12.311  19.972  0.00  0.00    +0.000 A 
ATOM     30 BR   UNL     1      -7.548  12.435  21.510  0.00  0.00    +0.000 Br
ATOM     31  C   UNL     1      -5.046  12.171  20.119  0.00  0.00    +0.000 A 
ATOM     32  C   UNL     1      -4.306  11.972  18.969  0.00  0.00    +0.000 A 
ATOM     33  H   UNL     1      -4.281  11.774  15.687  0.00  0.00    +0.000 HD
ENDBRANCH  19  21
ENDBRANCH   4  19
TORSDOF 9
ENDMDL
MODEL 8
REMARK VINA RESULT:      -7.7      2.932      4.947
REMARK  Name = 
REMARK  11 active torsions:
REMARK  status: ('A' for Active; 'I' for Inactive)
REMARK    1  A    between atoms: C_1  and  C_2
REMARK    2  A    between atoms: C_2  and  C_3
REMARK    3  A    between atoms: C_3  and  C_4
REMARK    4  A    between atoms: C_4  and  C_5
REMARK    5  A    between atoms: C_5  and  C_6
REMARK    6  A    between atoms: C_5  and  C_8
REMARK    7  A    between atoms: C_6  and  C_7
REMARK    8  A    between atoms: C_8  and  N_9
REMARK    9  A    between atoms: C_10  and  C_12
REMARK   10  A    between atoms: C_15  and  N_16
REMARK   11  A    between atoms: N_16  and  N_17
REMARK                            x       y       z     vdW  Elec       q    Type
REMARK                         _______ _______ _______ _____ _____    ______ ____
ROOT
ATOM      1  C   UNL     1       2.496   7.401  18.886  0.00  0.00    +0.000 A 
ATOM      2  C   UNL     1       1.843   7.784  20.075  0.00  0.00    +0.000 A 
ATOM      3  C   UNL     1       1.140   9.003  20.180  0.00  0.00    +0.000 A 
ATOM      4  C   UNL     1       1.047   9.845  19.085  0.00  0.00    +0.000 A 
ATOM      5  C   UNL     1       1.809   9.513  17.937  0.00  0.00    +0.000 A 
ATOM      6  C   UNL     1       2.518   8.306  17.827  0.00  0.00    +0.000 A 
ENDROOT
BRANCH   1   8
ATOM      7  N   UNL     1       3.342   5.450  17.589  0.00  0.00    +0.000 N 
ATOM      8  C   UNL     1       3.152   6.050  18.841  0.00  0.00    +0.000 C 
ATOM      9  O   UNL     1       3.469   5.501  19.878  0.00  0.00    +0.000 OA
ATOM     10  H   UNL     1       2.994   5.911  16.761  0.00  0.00    +0.000 HD
BRANCH   7  11
ATOM     11  C   UNL     1       3.941   4.126  17.437  0.00  0.00    +0.000 C 
BRANCH  11  12
ATOM     12  C   UNL     1       5.383   4.138  16.867  0.00  0.00    +0.000 C 
BRANCH  12  13
ATOM     13  C   UNL     1       6.326   5.014  17.732  0.00  0.00    +0.000 C 
ATOM     14  C   UNL     1       6.724   6.363  17.141  0.00  0.00    +0.000 C 
ENDBRANCH  12  13
BRANCH  12  15
ATOM     15  C   UNL     1       5.398   4.542  15.372  0.00  0.00    +0.000 C 
BRANCH  15  16
ATOM     16  C   UNL     1       6.370   3.769  14.465  0.00  0.00    +0.000 C 
BRANCH  16  18
ATOM     17  C   UNL     1       5.792   3.115  12.098  0.00  0.00    +0.000 C 
ATOM     18  C   UNL     1       6.343   4.212  13.000  0.00  0.00    +0.000 C 
ENDBRANCH  16  18
ENDBRANCH  15  16
ENDBRANCH  12  15
ENDBRANCH  11  12
ENDBRANCH   7  11
ENDBRANCH   1   8
BRANCH   4  19
ATOM     19  N   UNL     1       0.310  11.043  19.031  0.00  0.00    +0.000 N 
ATOM     20  H   UNL     1      -0.060  11.146  18.074  0.00  0.00    +0.000 HD
BRANCH  19  21
ATOM     21  N   UNL     1      -0.441  11.629  20.037  0.00  0.00    +0.000 NA
ATOM     22  C   UNL     1      -1.696  11.745  19.681  0.00  0.00    +0.000 C 
ATOM     23  C   UNL     1      -2.250  11.259  18.319  0.00  0.00    +0.000 C 
ATOM     24  O   UNL     1      -1.738  10.432  17.592  0.00  0.00    +0.000 OA
ATOM     25  N   UNL     1      -3.464  11.856  18.167  0.00  0.00    +0.000 N 
ATOM     26  C   UNL     1      -3.895  12.347  19.391  0.00  0.00    +0.000 A 
ATOM     27  C   UNL     1      -5.206  12.688  19.673  0.00  0.00    +0.000 A 
ATOM     28  C   UNL     1      -5.503  13.048  20.980  0.00  0.00    +0.000 A 
ATOM     29  C   UNL     1      -4.475  13.120  21.941  0.00  0.00    +0.000 A 
ATOM     30 BR   UNL     1      -4.952  13.594  23.717  0.00  0.00    +0.000 Br
ATOM     31  C   UNL     1      -3.138  12.792  21.637  0.00  0.00    +0.000 A 
ATOM     32  C   UNL     1      -2.874  12.346  20.356  0.00  0.00    +0.000 A 
ATOM     33  H   UNL     1      -4.024  11.749  17.333  0.00  0.00    +0.000 HD
ENDBRANCH  19  21
ENDBRANCH   4  19
TORSDOF 9
ENDMDL
MODEL 9
REMARK VINA RESULT:      -7.7      2.792      4.944
REMARK  Name = 
REMARK  11 active torsions:
REMARK  status: ('A' for Active; 'I' for Inactive)
REMARK    1  A    between atoms: C_1  and  C_2
REMARK    2  A    between atoms: C_2  and  C_3
REMARK    3  A    between atoms: C_3  and  C_4
REMARK    4  A    between atoms: C_4  and  C_5
REMARK    5  A    between atoms: C_5  and  C_6
REMARK    6  A    between atoms: C_5  and  C_8
REMARK    7  A    between atoms: C_6  and  C_7
REMARK    8  A    between atoms: C_8  and  N_9
REMARK    9  A    between atoms: C_10  and  C_12
REMARK   10  A    between atoms: C_15  and  N_16
REMARK   11  A    between atoms: N_16  and  N_17
REMARK                            x       y       z     vdW  Elec       q    Type
REMARK                         _______ _______ _______ _____ _____    ______ ____
ROOT
ATOM      1  C   UNL     1       2.453   7.288  19.083  0.00  0.00    +0.000 A 
ATOM      2  C   UNL     1       2.307   8.075  17.924  0.00  0.00    +0.000 A 
ATOM      3  C   UNL     1       1.645   9.321  17.948  0.00  0.00    +0.000 A 
ATOM      4  C   UNL     1       1.148   9.818  19.141  0.00  0.00    +0.000 A 
ATOM      5  C   UNL     1       1.189   8.967  20.272  0.00  0.00    +0.000 A 
ATOM      6  C   UNL     1       1.838   7.722  20.255  0.00  0.00    +0.000 A 
ENDROOT
BRANCH   1   8
ATOM      7  N   UNL     1       3.743   5.648  17.721  0.00  0.00    +0.000 N 
ATOM      8  C   UNL     1       3.241   6.013  18.979  0.00  0.00    +0.000 C 
ATOM      9  O   UNL     1       3.397   5.320  19.965  0.00  0.00    +0.000 OA
ATOM     10  H   UNL     1       3.524   6.217  16.917  0.00  0.00    +0.000 HD
BRANCH   7  11
ATOM     11  C   UNL     1       4.494   4.414  17.506  0.00  0.00    +0.000 C 
BRANCH  11  12
ATOM     12  C   UNL     1       6.007   4.625  17.235  0.00  0.00    +0.000 C 
BRANCH  12  13
ATOM     13  C   UNL     1       6.703   5.321  18.433  0.00  0.00    +0.000 C 
ATOM     14  C   UNL     1       7.578   6.525  18.096  0.00  0.00    +0.000 C 
ENDBRANCH  12  13
BRANCH  12  15
ATOM     15  C   UNL     1       6.244   5.362  15.894  0.00  0.00    +0.000 C 
BRANCH  15  16
ATOM     16  C   UNL     1       6.746   4.503  14.722  0.00  0.00    +0.000 C 
BRANCH  16  18
ATOM     17  C   UNL     1       6.250   3.470  12.475  0.00  0.00    +0.000 C 
ATOM     18  C   UNL     1       5.656   4.116  13.720  0.00  0.00    +0.000 C 
ENDBRANCH  16  18
ENDBRANCH  15  16
ENDBRANCH  12  15
ENDBRANCH  11  12
ENDBRANCH   7  11
ENDBRANCH   1   8
BRANCH   4  19
ATOM     19  N   UNL     1       0.545  11.078  19.318  0.00  0.00    +0.000 N 
ATOM     20  H   UNL     1       1.192  11.795  18.954  0.00  0.00    +0.000 HD
BRANCH  19  21
ATOM     21  N   UNL     1      -0.802  11.395  19.261  0.00  0.00    +0.000 NA
ATOM     22  C   UNL     1      -1.202  11.957  20.374  0.00  0.00    +0.000 C 
ATOM     23  C   UNL     1      -0.266  12.243  21.574  0.00  0.00    +0.000 C 
ATOM     24  O   UNL     1       0.944  12.332  21.533  0.00  0.00    +0.000 OA
ATOM     25  N   UNL     1      -1.077  12.485  22.640  0.00  0.00    +0.000 N 
ATOM     26  C   UNL     1      -2.365  12.745  22.193  0.00  0.00    +0.000 A 
ATOM     27  C   UNL     1      -3.341  13.364  22.953  0.00  0.00    +0.000 A 
ATOM     28  C   UNL     1      -4.542  13.666  22.324  0.00  0.00    +0.000 A 
ATOM     29  C   UNL     1      -4.751  13.282  20.985  0.00  0.00    +0.000 A 
ATOM     30 BR   UNL     1      -6.404  13.747  20.176  0.00  0.00    +0.000 Br
ATOM     31  C   UNL     1      -3.756  12.631  20.226  0.00  0.00    +0.000 A 
ATOM     32  C   UNL     1      -2.534  12.421  20.836  0.00  0.00    +0.000 A 
ATOM     33  H   UNL     1      -0.722  12.652  23.570  0.00  0.00    +0.000 HD
ENDBRANCH  19  21
ENDBRANCH   4  19
TORSDOF 9
ENDMDL
