MODEL 1
REMARK VINA RESULT:      -9.6      0.000      0.000
REMARK  Name = 
REMARK  7 active torsions:
REMARK  status: ('A' for Active; 'I' for Inactive)
REMARK    1  A    between atoms: C_1  and  C_2
REMARK    2  A    between atoms: C_8  and  N_9
REMARK    3  A    between atoms: N_9  and  S_10
REMARK    4  A    between atoms: S_10  and  C_13
REMARK    5  A    between atoms: C_15  and  C_16
REMARK    6  A    between atoms: C_19  and  C_20
REMARK    7  A    between atoms: C_32  and  C_33
REMARK                            x       y       z     vdW  Elec       q    Type
REMARK                         _______ _______ _______ _____ _____    ______ ____
ROOT
ATOM      1  C   UNL     1       3.062   4.472  19.396  0.00  0.00    +0.000 A 
ATOM      2  C   UNL     1       2.956   5.725  18.771  0.00  0.00    +0.000 A 
ATOM      3  C   UNL     1       2.194   6.754  19.338  0.00  0.00    +0.000 A 
ATOM      4  C   UNL     1       1.490   6.507  20.519  0.00  0.00    +0.000 A 
ATOM      5  C   UNL     1       1.558   5.250  21.123  0.00  0.00    +0.000 A 
ATOM      6  C   UNL     1       2.344   4.213  20.584  0.00  0.00    +0.000 A 
ATOM      7  C   UNL     1       2.390   2.919  21.348  0.00  0.00    +0.000 C 
ENDROOT
BRANCH   3   8
ATOM      8  C   UNL     1       2.179   8.060  18.706  0.00  0.00    +0.000 A 
ATOM      9  N   UNL     1       2.446   8.268  17.407  0.00  0.00    +0.000 NA
ATOM     10  O   UNL     1       2.191   9.628  17.238  0.00  0.00    +0.000 OA
ATOM     11  C   UNL     1       1.848  10.119  18.462  0.00  0.00    +0.000 A 
ATOM     12  N   UNL     1       1.829   9.192  19.398  0.00  0.00    +0.000 NA
BRANCH  11  13
ATOM     13  C   UNL     1       1.517  11.526  18.591  0.00  0.00    +0.000 C 
ATOM     14  O   UNL     1       2.393  12.377  18.762  0.00  0.00    +0.000 OA
ATOM     15  N   UNL     1       0.158  11.908  18.510  0.00  0.00    +0.000 N 
ATOM     16  C   UNL     1      -0.150  13.332  18.421  0.00  0.00    +0.000 C 
ATOM     17  C   UNL     1      -0.450  13.943  19.786  0.00  0.00    +0.000 C 
ATOM     18  C   UNL     1      -1.839  13.613  20.329  0.00  0.00    +0.000 C 
ATOM     19  C   UNL     1      -2.149  12.122  20.447  0.00  0.00    +0.000 C 
ATOM     20  C   UNL     1      -2.274  11.434  19.090  0.00  0.00    +0.000 C 
ATOM     21  C   UNL     1      -0.942  10.942  18.527  0.00  0.00    +0.000 C 
ENDBRANCH  11  13
ENDBRANCH   3   8
BRANCH   1  22
ATOM     22  S   UNL     1       4.124   3.282  18.578  0.00  0.00    +0.000 S 
ATOM     23  O   UNL     1       3.282   2.293  17.945  0.00  0.00    +0.000 OA
ATOM     24  O   UNL     1       5.158   2.875  19.505  0.00  0.00    +0.000 OA
BRANCH  22  25
ATOM     25  N   UNL     1       4.896   4.186  17.391  0.00  0.00    +0.000 N 
ATOM     26  H   UNL     1       4.781   3.851  16.439  0.00  0.00    +0.000 HD
BRANCH  25  34
ATOM     27  C   UNL     1       5.156   6.625  15.752  0.00  0.00    +0.000 C 
ATOM     28  C   UNL     1       6.023   6.323  16.938  0.00  0.00    +0.000 A 
ATOM     29  C   UNL     1       7.009   7.256  17.296  0.00  0.00    +0.000 A 
ATOM     30  C   UNL     1       7.845   7.020  18.381  0.00  0.00    +0.000 A 
ATOM     31  F   UNL     1       8.782   7.923  18.696  0.00  0.00    +0.000 F 
ATOM     32  C   UNL     1       7.717   5.865  19.139  0.00  0.00    +0.000 A 
ATOM     33  C   UNL     1       6.739   4.926  18.799  0.00  0.00    +0.000 A 
ATOM     34  C   UNL     1       5.899   5.144  17.698  0.00  0.00    +0.000 A 
ENDBRANCH  25  34
ENDBRANCH  22  25
ENDBRANCH   1  22
TORSDOF 5
ENDMDL
MODEL 2
REMARK VINA RESULT:      -9.3      3.984      9.308
REMARK  Name = 
REMARK  7 active torsions:
REMARK  status: ('A' for Active; 'I' for Inactive)
REMARK    1  A    between atoms: C_1  and  C_2
REMARK    2  A    between atoms: C_8  and  N_9
REMARK    3  A    between atoms: N_9  and  S_10
REMARK    4  A    between atoms: S_10  and  C_13
REMARK    5  A    between atoms: C_15  and  C_16
REMARK    6  A    between atoms: C_19  and  C_20
REMARK    7  A    between atoms: C_32  and  C_33
REMARK                            x       y       z     vdW  Elec       q    Type
REMARK                         _______ _______ _______ _____ _____    ______ ____
ROOT
ATOM      1  C   UNL     1      -0.792  11.488  20.844  0.00  0.00    +0.000 A 
ATOM      2  C   UNL     1       0.045  10.651  20.089  0.00  0.00    +0.000 A 
ATOM      3  C   UNL     1       0.664   9.536  20.667  0.00  0.00    +0.000 A 
ATOM      4  C   UNL     1       0.480   9.285  22.028  0.00  0.00    +0.000 A 
ATOM      5  C   UNL     1      -0.318  10.138  22.793  0.00  0.00    +0.000 A 
ATOM      6  C   UNL     1      -0.974  11.247  22.223  0.00  0.00    +0.000 A 
ATOM      7  C   UNL     1      -1.855  12.063  23.127  0.00  0.00    +0.000 C 
ENDROOT
BRANCH   3   8
ATOM      8  C   UNL     1       1.454   8.649  19.833  0.00  0.00    +0.000 A 
ATOM      9  N   UNL     1       1.834   8.938  18.578  0.00  0.00    +0.000 NA
ATOM     10  O   UNL     1       2.660   7.868  18.236  0.00  0.00    +0.000 OA
ATOM     11  C   UNL     1       2.653   7.011  19.295  0.00  0.00    +0.000 A 
ATOM     12  N   UNL     1       1.923   7.448  20.302  0.00  0.00    +0.000 NA
BRANCH  11  13
ATOM     13  C   UNL     1       3.441   5.794  19.224  0.00  0.00    +0.000 C 
ATOM     14  O   UNL     1       4.575   5.793  18.739  0.00  0.00    +0.000 OA
ATOM     15  N   UNL     1       2.883   4.599  19.734  0.00  0.00    +0.000 N 
ATOM     16  C   UNL     1       3.754   3.435  19.862  0.00  0.00    +0.000 C 
ATOM     17  C   UNL     1       3.665   2.515  18.648  0.00  0.00    +0.000 C 
ATOM     18  C   UNL     1       2.409   1.648  18.608  0.00  0.00    +0.000 C 
ATOM     19  C   UNL     1       1.091   2.419  18.660  0.00  0.00    +0.000 C 
ATOM     20  C   UNL     1       0.851   3.092  20.010  0.00  0.00    +0.000 C 
ATOM     21  C   UNL     1       1.476   4.482  20.121  0.00  0.00    +0.000 C 
ENDBRANCH  11  13
ENDBRANCH   3   8
BRANCH   1  22
ATOM     22  S   UNL     1      -1.558  12.837  19.946  0.00  0.00    +0.000 S 
ATOM     23  O   UNL     1      -0.757  13.104  18.773  0.00  0.00    +0.000 OA
ATOM     24  O   UNL     1      -1.860  13.899  20.881  0.00  0.00    +0.000 OA
BRANCH  22  25
ATOM     25  N   UNL     1      -3.040  12.207  19.467  0.00  0.00    +0.000 N 
ATOM     26  H   UNL     1      -3.726  12.087  20.207  0.00  0.00    +0.000 HD
BRANCH  25  34
ATOM     27  C   UNL     1      -5.595  12.526  18.026  0.00  0.00    +0.000 C 
ATOM     28  C   UNL     1      -4.433  11.738  17.497  0.00  0.00    +0.000 A 
ATOM     29  C   UNL     1      -4.562  11.124  16.241  0.00  0.00    +0.000 A 
ATOM     30  C   UNL     1      -3.519  10.375  15.709  0.00  0.00    +0.000 A 
ATOM     31  F   UNL     1      -3.672   9.794  14.513  0.00  0.00    +0.000 F 
ATOM     32  C   UNL     1      -2.326  10.227  16.401  0.00  0.00    +0.000 A 
ATOM     33  C   UNL     1      -2.178  10.834  17.651  0.00  0.00    +0.000 A 
ATOM     34  C   UNL     1      -3.227  11.579  18.207  0.00  0.00    +0.000 A 
ENDBRANCH  25  34
ENDBRANCH  22  25
ENDBRANCH   1  22
TORSDOF 5
ENDMDL
MODEL 3
REMARK VINA RESULT:      -9.2      1.472      2.105
REMARK  Name = 
REMARK  7 active torsions:
REMARK  status: ('A' for Active; 'I' for Inactive)
REMARK    1  A    between atoms: C_1  and  C_2
REMARK    2  A    between atoms: C_8  and  N_9
REMARK    3  A    between atoms: N_9  and  S_10
REMARK    4  A    between atoms: S_10  and  C_13
REMARK    5  A    between atoms: C_15  and  C_16
REMARK    6  A    between atoms: C_19  and  C_20
REMARK    7  A    between atoms: C_32  and  C_33
REMARK                            x       y       z     vdW  Elec       q    Type
REMARK                         _______ _______ _______ _____ _____    ______ ____
ROOT
ATOM      1  C   UNL     1       2.679   4.393  18.882  0.00  0.00    +0.000 A 
ATOM      2  C   UNL     1       2.397   5.694  18.435  0.00  0.00    +0.000 A 
ATOM      3  C   UNL     1       2.072   6.715  19.337  0.00  0.00    +0.000 A 
ATOM      4  C   UNL     1       1.981   6.415  20.698  0.00  0.00    +0.000 A 
ATOM      5  C   UNL     1       2.219   5.114  21.144  0.00  0.00    +0.000 A 
ATOM      6  C   UNL     1       2.577   4.082  20.255  0.00  0.00    +0.000 A 
ATOM      7  C   UNL     1       2.868   2.732  20.852  0.00  0.00    +0.000 C 
ENDROOT
BRANCH   3   8
ATOM      8  C   UNL     1       1.871   8.064  18.843  0.00  0.00    +0.000 A 
ATOM      9  N   UNL     1       2.531   8.587  17.797  0.00  0.00    +0.000 NA
ATOM     10  O   UNL     1       1.925   9.831  17.622  0.00  0.00    +0.000 OA
ATOM     11  C   UNL     1       0.999   9.961  18.612  0.00  0.00    +0.000 A 
ATOM     12  N   UNL     1       0.930   8.899  19.390  0.00  0.00    +0.000 NA
BRANCH  11  13
ATOM     13  C   UNL     1       0.199  11.170  18.678  0.00  0.00    +0.000 C 
ATOM     14  O   UNL     1      -0.848  11.280  18.036  0.00  0.00    +0.000 OA
ATOM     15  N   UNL     1       0.643  12.228  19.504  0.00  0.00    +0.000 N 
ATOM     16  C   UNL     1      -0.267  13.344  19.738  0.00  0.00    +0.000 C 
ATOM     17  C   UNL     1      -0.021  14.499  18.771  0.00  0.00    +0.000 C 
ATOM     18  C   UNL     1       1.205  15.346  19.105  0.00  0.00    +0.000 C 
ATOM     19  C   UNL     1       2.519  14.574  19.195  0.00  0.00    +0.000 C 
ATOM     20  C   UNL     1       2.570  13.631  20.396  0.00  0.00    +0.000 C 
ATOM     21  C   UNL     1       1.972  12.252  20.118  0.00  0.00    +0.000 C 
ENDBRANCH  11  13
ENDBRANCH   3   8
BRANCH   1  22
ATOM     22  S   UNL     1       3.138   3.216  17.611  0.00  0.00    +0.000 S 
ATOM     23  O   UNL     1       2.905   3.833  16.325  0.00  0.00    +0.000 OA
ATOM     24  O   UNL     1       2.536   1.939  17.928  0.00  0.00    +0.000 OA
BRANCH  22  25
ATOM     25  N   UNL     1       4.791   3.015  17.832  0.00  0.00    +0.000 N 
ATOM     26  H   UNL     1       5.083   2.099  18.161  0.00  0.00    +0.000 HD
BRANCH  25  34
ATOM     27  C   UNL     1       6.066   3.988  15.355  0.00  0.00    +0.000 C 
ATOM     28  C   UNL     1       6.291   4.604  16.705  0.00  0.00    +0.000 A 
ATOM     29  C   UNL     1       7.149   5.711  16.797  0.00  0.00    +0.000 A 
ATOM     30  C   UNL     1       7.399   6.312  18.024  0.00  0.00    +0.000 A 
ATOM     31  F   UNL     1       8.228   7.362  18.085  0.00  0.00    +0.000 F 
ATOM     32  C   UNL     1       6.799   5.840  19.182  0.00  0.00    +0.000 A 
ATOM     33  C   UNL     1       5.939   4.740  19.110  0.00  0.00    +0.000 A 
ATOM     34  C   UNL     1       5.690   4.114  17.880  0.00  0.00    +0.000 A 
ENDBRANCH  25  34
ENDBRANCH  22  25
ENDBRANCH   1  22
TORSDOF 5
ENDMDL
MODEL 4
REMARK VINA RESULT:      -9.2      1.174      1.477
REMARK  Name = 
REMARK  7 active torsions:
REMARK  status: ('A' for Active; 'I' for Inactive)
REMARK    1  A    between atoms: C_1  and  C_2
REMARK    2  A    between atoms: C_8  and  N_9
REMARK    3  A    between atoms: N_9  and  S_10
REMARK    4  A    between atoms: S_10  and  C_13
REMARK    5  A    between atoms: C_15  and  C_16
REMARK    6  A    between atoms: C_19  and  C_20
REMARK    7  A    between atoms: C_32  and  C_33
REMARK                            x       y       z     vdW  Elec       q    Type
REMARK                         _______ _______ _______ _____ _____    ______ ____
ROOT
ATOM      1  C   UNL     1       2.950   4.272  18.853  0.00  0.00    +0.000 A 
ATOM      2  C   UNL     1       2.623   5.585  18.478  0.00  0.00    +0.000 A 
ATOM      3  C   UNL     1       2.227   6.532  19.430  0.00  0.00    +0.000 A 
ATOM      4  C   UNL     1       2.109   6.144  20.767  0.00  0.00    +0.000 A 
ATOM      5  C   UNL     1       2.392   4.829  21.139  0.00  0.00    +0.000 A 
ATOM      6  C   UNL     1       2.822   3.871  20.200  0.00  0.00    +0.000 A 
ATOM      7  C   UNL     1       3.155   2.500  20.722  0.00  0.00    +0.000 C 
ENDROOT
BRANCH   3   8
ATOM      8  C   UNL     1       1.980   7.900  19.014  0.00  0.00    +0.000 A 
ATOM      9  N   UNL     1       2.613   8.499  17.992  0.00  0.00    +0.000 NA
ATOM     10  O   UNL     1       1.969   9.733  17.893  0.00  0.00    +0.000 OA
ATOM     11  C   UNL     1       1.051   9.779  18.897  0.00  0.00    +0.000 A 
ATOM     12  N   UNL     1       1.021   8.675  19.615  0.00  0.00    +0.000 NA
BRANCH  11  13
ATOM     13  C   UNL     1       0.216  10.959  19.038  0.00  0.00    +0.000 C 
ATOM     14  O   UNL     1       0.456  11.815  19.893  0.00  0.00    +0.000 OA
ATOM     15  N   UNL     1      -0.884  11.113  18.163  0.00  0.00    +0.000 N 
ATOM     16  C   UNL     1      -1.584  12.394  18.161  0.00  0.00    +0.000 C 
ATOM     17  C   UNL     1      -2.800  12.387  19.083  0.00  0.00    +0.000 C 
ATOM     18  C   UNL     1      -4.013  11.652  18.515  0.00  0.00    +0.000 C 
ATOM     19  C   UNL     1      -3.762  10.198  18.124  0.00  0.00    +0.000 C 
ATOM     20  C   UNL     1      -2.837  10.061  16.916  0.00  0.00    +0.000 C 
ATOM     21  C   UNL     1      -1.353  10.045  17.279  0.00  0.00    +0.000 C 
ENDBRANCH  11  13
ENDBRANCH   3   8
BRANCH   1  22
ATOM     22  S   UNL     1       3.498   3.198  17.527  0.00  0.00    +0.000 S 
ATOM     23  O   UNL     1       2.337   2.803  16.763  0.00  0.00    +0.000 OA
ATOM     24  O   UNL     1       4.381   2.195  18.083  0.00  0.00    +0.000 OA
BRANCH  22  25
ATOM     25  N   UNL     1       4.465   4.193  16.581  0.00  0.00    +0.000 N 
ATOM     26  H   UNL     1       4.421   4.026  15.580  0.00  0.00    +0.000 HD
BRANCH  25  34
ATOM     27  C   UNL     1       4.923   6.934  15.588  0.00  0.00    +0.000 C 
ATOM     28  C   UNL     1       5.729   6.299  16.683  0.00  0.00    +0.000 A 
ATOM     29  C   UNL     1       6.754   7.053  17.277  0.00  0.00    +0.000 A 
ATOM     30  C   UNL     1       7.535   6.510  18.289  0.00  0.00    +0.000 A 
ATOM     31  F   UNL     1       8.512   7.248  18.833  0.00  0.00    +0.000 F 
ATOM     32  C   UNL     1       7.315   5.217  18.741  0.00  0.00    +0.000 A 
ATOM     33  C   UNL     1       6.297   4.453  18.164  0.00  0.00    +0.000 A 
ATOM     34  C   UNL     1       5.510   4.983  17.131  0.00  0.00    +0.000 A 
ENDBRANCH  25  34
ENDBRANCH  22  25
ENDBRANCH   1  22
TORSDOF 5
ENDMDL
MODEL 5
REMARK VINA RESULT:      -9.1      1.211      1.413
REMARK  Name = 
REMARK  7 active torsions:
REMARK  status: ('A' for Active; 'I' for Inactive)
REMARK    1  A    between atoms: C_1  and  C_2
REMARK    2  A    between atoms: C_8  and  N_9
REMARK    3  A    between atoms: N_9  and  S_10
REMARK    4  A    between atoms: S_10  and  C_13
REMARK    5  A    between atoms: C_15  and  C_16
REMARK    6  A    between atoms: C_19  and  C_20
REMARK    7  A    between atoms: C_32  and  C_33
REMARK                            x       y       z     vdW  Elec       q    Type
REMARK                         _______ _______ _______ _____ _____    ______ ____
ROOT
ATOM      1  C   UNL     1       2.503   4.381  18.864  0.00  0.00    +0.000 A 
ATOM      2  C   UNL     1       2.382   5.685  18.359  0.00  0.00    +0.000 A 
ATOM      3  C   UNL     1       2.123   6.769  19.207  0.00  0.00    +0.000 A 
ATOM      4  C   UNL     1       1.935   6.535  20.571  0.00  0.00    +0.000 A 
ATOM      5  C   UNL     1       2.013   5.235  21.073  0.00  0.00    +0.000 A 
ATOM      6  C   UNL     1       2.303   4.137  20.240  0.00  0.00    +0.000 A 
ATOM      7  C   UNL     1       2.420   2.789  20.897  0.00  0.00    +0.000 C 
ENDROOT
BRANCH   3   8
ATOM      8  C   UNL     1       2.090   8.111  18.657  0.00  0.00    +0.000 A 
ATOM      9  N   UNL     1       2.256   8.393  17.354  0.00  0.00    +0.000 NA
ATOM     10  O   UNL     1       2.021   9.766  17.289  0.00  0.00    +0.000 OA
ATOM     11  C   UNL     1       1.790  10.188  18.563  0.00  0.00    +0.000 A 
ATOM     12  N   UNL     1       1.823   9.205  19.441  0.00  0.00    +0.000 NA
BRANCH  11  13
ATOM     13  C   UNL     1       1.505  11.591  18.803  0.00  0.00    +0.000 C 
ATOM     14  O   UNL     1       2.294  12.473  18.457  0.00  0.00    +0.000 OA
ATOM     15  N   UNL     1       0.290  11.931  19.441  0.00  0.00    +0.000 N 
ATOM     16  C   UNL     1      -0.092  13.339  19.482  0.00  0.00    +0.000 C 
ATOM     17  C   UNL     1       0.342  14.016  20.779  0.00  0.00    +0.000 C 
ATOM     18  C   UNL     1      -0.532  13.679  21.985  0.00  0.00    +0.000 C 
ATOM     19  C   UNL     1      -0.656  12.189  22.297  0.00  0.00    +0.000 C 
ATOM     20  C   UNL     1      -1.443  11.424  21.235  0.00  0.00    +0.000 C 
ATOM     21  C   UNL     1      -0.584  10.938  20.068  0.00  0.00    +0.000 C 
ENDBRANCH  11  13
ENDBRANCH   3   8
BRANCH   1  22
ATOM     22  S   UNL     1       2.896   3.113  17.660  0.00  0.00    +0.000 S 
ATOM     23  O   UNL     1       2.633   3.649  16.345  0.00  0.00    +0.000 OA
ATOM     24  O   UNL     1       2.280   1.873  18.080  0.00  0.00    +0.000 OA
BRANCH  22  25
ATOM     25  N   UNL     1       4.552   2.892  17.841  0.00  0.00    +0.000 N 
ATOM     26  H   UNL     1       4.840   1.970  18.158  0.00  0.00    +0.000 HD
BRANCH  25  34
ATOM     27  C   UNL     1       5.785   3.860  15.341  0.00  0.00    +0.000 C 
ATOM     28  C   UNL     1       6.046   4.467  16.689  0.00  0.00    +0.000 A 
ATOM     29  C   UNL     1       6.920   5.563  16.766  0.00  0.00    +0.000 A 
ATOM     30  C   UNL     1       7.203   6.156  17.990  0.00  0.00    +0.000 A 
ATOM     31  F   UNL     1       8.046   7.196  18.037  0.00  0.00    +0.000 F 
ATOM     32  C   UNL     1       6.622   5.686  19.159  0.00  0.00    +0.000 A 
ATOM     33  C   UNL     1       5.748   4.597  19.101  0.00  0.00    +0.000 A 
ATOM     34  C   UNL     1       5.465   3.979  17.874  0.00  0.00    +0.000 A 
ENDBRANCH  25  34
ENDBRANCH  22  25
ENDBRANCH   1  22
TORSDOF 5
ENDMDL
MODEL 6
REMARK VINA RESULT:      -9.1      2.633      4.239
REMARK  Name = 
REMARK  7 active torsions:
REMARK  status: ('A' for Active; 'I' for Inactive)
REMARK    1  A    between atoms: C_1  and  C_2
REMARK    2  A    between atoms: C_8  and  N_9
REMARK    3  A    between atoms: N_9  and  S_10
REMARK    4  A    between atoms: S_10  and  C_13
REMARK    5  A    between atoms: C_15  and  C_16
REMARK    6  A    between atoms: C_19  and  C_20
REMARK    7  A    between atoms: C_32  and  C_33
REMARK                            x       y       z     vdW  Elec       q    Type
REMARK                         _______ _______ _______ _____ _____    ______ ____
ROOT
ATOM      1  C   UNL     1       5.437   5.788  17.777  0.00  0.00    +0.000 A 
ATOM      2  C   UNL     1       4.452   6.507  18.472  0.00  0.00    +0.000 A 
ATOM      3  C   UNL     1       3.585   7.380  17.802  0.00  0.00    +0.000 A 
ATOM      4  C   UNL     1       3.742   7.570  16.427  0.00  0.00    +0.000 A 
ATOM      5  C   UNL     1       4.747   6.889  15.738  0.00  0.00    +0.000 A 
ATOM      6  C   UNL     1       5.608   5.984  16.390  0.00  0.00    +0.000 A 
ATOM      7  C   UNL     1       6.617   5.263  15.540  0.00  0.00    +0.000 C 
ENDROOT
BRANCH   3   8
ATOM      8  C   UNL     1       2.526   8.039  18.542  0.00  0.00    +0.000 A 
ATOM      9  N   UNL     1       2.061   7.613  19.728  0.00  0.00    +0.000 NA
ATOM     10  O   UNL     1       1.161   8.612  20.099  0.00  0.00    +0.000 OA
ATOM     11  C   UNL     1       1.130   9.513  19.079  0.00  0.00    +0.000 A 
ATOM     12  N   UNL     1       1.952   9.203  18.097  0.00  0.00    +0.000 NA
BRANCH  11  13
ATOM     13  C   UNL     1       0.273  10.679  19.192  0.00  0.00    +0.000 C 
ATOM     14  O   UNL     1       0.422  11.496  20.104  0.00  0.00    +0.000 OA
ATOM     15  N   UNL     1      -0.740  10.867  18.224  0.00  0.00    +0.000 N 
ATOM     16  C   UNL     1      -1.450  12.143  18.213  0.00  0.00    +0.000 C 
ATOM     17  C   UNL     1      -2.748  12.085  19.012  0.00  0.00    +0.000 C 
ATOM     18  C   UNL     1      -3.893  11.371  18.299  0.00  0.00    +0.000 C 
ATOM     19  C   UNL     1      -3.591   9.937  17.867  0.00  0.00    +0.000 C 
ATOM     20  C   UNL     1      -2.554   9.862  16.748  0.00  0.00    +0.000 C 
ATOM     21  C   UNL     1      -1.111   9.838  17.251  0.00  0.00    +0.000 C 
ENDBRANCH  11  13
ENDBRANCH   3   8
BRANCH   1  22
ATOM     22  S   UNL     1       6.425   4.667  18.767  0.00  0.00    +0.000 S 
ATOM     23  O   UNL     1       6.577   5.247  20.082  0.00  0.00    +0.000 OA
ATOM     24  O   UNL     1       7.590   4.280  18.000  0.00  0.00    +0.000 OA
BRANCH  22  25
ATOM     25  N   UNL     1       5.470   3.290  18.882  0.00  0.00    +0.000 N 
ATOM     26  H   UNL     1       5.867   2.444  18.483  0.00  0.00    +0.000 HD
BRANCH  25  34
ATOM     27  C   UNL     1       3.443   3.109  16.745  0.00  0.00    +0.000 C 
ATOM     28  C   UNL     1       3.108   3.243  18.202  0.00  0.00    +0.000 A 
ATOM     29  C   UNL     1       1.755   3.275  18.573  0.00  0.00    +0.000 A 
ATOM     30  C   UNL     1       1.390   3.406  19.907  0.00  0.00    +0.000 A 
ATOM     31  F   UNL     1       0.092   3.442  20.233  0.00  0.00    +0.000 F 
ATOM     32  C   UNL     1       2.353   3.498  20.901  0.00  0.00    +0.000 A 
ATOM     33  C   UNL     1       3.706   3.465  20.551  0.00  0.00    +0.000 A 
ATOM     34  C   UNL     1       4.088   3.348  19.207  0.00  0.00    +0.000 A 
ENDBRANCH  25  34
ENDBRANCH  22  25
ENDBRANCH   1  22
TORSDOF 5
ENDMDL
MODEL 7
REMARK VINA RESULT:      -9.0      3.608      9.248
REMARK  Name = 
REMARK  7 active torsions:
REMARK  status: ('A' for Active; 'I' for Inactive)
REMARK    1  A    between atoms: C_1  and  C_2
REMARK    2  A    between atoms: C_8  and  N_9
REMARK    3  A    between atoms: N_9  and  S_10
REMARK    4  A    between atoms: S_10  and  C_13
REMARK    5  A    between atoms: C_15  and  C_16
REMARK    6  A    between atoms: C_19  and  C_20
REMARK    7  A    between atoms: C_32  and  C_33
REMARK                            x       y       z     vdW  Elec       q    Type
REMARK                         _______ _______ _______ _____ _____    ______ ____
ROOT
ATOM      1  C   UNL     1       0.359  11.391  21.032  0.00  0.00    +0.000 A 
ATOM      2  C   UNL     1       1.091  10.689  20.060  0.00  0.00    +0.000 A 
ATOM      3  C   UNL     1       1.083   9.290  20.020  0.00  0.00    +0.000 A 
ATOM      4  C   UNL     1       0.373   8.586  20.995  0.00  0.00    +0.000 A 
ATOM      5  C   UNL     1      -0.322   9.277  21.989  0.00  0.00    +0.000 A 
ATOM      6  C   UNL     1      -0.351  10.686  22.027  0.00  0.00    +0.000 A 
ATOM      7  C   UNL     1      -1.178  11.326  23.107  0.00  0.00    +0.000 C 
ENDROOT
BRANCH   3   8
ATOM      8  C   UNL     1       1.783   8.605  18.950  0.00  0.00    +0.000 A 
ATOM      9  N   UNL     1       2.064   9.161  17.760  0.00  0.00    +0.000 NA
ATOM     10  O   UNL     1       2.837   8.189  17.124  0.00  0.00    +0.000 OA
ATOM     11  C   UNL     1       2.899   7.122  17.968  0.00  0.00    +0.000 A 
ATOM     12  N   UNL     1       2.264   7.329  19.104  0.00  0.00    +0.000 NA
BRANCH  11  13
ATOM     13  C   UNL     1       3.654   5.948  17.568  0.00  0.00    +0.000 C 
ATOM     14  O   UNL     1       3.142   4.826  17.571  0.00  0.00    +0.000 OA
ATOM     15  N   UNL     1       4.998   6.117  17.164  0.00  0.00    +0.000 N 
ATOM     16  C   UNL     1       5.681   4.978  16.558  0.00  0.00    +0.000 C 
ATOM     17  C   UNL     1       6.483   4.178  17.580  0.00  0.00    +0.000 C 
ATOM     18  C   UNL     1       7.802   4.829  17.991  0.00  0.00    +0.000 C 
ATOM     19  C   UNL     1       7.676   6.242  18.555  0.00  0.00    +0.000 C 
ATOM     20  C   UNL     1       7.245   7.263  17.504  0.00  0.00    +0.000 C 
ATOM     21  C   UNL     1       5.729   7.373  17.341  0.00  0.00    +0.000 C 
ENDBRANCH  11  13
ENDBRANCH   3   8
BRANCH   1  22
ATOM     22  S   UNL     1       0.422  13.179  20.912  0.00  0.00    +0.000 S 
ATOM     23  O   UNL     1       1.340  13.523  19.851  0.00  0.00    +0.000 OA
ATOM     24  O   UNL     1       0.604  13.723  22.241  0.00  0.00    +0.000 OA
BRANCH  22  25
ATOM     25  N   UNL     1      -1.137  13.601  20.449  0.00  0.00    +0.000 N 
ATOM     26  H   UNL     1      -1.582  14.322  21.010  0.00  0.00    +0.000 HD
BRANCH  25  34
ATOM     27  C   UNL     1      -3.918  12.899  21.139  0.00  0.00    +0.000 C 
ATOM     28  C   UNL     1      -3.244  12.477  19.867  0.00  0.00    +0.000 A 
ATOM     29  C   UNL     1      -3.978  11.712  18.947  0.00  0.00    +0.000 A 
ATOM     30  C   UNL     1      -3.398  11.288  17.757  0.00  0.00    +0.000 A 
ATOM     31  F   UNL     1      -4.119  10.553  16.901  0.00  0.00    +0.000 F 
ATOM     32  C   UNL     1      -2.087  11.619  17.448  0.00  0.00    +0.000 A 
ATOM     33  C   UNL     1      -1.342  12.383  18.352  0.00  0.00    +0.000 A 
ATOM     34  C   UNL     1      -1.909  12.804  19.562  0.00  0.00    +0.000 A 
ENDBRANCH  25  34
ENDBRANCH  22  25
ENDBRANCH   1  22
TORSDOF 5
ENDMDL
MODEL 8
REMARK VINA RESULT:      -9.0      4.217      9.510
REMARK  Name = 
REMARK  7 active torsions:
REMARK  status: ('A' for Active; 'I' for Inactive)
REMARK    1  A    between atoms: C_1  and  C_2
REMARK    2  A    between atoms: C_8  and  N_9
REMARK    3  A    between atoms: N_9  and  S_10
REMARK    4  A    between atoms: S_10  and  C_13
REMARK    5  A    between atoms: C_15  and  C_16
REMARK    6  A    between atoms: C_19  and  C_20
REMARK    7  A    between atoms: C_32  and  C_33
REMARK                            x       y       z     vdW  Elec       q    Type
REMARK                         _______ _______ _______ _____ _____    ______ ____
ROOT
ATOM      1  C   UNL     1      -0.662  11.605  21.018  0.00  0.00    +0.000 A 
ATOM      2  C   UNL     1       0.150  10.760  20.246  0.00  0.00    +0.000 A 
ATOM      3  C   UNL     1       0.536   9.499  20.718  0.00  0.00    +0.000 A 
ATOM      4  C   UNL     1       0.144   9.103  21.999  0.00  0.00    +0.000 A 
ATOM      5  C   UNL     1      -0.629   9.957  22.788  0.00  0.00    +0.000 A 
ATOM      6  C   UNL     1      -1.053  11.216  22.317  0.00  0.00    +0.000 A 
ATOM      7  C   UNL     1      -1.931  12.028  23.229  0.00  0.00    +0.000 C 
ENDROOT
BRANCH   3   8
ATOM      8  C   UNL     1       1.306   8.621  19.856  0.00  0.00    +0.000 A 
ATOM      9  N   UNL     1       1.571   8.880  18.566  0.00  0.00    +0.000 NA
ATOM     10  O   UNL     1       2.424   7.841  18.197  0.00  0.00    +0.000 OA
ATOM     11  C   UNL     1       2.546   7.028  19.282  0.00  0.00    +0.000 A 
ATOM     12  N   UNL     1       1.875   7.466  20.328  0.00  0.00    +0.000 NA
BRANCH  11  13
ATOM     13  C   UNL     1       3.392   5.851  19.192  0.00  0.00    +0.000 C 
ATOM     14  O   UNL     1       4.519   5.909  18.695  0.00  0.00    +0.000 OA
ATOM     15  N   UNL     1       2.897   4.626  19.695  0.00  0.00    +0.000 N 
ATOM     16  C   UNL     1       3.824   3.504  19.803  0.00  0.00    +0.000 C 
ATOM     17  C   UNL     1       3.768   2.592  18.582  0.00  0.00    +0.000 C 
ATOM     18  C   UNL     1       2.554   1.666  18.546  0.00  0.00    +0.000 C 
ATOM     19  C   UNL     1       1.201   2.371  18.618  0.00  0.00    +0.000 C 
ATOM     20  C   UNL     1       0.943   3.019  19.977  0.00  0.00    +0.000 C 
ATOM     21  C   UNL     1       1.501   4.437  20.095  0.00  0.00    +0.000 C 
ENDBRANCH  11  13
ENDBRANCH   3   8
BRANCH   1  22
ATOM     22  S   UNL     1      -1.121  13.159  20.249  0.00  0.00    +0.000 S 
ATOM     23  O   UNL     1       0.087  13.921  20.029  0.00  0.00    +0.000 OA
ATOM     24  O   UNL     1      -2.221  13.733  20.994  0.00  0.00    +0.000 OA
BRANCH  22  25
ATOM     25  N   UNL     1      -1.757  12.696  18.765  0.00  0.00    +0.000 N 
ATOM     26  H   UNL     1      -1.329  13.126  17.950  0.00  0.00    +0.000 HD
BRANCH  25  34
ATOM     27  C   UNL     1      -1.937  10.187  17.223  0.00  0.00    +0.000 C 
ATOM     28  C   UNL     1      -3.101  10.813  17.935  0.00  0.00    +0.000 A 
ATOM     29  C   UNL     1      -4.345  10.165  17.872  0.00  0.00    +0.000 A 
ATOM     30  C   UNL     1      -5.457  10.707  18.505  0.00  0.00    +0.000 A 
ATOM     31  F   UNL     1      -6.633  10.074  18.423  0.00  0.00    +0.000 F 
ATOM     32  C   UNL     1      -5.360  11.892  19.220  0.00  0.00    +0.000 A 
ATOM     33  C   UNL     1      -4.128  12.549  19.296  0.00  0.00    +0.000 A 
ATOM     34  C   UNL     1      -3.002  12.022  18.649  0.00  0.00    +0.000 A 
ENDBRANCH  25  34
ENDBRANCH  22  25
ENDBRANCH   1  22
TORSDOF 5
ENDMDL
MODEL 9
REMARK VINA RESULT:      -8.9      3.729      8.764
REMARK  Name = 
REMARK  7 active torsions:
REMARK  status: ('A' for Active; 'I' for Inactive)
REMARK    1  A    between atoms: C_1  and  C_2
REMARK    2  A    between atoms: C_8  and  N_9
REMARK    3  A    between atoms: N_9  and  S_10
REMARK    4  A    between atoms: S_10  and  C_13
REMARK    5  A    between atoms: C_15  and  C_16
REMARK    6  A    between atoms: C_19  and  C_20
REMARK    7  A    between atoms: C_32  and  C_33
REMARK                            x       y       z     vdW  Elec       q    Type
REMARK                         _______ _______ _______ _____ _____    ______ ____
ROOT
ATOM      1  C   UNL     1      -0.102  11.564  21.363  0.00  0.00    +0.000 A 
ATOM      2  C   UNL     1       0.667  10.807  20.465  0.00  0.00    +0.000 A 
ATOM      3  C   UNL     1       0.740   9.413  20.573  0.00  0.00    +0.000 A 
ATOM      4  C   UNL     1       0.076   8.776  21.624  0.00  0.00    +0.000 A 
ATOM      5  C   UNL     1      -0.655   9.528  22.546  0.00  0.00    +0.000 A 
ATOM      6  C   UNL     1      -0.766  10.929  22.434  0.00  0.00    +0.000 A 
ATOM      7  C   UNL     1      -1.627  11.631  23.448  0.00  0.00    +0.000 C 
ENDROOT
BRANCH   3   8
ATOM      8  C   UNL     1       1.476   8.659  19.575  0.00  0.00    +0.000 A 
ATOM      9  N   UNL     1       1.666   9.073  18.312  0.00  0.00    +0.000 NA
ATOM     10  O   UNL     1       2.515   8.103  17.779  0.00  0.00    +0.000 OA
ATOM     11  C   UNL     1       2.710   7.172  18.754  0.00  0.00    +0.000 A 
ATOM     12  N   UNL     1       2.089   7.470  19.877  0.00  0.00    +0.000 NA
BRANCH  11  13
ATOM     13  C   UNL     1       3.568   6.033  18.482  0.00  0.00    +0.000 C 
ATOM     14  O   UNL     1       4.544   6.131  17.735  0.00  0.00    +0.000 OA
ATOM     15  N   UNL     1       3.266   4.799  19.101  0.00  0.00    +0.000 N 
ATOM     16  C   UNL     1       4.247   3.723  19.002  0.00  0.00    +0.000 C 
ATOM     17  C   UNL     1       3.953   2.781  17.839  0.00  0.00    +0.000 C 
ATOM     18  C   UNL     1       2.812   1.800  18.099  0.00  0.00    +0.000 C 
ATOM     19  C   UNL     1       1.480   2.445  18.478  0.00  0.00    +0.000 C 
ATOM     20  C   UNL     1       1.514   3.111  19.851  0.00  0.00    +0.000 C 
ATOM     21  C   UNL     1       2.013   4.555  19.819  0.00  0.00    +0.000 C 
ENDBRANCH  11  13
ENDBRANCH   3   8
BRANCH   1  22
ATOM     22  S   UNL     1      -0.144  13.330  21.054  0.00  0.00    +0.000 S 
ATOM     23  O   UNL     1       0.921  13.942  21.815  0.00  0.00    +0.000 OA
ATOM     24  O   UNL     1      -1.508  13.790  21.206  0.00  0.00    +0.000 OA
BRANCH  22  25
ATOM     25  N   UNL     1       0.208  13.456  19.417  0.00  0.00    +0.000 N 
ATOM     26  H   UNL     1      -0.071  12.664  18.845  0.00  0.00    +0.000 HD
BRANCH  25  34
ATOM     27  C   UNL     1       2.727  12.599  18.142  0.00  0.00    +0.000 C 
ATOM     28  C   UNL     1       2.308  14.034  18.277  0.00  0.00    +0.000 A 
ATOM     29  C   UNL     1       3.155  15.026  17.759  0.00  0.00    +0.000 A 
ATOM     30  C   UNL     1       2.818  16.370  17.866  0.00  0.00    +0.000 A 
ATOM     31  F   UNL     1       3.648  17.296  17.371  0.00  0.00    +0.000 F 
ATOM     32  C   UNL     1       1.634  16.759  18.474  0.00  0.00    +0.000 A 
ATOM     33  C   UNL     1       0.776  15.785  18.992  0.00  0.00    +0.000 A 
ATOM     34  C   UNL     1       1.111  14.426  18.906  0.00  0.00    +0.000 A 
ENDBRANCH  25  34
ENDBRANCH  22  25
ENDBRANCH   1  22
TORSDOF 5
ENDMDL
