MODEL 1
REMARK VINA RESULT:      -6.8      0.000      0.000
REMARK  Name = 
REMARK  1 active torsions:
REMARK  status: ('A' for Active; 'I' for Inactive)
REMARK    1  A    between atoms: C_1  and  C_2
REMARK                            x       y       z     vdW  Elec       q    Type
REMARK                         _______ _______ _______ _____ _____    ______ ____
ROOT
ATOM      1  C   UNL     1       2.342   6.917  19.539  0.00  0.00    +0.000 C 
ATOM      2  C   UNL     1       2.784   5.756  18.724  0.00  0.00    +0.000 A 
ATOM      3  C   UNL     1       2.312   4.467  18.769  0.00  0.00    +0.000 A 
ATOM      4  N   UNL     1       2.994   3.730  17.856  0.00  0.00    +0.000 N 
ATOM      5  C   UNL     1       3.894   4.461  17.163  0.00  0.00    +0.000 A 
ATOM      6  C   UNL     1       4.782   4.116  16.139  0.00  0.00    +0.000 A 
ATOM      7  C   UNL     1       5.588   5.132  15.617  0.00  0.00    +0.000 A 
ATOM      8  C   UNL     1       5.508   6.434  16.102  0.00  0.00    +0.000 A 
ATOM      9  C   UNL     1       4.618   6.763  17.133  0.00  0.00    +0.000 A 
ATOM     10  C   UNL     1       3.790   5.762  17.683  0.00  0.00    +0.000 A 
ATOM     11  C   UNL     1       2.590   2.338  17.850  0.00  0.00    +0.000 C 
ATOM     12  C   UNL     1       1.306   2.330  18.702  0.00  0.00    +0.000 C 
ATOM     13  C   UNL     1       1.338   3.668  19.443  0.00  0.00    +0.000 C 
ATOM     14  O   UNL     1       0.622   3.977  20.379  0.00  0.00    +0.000 OA
ENDROOT
TORSDOF 0
ENDMDL
MODEL 2
REMARK VINA RESULT:      -6.7      1.015      2.663
REMARK  Name = 
REMARK  1 active torsions:
REMARK  status: ('A' for Active; 'I' for Inactive)
REMARK    1  A    between atoms: C_1  and  C_2
REMARK                            x       y       z     vdW  Elec       q    Type
REMARK                         _______ _______ _______ _____ _____    ______ ____
ROOT
ATOM      1  C   UNL     1       3.339   1.841  17.982  0.00  0.00    +0.000 C 
ATOM      2  C   UNL     1       3.347   3.321  18.102  0.00  0.00    +0.000 A 
ATOM      3  C   UNL     1       2.699   4.094  19.034  0.00  0.00    +0.000 A 
ATOM      4  N   UNL     1       2.977   5.398  18.777  0.00  0.00    +0.000 N 
ATOM      5  C   UNL     1       3.812   5.555  17.726  0.00  0.00    +0.000 A 
ATOM      6  C   UNL     1       4.360   6.698  17.136  0.00  0.00    +0.000 A 
ATOM      7  C   UNL     1       5.215   6.514  16.047  0.00  0.00    +0.000 A 
ATOM      8  C   UNL     1       5.505   5.239  15.569  0.00  0.00    +0.000 A 
ATOM      9  C   UNL     1       4.944   4.103  16.166  0.00  0.00    +0.000 A 
ATOM     10  C   UNL     1       4.076   4.254  17.268  0.00  0.00    +0.000 A 
ATOM     11  C   UNL     1       2.308   6.301  19.692  0.00  0.00    +0.000 C 
ATOM     12  C   UNL     1       1.776   5.368  20.798  0.00  0.00    +0.000 C 
ATOM     13  C   UNL     1       1.855   3.971  20.181  0.00  0.00    +0.000 C 
ATOM     14  O   UNL     1       1.337   2.966  20.634  0.00  0.00    +0.000 OA
ENDROOT
TORSDOF 0
ENDMDL
MODEL 3
REMARK VINA RESULT:      -6.6      2.211      4.313
REMARK  Name = 
REMARK  1 active torsions:
REMARK  status: ('A' for Active; 'I' for Inactive)
REMARK    1  A    between atoms: C_1  and  C_2
REMARK                            x       y       z     vdW  Elec       q    Type
REMARK                         _______ _______ _______ _____ _____    ______ ____
ROOT
ATOM      1  C   UNL     1       2.960   7.245  18.170  0.00  0.00    +0.000 C 
ATOM      2  C   UNL     1       3.342   5.861  17.790  0.00  0.00    +0.000 A 
ATOM      3  C   UNL     1       4.419   5.461  17.038  0.00  0.00    +0.000 A 
ATOM      4  N   UNL     1       4.389   4.108  16.933  0.00  0.00    +0.000 N 
ATOM      5  C   UNL     1       3.354   3.557  17.604  0.00  0.00    +0.000 A 
ATOM      6  C   UNL     1       2.958   2.226  17.772  0.00  0.00    +0.000 A 
ATOM      7  C   UNL     1       1.823   1.986  18.551  0.00  0.00    +0.000 A 
ATOM      8  C   UNL     1       1.115   3.035  19.133  0.00  0.00    +0.000 A 
ATOM      9  C   UNL     1       1.521   4.363  18.950  0.00  0.00    +0.000 A 
ATOM     10  C   UNL     1       2.662   4.640  18.169  0.00  0.00    +0.000 A 
ATOM     11  C   UNL     1       5.473   3.588  16.124  0.00  0.00    +0.000 C 
ATOM     12  C   UNL     1       6.413   4.798  15.958  0.00  0.00    +0.000 C 
ATOM     13  C   UNL     1       5.555   5.999  16.358  0.00  0.00    +0.000 C 
ATOM     14  O   UNL     1       5.841   7.167  16.169  0.00  0.00    +0.000 OA
ENDROOT
TORSDOF 0
ENDMDL
MODEL 4
REMARK VINA RESULT:      -6.6      2.539      4.389
REMARK  Name = 
REMARK  1 active torsions:
REMARK  status: ('A' for Active; 'I' for Inactive)
REMARK    1  A    between atoms: C_1  and  C_2
REMARK                            x       y       z     vdW  Elec       q    Type
REMARK                         _______ _______ _______ _____ _____    ______ ____
ROOT
ATOM      1  C   UNL     1       3.178   7.743  17.751  0.00  0.00    +0.000 C 
ATOM      2  C   UNL     1       3.792   6.394  17.651  0.00  0.00    +0.000 A 
ATOM      3  C   UNL     1       5.114   6.084  17.446  0.00  0.00    +0.000 A 
ATOM      4  N   UNL     1       5.238   4.733  17.420  0.00  0.00    +0.000 N 
ATOM      5  C   UNL     1       4.063   4.098  17.626  0.00  0.00    +0.000 A 
ATOM      6  C   UNL     1       3.739   2.740  17.693  0.00  0.00    +0.000 A 
ATOM      7  C   UNL     1       2.403   2.407  17.936  0.00  0.00    +0.000 A 
ATOM      8  C   UNL     1       1.436   3.395  18.103  0.00  0.00    +0.000 A 
ATOM      9  C   UNL     1       1.775   4.752  18.027  0.00  0.00    +0.000 A 
ATOM     10  C   UNL     1       3.114   5.122  17.782  0.00  0.00    +0.000 A 
ATOM     11  C   UNL     1       6.600   4.303  17.174  0.00  0.00    +0.000 C 
ATOM     12  C   UNL     1       7.423   5.594  17.345  0.00  0.00    +0.000 C 
ATOM     13  C   UNL     1       6.385   6.715  17.274  0.00  0.00    +0.000 C 
ATOM     14  O   UNL     1       6.631   7.901  17.153  0.00  0.00    +0.000 OA
ENDROOT
TORSDOF 0
ENDMDL
MODEL 5
REMARK VINA RESULT:      -6.5      2.172      4.279
REMARK  Name = 
REMARK  1 active torsions:
REMARK  status: ('A' for Active; 'I' for Inactive)
REMARK    1  A    between atoms: C_1  and  C_2
REMARK                            x       y       z     vdW  Elec       q    Type
REMARK                         _______ _______ _______ _____ _____    ______ ____
ROOT
ATOM      1  C   UNL     1       2.728   7.638  18.260  0.00  0.00    +0.000 C 
ATOM      2  C   UNL     1       3.061   6.192  18.193  0.00  0.00    +0.000 A 
ATOM      3  C   UNL     1       3.967   5.574  17.365  0.00  0.00    +0.000 A 
ATOM      4  N   UNL     1       3.956   4.244  17.635  0.00  0.00    +0.000 N 
ATOM      5  C   UNL     1       3.102   3.923  18.632  0.00  0.00    +0.000 A 
ATOM      6  C   UNL     1       2.790   2.698  19.231  0.00  0.00    +0.000 A 
ATOM      7  C   UNL     1       1.853   2.707  20.267  0.00  0.00    +0.000 A 
ATOM      8  C   UNL     1       1.254   3.893  20.683  0.00  0.00    +0.000 A 
ATOM      9  C   UNL     1       1.572   5.112  20.069  0.00  0.00    +0.000 A 
ATOM     10  C   UNL     1       2.513   5.137  19.019  0.00  0.00    +0.000 A 
ATOM     11  C   UNL     1       4.859   3.495  16.785  0.00  0.00    +0.000 C 
ATOM     12  C   UNL     1       5.706   4.589  16.106  0.00  0.00    +0.000 C 
ATOM     13  C   UNL     1       4.917   5.877  16.341  0.00  0.00    +0.000 C 
ATOM     14  O   UNL     1       5.121   6.944  15.790  0.00  0.00    +0.000 OA
ENDROOT
TORSDOF 0
ENDMDL
MODEL 6
REMARK VINA RESULT:      -6.5      3.006      5.155
REMARK  Name = 
REMARK  1 active torsions:
REMARK  status: ('A' for Active; 'I' for Inactive)
REMARK    1  A    between atoms: C_1  and  C_2
REMARK                            x       y       z     vdW  Elec       q    Type
REMARK                         _______ _______ _______ _____ _____    ______ ____
ROOT
ATOM      1  C   UNL     1       5.029   4.395  14.823  0.00  0.00    +0.000 C 
ATOM      2  C   UNL     1       5.097   4.411  16.306  0.00  0.00    +0.000 A 
ATOM      3  C   UNL     1       6.020   5.049  17.100  0.00  0.00    +0.000 A 
ATOM      4  N   UNL     1       5.712   4.800  18.398  0.00  0.00    +0.000 N 
ATOM      5  C   UNL     1       4.601   4.042  18.534  0.00  0.00    +0.000 A 
ATOM      6  C   UNL     1       3.931   3.569  19.667  0.00  0.00    +0.000 A 
ATOM      7  C   UNL     1       2.780   2.803  19.461  0.00  0.00    +0.000 A 
ATOM      8  C   UNL     1       2.324   2.524  18.176  0.00  0.00    +0.000 A 
ATOM      9  C   UNL     1       3.009   2.999  17.050  0.00  0.00    +0.000 A 
ATOM     10  C   UNL     1       4.175   3.775  17.223  0.00  0.00    +0.000 A 
ATOM     11  C   UNL     1       6.652   5.406  19.319  0.00  0.00    +0.000 C 
ATOM     12  C   UNL     1       7.469   6.361  18.427  0.00  0.00    +0.000 C 
ATOM     13  C   UNL     1       7.168   5.893  17.002  0.00  0.00    +0.000 C 
ATOM     14  O   UNL     1       7.772   6.236  16.002  0.00  0.00    +0.000 OA
ENDROOT
TORSDOF 0
ENDMDL
MODEL 7
REMARK VINA RESULT:      -6.4      2.162      4.792
REMARK  Name = 
REMARK  1 active torsions:
REMARK  status: ('A' for Active; 'I' for Inactive)
REMARK    1  A    between atoms: C_1  and  C_2
REMARK                            x       y       z     vdW  Elec       q    Type
REMARK                         _______ _______ _______ _____ _____    ______ ____
ROOT
ATOM      1  C   UNL     1       3.636   1.919  17.808  0.00  0.00    +0.000 C 
ATOM      2  C   UNL     1       3.645   3.396  17.965  0.00  0.00    +0.000 A 
ATOM      3  C   UNL     1       4.352   4.316  17.230  0.00  0.00    +0.000 A 
ATOM      4  N   UNL     1       4.069   5.555  17.708  0.00  0.00    +0.000 N 
ATOM      5  C   UNL     1       3.177   5.530  18.723  0.00  0.00    +0.000 A 
ATOM      6  C   UNL     1       2.605   6.554  19.484  0.00  0.00    +0.000 A 
ATOM      7  C   UNL     1       1.688   6.187  20.472  0.00  0.00    +0.000 A 
ATOM      8  C   UNL     1       1.361   4.851  20.688  0.00  0.00    +0.000 A 
ATOM      9  C   UNL     1       1.947   3.835  19.921  0.00  0.00    +0.000 A 
ATOM     10  C   UNL     1       2.877   4.172  18.916  0.00  0.00    +0.000 A 
ATOM     11  C   UNL     1       4.797   6.599  17.015  0.00  0.00    +0.000 C 
ATOM     12  C   UNL     1       5.384   5.877  15.786  0.00  0.00    +0.000 C 
ATOM     13  C   UNL     1       5.259   4.392  16.128  0.00  0.00    +0.000 C 
ATOM     14  O   UNL     1       5.794   3.479  15.525  0.00  0.00    +0.000 OA
ENDROOT
TORSDOF 0
ENDMDL
MODEL 8
REMARK VINA RESULT:      -6.4      2.108      4.814
REMARK  Name = 
REMARK  1 active torsions:
REMARK  status: ('A' for Active; 'I' for Inactive)
REMARK    1  A    between atoms: C_1  and  C_2
REMARK                            x       y       z     vdW  Elec       q    Type
REMARK                         _______ _______ _______ _____ _____    ______ ____
ROOT
ATOM      1  C   UNL     1       5.157   3.599  16.312  0.00  0.00    +0.000 C 
ATOM      2  C   UNL     1       4.133   4.220  17.191  0.00  0.00    +0.000 A 
ATOM      3  C   UNL     1       3.927   5.558  17.429  0.00  0.00    +0.000 A 
ATOM      4  N   UNL     1       2.890   5.683  18.295  0.00  0.00    +0.000 N 
ATOM      5  C   UNL     1       2.354   4.492  18.643  0.00  0.00    +0.000 A 
ATOM      6  C   UNL     1       1.286   4.162  19.482  0.00  0.00    +0.000 A 
ATOM      7  C   UNL     1       0.972   2.808  19.623  0.00  0.00    +0.000 A 
ATOM      8  C   UNL     1       1.700   1.828  18.954  0.00  0.00    +0.000 A 
ATOM      9  C   UNL     1       2.773   2.173  18.121  0.00  0.00    +0.000 A 
ATOM     10  C   UNL     1       3.116   3.532  17.957  0.00  0.00    +0.000 A 
ATOM     11  C   UNL     1       2.614   7.064  18.638  0.00  0.00    +0.000 C 
ATOM     12  C   UNL     1       3.445   7.863  17.615  0.00  0.00    +0.000 C 
ATOM     13  C   UNL     1       4.431   6.840  17.050  0.00  0.00    +0.000 C 
ATOM     14  O   UNL     1       5.407   7.098  16.369  0.00  0.00    +0.000 OA
ENDROOT
TORSDOF 0
ENDMDL
MODEL 9
REMARK VINA RESULT:      -6.3      2.934      5.026
REMARK  Name = 
REMARK  1 active torsions:
REMARK  status: ('A' for Active; 'I' for Inactive)
REMARK    1  A    between atoms: C_1  and  C_2
REMARK                            x       y       z     vdW  Elec       q    Type
REMARK                         _______ _______ _______ _____ _____    ______ ____
ROOT
ATOM      1  C   UNL     1       4.804   3.622  15.305  0.00  0.00    +0.000 C 
ATOM      2  C   UNL     1       4.803   4.103  16.710  0.00  0.00    +0.000 A 
ATOM      3  C   UNL     1       5.868   4.575  17.439  0.00  0.00    +0.000 A 
ATOM      4  N   UNL     1       5.424   4.907  18.679  0.00  0.00    +0.000 N 
ATOM      5  C   UNL     1       4.095   4.711  18.826  0.00  0.00    +0.000 A 
ATOM      6  C   UNL     1       3.237   4.928  19.909  0.00  0.00    +0.000 A 
ATOM      7  C   UNL     1       1.885   4.627  19.729  0.00  0.00    +0.000 A 
ATOM      8  C   UNL     1       1.414   4.128  18.517  0.00  0.00    +0.000 A 
ATOM      9  C   UNL     1       2.287   3.909  17.443  0.00  0.00    +0.000 A 
ATOM     10  C   UNL     1       3.659   4.202  17.592  0.00  0.00    +0.000 A 
ATOM     11  C   UNL     1       6.486   5.387  19.540  0.00  0.00    +0.000 C 
ATOM     12  C   UNL     1       7.664   5.611  18.573  0.00  0.00    +0.000 C 
ATOM     13  C   UNL     1       7.265   4.844  17.311  0.00  0.00    +0.000 C 
ATOM     14  O   UNL     1       8.003   4.583  16.378  0.00  0.00    +0.000 OA
ENDROOT
TORSDOF 0
ENDMDL
