MODEL 1
REMARK VINA RESULT:      -7.5      0.000      0.000
REMARK  Name = 
REMARK  15 active torsions:
REMARK  status: ('A' for Active; 'I' for Inactive)
REMARK    1  A    between atoms: C_1  and  C_2
REMARK    2  A    between atoms: C_2  and  O_3
REMARK    3  A    between atoms: O_3  and  C_4
REMARK    4  A    between atoms: C_4  and  C_6
REMARK    5  A    between atoms: C_9  and  N_10
REMARK    6  A    between atoms: C_11  and  C_13
REMARK    7  A    between atoms: C_17  and  C_18
REMARK    8  A    between atoms: N_20  and  C_21
REMARK    9  A    between atoms: C_21  and  C_22
REMARK   10  A    between atoms: C_21  and  C_23
REMARK   11  A    between atoms: C_23  and  O_25
REMARK   12  A    between atoms: O_25  and  C_26
REMARK   13  A    between atoms: C_26  and  C_27
REMARK   14  A    between atoms: C_26  and  C_28
REMARK   15  A    between atoms: C_26  and  C_29
REMARK                            x       y       z     vdW  Elec       q    Type
REMARK                         _______ _______ _______ _____ _____    ______ ____
ROOT
ATOM      1  C   UNL     1       2.904   3.729  20.112  0.00  0.00    +0.000 A 
ATOM      2  N   UNL     1       3.241   2.962  21.207  0.00  0.00    +0.000 N 
ATOM      3  C   UNL     1       4.076   1.970  20.803  0.00  0.00    +0.000 A 
ATOM      4  N   UNL     1       4.319   2.058  19.522  0.00  0.00    +0.000 NA
ATOM      5  C   UNL     1       3.632   3.179  19.053  0.00  0.00    +0.000 A 
ATOM      6  H   UNL     1       2.968   3.138  22.164  0.00  0.00    +0.000 HD
ENDROOT
BRANCH   1   8
ATOM      7  N   UNL     1       2.709   6.107  19.994  0.00  0.00    +0.000 N 
ATOM      8  C   UNL     1       2.059   4.893  20.170  0.00  0.00    +0.000 C 
ATOM      9  O   UNL     1       0.853   4.771  20.354  0.00  0.00    +0.000 OA
ATOM     10  H   UNL     1       3.719   6.114  20.023  0.00  0.00    +0.000 HD
BRANCH   7  14
ATOM     11  C   UNL     1       0.786   9.865  19.717  0.00  0.00    +0.000 A 
ATOM     12  C   UNL     1       1.401   9.308  18.595  0.00  0.00    +0.000 A 
ATOM     13  C   UNL     1       2.062   8.092  18.690  0.00  0.00    +0.000 A 
ATOM     14  C   UNL     1       2.085   7.369  19.882  0.00  0.00    +0.000 A 
ATOM     15  C   UNL     1       1.469   7.924  21.011  0.00  0.00    +0.000 A 
ATOM     16  C   UNL     1       0.823   9.166  20.933  0.00  0.00    +0.000 A 
BRANCH  11  17
ATOM     17  C   UNL     1       0.013  11.121  19.595  0.00  0.00    +0.000 C 
ATOM     18  O   UNL     1      -1.162  11.176  19.283  0.00  0.00    +0.000 OA
BRANCH  17  19
ATOM     19  O   UNL     1       0.856  12.167  19.790  0.00  0.00    +0.000 OA
BRANCH  19  21
ATOM     20  C   UNL     1       2.411  12.931  18.157  0.00  0.00    +0.000 C 
ATOM     21  C   UNL     1       0.999  13.079  18.696  0.00  0.00    +0.000 C 
ENDBRANCH  19  21
ENDBRANCH  17  19
ENDBRANCH  11  17
ENDBRANCH   7  14
ENDBRANCH   1   8
BRANCH   5  22
ATOM     22  C   UNL     1       3.752   3.578  17.623  0.00  0.00    +0.000 C 
ATOM     23  O   UNL     1       2.815   3.443  16.838  0.00  0.00    +0.000 OA
ATOM     24  N   UNL     1       4.956   4.098  17.200  0.00  0.00    +0.000 N 
ATOM     25  H   UNL     1       5.739   4.161  17.847  0.00  0.00    +0.000 HD
BRANCH  24  26
ATOM     26  C   UNL     1       5.208   4.525  15.826  0.00  0.00    +0.000 C 
ATOM     27  C   UNL     1       6.227   3.610  15.148  0.00  0.00    +0.000 C 
BRANCH  26  28
ATOM     28  C   UNL     1       5.721   5.967  15.701  0.00  0.00    +0.000 C 
ATOM     29  O   UNL     1       5.109   6.822  15.072  0.00  0.00    +0.000 OA
BRANCH  28  30
ATOM     30  O   UNL     1       6.927   6.161  16.307  0.00  0.00    +0.000 OA
BRANCH  30  31
ATOM     31  C   UNL     1       6.974   6.799  17.612  0.00  0.00    +0.000 C 
ATOM     32  C   UNL     1       7.677   5.905  18.638  0.00  0.00    +0.000 C 
ATOM     33  C   UNL     1       7.819   8.069  17.451  0.00  0.00    +0.000 C 
ATOM     34  C   UNL     1       5.573   7.239  18.059  0.00  0.00    +0.000 C 
ENDBRANCH  30  31
ENDBRANCH  28  30
ENDBRANCH  26  28
ENDBRANCH  24  26
ENDBRANCH   5  22
TORSDOF 10
ENDMDL
MODEL 2
REMARK VINA RESULT:      -7.4      1.158      1.924
REMARK  Name = 
REMARK  15 active torsions:
REMARK  status: ('A' for Active; 'I' for Inactive)
REMARK    1  A    between atoms: C_1  and  C_2
REMARK    2  A    between atoms: C_2  and  O_3
REMARK    3  A    between atoms: O_3  and  C_4
REMARK    4  A    between atoms: C_4  and  C_6
REMARK    5  A    between atoms: C_9  and  N_10
REMARK    6  A    between atoms: C_11  and  C_13
REMARK    7  A    between atoms: C_17  and  C_18
REMARK    8  A    between atoms: N_20  and  C_21
REMARK    9  A    between atoms: C_21  and  C_22
REMARK   10  A    between atoms: C_21  and  C_23
REMARK   11  A    between atoms: C_23  and  O_25
REMARK   12  A    between atoms: O_25  and  C_26
REMARK   13  A    between atoms: C_26  and  C_27
REMARK   14  A    between atoms: C_26  and  C_28
REMARK   15  A    between atoms: C_26  and  C_29
REMARK                            x       y       z     vdW  Elec       q    Type
REMARK                         _______ _______ _______ _____ _____    ______ ____
ROOT
ATOM      1  C   UNL     1       2.683   3.972  20.279  0.00  0.00    +0.000 A 
ATOM      2  N   UNL     1       2.745   2.985  21.241  0.00  0.00    +0.000 N 
ATOM      3  C   UNL     1       3.675   2.069  20.865  0.00  0.00    +0.000 A 
ATOM      4  N   UNL     1       4.235   2.410  19.735  0.00  0.00    +0.000 NA
ATOM      5  C   UNL     1       3.669   3.627  19.350  0.00  0.00    +0.000 A 
ATOM      6  H   UNL     1       2.233   2.970  22.113  0.00  0.00    +0.000 HD
ENDROOT
BRANCH   1   8
ATOM      7  N   UNL     1       2.471   6.350  20.234  0.00  0.00    +0.000 N 
ATOM      8  C   UNL     1       1.828   5.127  20.361  0.00  0.00    +0.000 C 
ATOM      9  O   UNL     1       0.621   4.991  20.523  0.00  0.00    +0.000 OA
ATOM     10  H   UNL     1       3.481   6.365  20.278  0.00  0.00    +0.000 HD
BRANCH   7  14
ATOM     11  C   UNL     1       0.634  10.149  19.930  0.00  0.00    +0.000 A 
ATOM     12  C   UNL     1       0.637   9.467  21.148  0.00  0.00    +0.000 A 
ATOM     13  C   UNL     1       1.208   8.206  21.243  0.00  0.00    +0.000 A 
ATOM     14  C   UNL     1       1.839   7.611  20.152  0.00  0.00    +0.000 A 
ATOM     15  C   UNL     1       1.840   8.292  18.927  0.00  0.00    +0.000 A 
ATOM     16  C   UNL     1       1.239   9.554  18.814  0.00  0.00    +0.000 A 
BRANCH  11  17
ATOM     17  C   UNL     1       0.097  11.526  19.850  0.00  0.00    +0.000 C 
ATOM     18  O   UNL     1       0.708  12.475  19.397  0.00  0.00    +0.000 OA
BRANCH  17  19
ATOM     19  O   UNL     1      -1.121  11.549  20.448  0.00  0.00    +0.000 OA
BRANCH  19  21
ATOM     20  C   UNL     1      -3.035  12.953  20.636  0.00  0.00    +0.000 C 
ATOM     21  C   UNL     1      -2.191  12.119  19.688  0.00  0.00    +0.000 C 
ENDBRANCH  19  21
ENDBRANCH  17  19
ENDBRANCH  11  17
ENDBRANCH   7  14
ENDBRANCH   1   8
BRANCH   5  22
ATOM     22  C   UNL     1       4.142   4.307  18.112  0.00  0.00    +0.000 C 
ATOM     23  O   UNL     1       3.529   5.257  17.628  0.00  0.00    +0.000 OA
ATOM     24  N   UNL     1       5.288   3.831  17.516  0.00  0.00    +0.000 N 
ATOM     25  H   UNL     1       5.761   3.015  17.899  0.00  0.00    +0.000 HD
BRANCH  24  26
ATOM     26  C   UNL     1       5.858   4.402  16.299  0.00  0.00    +0.000 C 
ATOM     27  C   UNL     1       5.835   3.389  15.156  0.00  0.00    +0.000 C 
BRANCH  26  28
ATOM     28  C   UNL     1       7.304   4.896  16.454  0.00  0.00    +0.000 C 
ATOM     29  O   UNL     1       8.238   4.125  16.640  0.00  0.00    +0.000 OA
BRANCH  28  30
ATOM     30  O   UNL     1       7.412   6.256  16.419  0.00  0.00    +0.000 OA
BRANCH  30  31
ATOM     31  C   UNL     1       7.199   7.018  17.638  0.00  0.00    +0.000 C 
ATOM     32  C   UNL     1       7.655   6.229  18.870  0.00  0.00    +0.000 C 
ATOM     33  C   UNL     1       8.085   8.267  17.537  0.00  0.00    +0.000 C 
ATOM     34  C   UNL     1       5.745   7.500  17.739  0.00  0.00    +0.000 C 
ENDBRANCH  30  31
ENDBRANCH  28  30
ENDBRANCH  26  28
ENDBRANCH  24  26
ENDBRANCH   5  22
TORSDOF 10
ENDMDL
MODEL 3
REMARK VINA RESULT:      -7.4      1.499      2.762
REMARK  Name = 
REMARK  15 active torsions:
REMARK  status: ('A' for Active; 'I' for Inactive)
REMARK    1  A    between atoms: C_1  and  C_2
REMARK    2  A    between atoms: C_2  and  O_3
REMARK    3  A    between atoms: O_3  and  C_4
REMARK    4  A    between atoms: C_4  and  C_6
REMARK    5  A    between atoms: C_9  and  N_10
REMARK    6  A    between atoms: C_11  and  C_13
REMARK    7  A    between atoms: C_17  and  C_18
REMARK    8  A    between atoms: N_20  and  C_21
REMARK    9  A    between atoms: C_21  and  C_22
REMARK   10  A    between atoms: C_21  and  C_23
REMARK   11  A    between atoms: C_23  and  O_25
REMARK   12  A    between atoms: O_25  and  C_26
REMARK   13  A    between atoms: C_26  and  C_27
REMARK   14  A    between atoms: C_26  and  C_28
REMARK   15  A    between atoms: C_26  and  C_29
REMARK                            x       y       z     vdW  Elec       q    Type
REMARK                         _______ _______ _______ _____ _____    ______ ____
ROOT
ATOM      1  C   UNL     1       3.118   3.868  19.754  0.00  0.00    +0.000 A 
ATOM      2  N   UNL     1       2.713   2.673  20.310  0.00  0.00    +0.000 N 
ATOM      3  C   UNL     1       3.797   1.867  20.449  0.00  0.00    +0.000 A 
ATOM      4  N   UNL     1       4.881   2.470  20.040  0.00  0.00    +0.000 NA
ATOM      5  C   UNL     1       4.506   3.751  19.631  0.00  0.00    +0.000 A 
ATOM      6  H   UNL     1       1.778   2.449  20.624  0.00  0.00    +0.000 HD
ENDROOT
BRANCH   1   8
ATOM      7  N   UNL     1       2.669   6.202  19.986  0.00  0.00    +0.000 N 
ATOM      8  C   UNL     1       2.240   4.977  19.492  0.00  0.00    +0.000 C 
ATOM      9  O   UNL     1       1.201   4.807  18.865  0.00  0.00    +0.000 OA
ATOM     10  H   UNL     1       3.445   6.209  20.634  0.00  0.00    +0.000 HD
BRANCH   7  14
ATOM     11  C   UNL     1       0.758   9.920  19.334  0.00  0.00    +0.000 A 
ATOM     12  C   UNL     1       1.479   9.312  18.304  0.00  0.00    +0.000 A 
ATOM     13  C   UNL     1       2.136   8.110  18.525  0.00  0.00    +0.000 A 
ATOM     14  C   UNL     1       2.051   7.450  19.750  0.00  0.00    +0.000 A 
ATOM     15  C   UNL     1       1.327   8.056  20.786  0.00  0.00    +0.000 A 
ATOM     16  C   UNL     1       0.685   9.285  20.582  0.00  0.00    +0.000 A 
BRANCH  11  17
ATOM     17  C   UNL     1      -0.008  11.159  19.074  0.00  0.00    +0.000 C 
ATOM     18  O   UNL     1       0.074  12.170  19.746  0.00  0.00    +0.000 OA
BRANCH  17  19
ATOM     19  O   UNL     1      -0.864  10.930  18.045  0.00  0.00    +0.000 OA
BRANCH  19  21
ATOM     20  C   UNL     1      -2.907   9.806  17.566  0.00  0.00    +0.000 C 
ATOM     21  C   UNL     1      -2.257  10.919  18.370  0.00  0.00    +0.000 C 
ENDBRANCH  19  21
ENDBRANCH  17  19
ENDBRANCH  11  17
ENDBRANCH   7  14
ENDBRANCH   1   8
BRANCH   5  22
ATOM     22  C   UNL     1       5.541   4.710  19.153  0.00  0.00    +0.000 C 
ATOM     23  O   UNL     1       5.379   5.926  19.244  0.00  0.00    +0.000 OA
ATOM     24  N   UNL     1       6.688   4.191  18.595  0.00  0.00    +0.000 N 
ATOM     25  H   UNL     1       6.791   3.185  18.483  0.00  0.00    +0.000 HD
BRANCH  24  26
ATOM     26  C   UNL     1       7.778   5.018  18.084  0.00  0.00    +0.000 C 
ATOM     27  C   UNL     1       8.158   6.104  19.090  0.00  0.00    +0.000 C 
BRANCH  26  28
ATOM     28  C   UNL     1       7.470   5.708  16.748  0.00  0.00    +0.000 C 
ATOM     29  O   UNL     1       7.231   6.907  16.674  0.00  0.00    +0.000 OA
BRANCH  28  30
ATOM     30  O   UNL     1       7.440   4.843  15.693  0.00  0.00    +0.000 OA
BRANCH  30  31
ATOM     31  C   UNL     1       6.171   4.556  15.044  0.00  0.00    +0.000 C 
ATOM     32  C   UNL     1       5.246   5.776  15.078  0.00  0.00    +0.000 C 
ATOM     33  C   UNL     1       6.488   4.259  13.573  0.00  0.00    +0.000 C 
ATOM     34  C   UNL     1       5.525   3.295  15.634  0.00  0.00    +0.000 C 
ENDBRANCH  30  31
ENDBRANCH  28  30
ENDBRANCH  26  28
ENDBRANCH  24  26
ENDBRANCH   5  22
TORSDOF 10
ENDMDL
MODEL 4
REMARK VINA RESULT:      -7.0      1.351      2.057
REMARK  Name = 
REMARK  15 active torsions:
REMARK  status: ('A' for Active; 'I' for Inactive)
REMARK    1  A    between atoms: C_1  and  C_2
REMARK    2  A    between atoms: C_2  and  O_3
REMARK    3  A    between atoms: O_3  and  C_4
REMARK    4  A    between atoms: C_4  and  C_6
REMARK    5  A    between atoms: C_9  and  N_10
REMARK    6  A    between atoms: C_11  and  C_13
REMARK    7  A    between atoms: C_17  and  C_18
REMARK    8  A    between atoms: N_20  and  C_21
REMARK    9  A    between atoms: C_21  and  C_22
REMARK   10  A    between atoms: C_21  and  C_23
REMARK   11  A    between atoms: C_23  and  O_25
REMARK   12  A    between atoms: O_25  and  C_26
REMARK   13  A    between atoms: C_26  and  C_27
REMARK   14  A    between atoms: C_26  and  C_28
REMARK   15  A    between atoms: C_26  and  C_29
REMARK                            x       y       z     vdW  Elec       q    Type
REMARK                         _______ _______ _______ _____ _____    ______ ____
ROOT
ATOM      1  C   UNL     1       2.548   3.752  19.351  0.00  0.00    +0.000 A 
ATOM      2  N   UNL     1       2.171   2.521  19.847  0.00  0.00    +0.000 N 
ATOM      3  C   UNL     1       2.657   1.554  19.026  0.00  0.00    +0.000 A 
ATOM      4  N   UNL     1       3.342   2.077  18.044  0.00  0.00    +0.000 NA
ATOM      5  C   UNL     1       3.335   3.460  18.233  0.00  0.00    +0.000 A 
ATOM      6  H   UNL     1       1.671   2.354  20.710  0.00  0.00    +0.000 HD
ENDROOT
BRANCH   1   8
ATOM      7  N   UNL     1       2.211   6.107  19.136  0.00  0.00    +0.000 N 
ATOM      8  C   UNL     1       2.238   5.007  19.983  0.00  0.00    +0.000 C 
ATOM      9  O   UNL     1       2.010   5.053  21.187  0.00  0.00    +0.000 OA
ATOM     10  H   UNL     1       2.580   5.997  18.202  0.00  0.00    +0.000 HD
BRANCH   7  14
ATOM     11  C   UNL     1       1.062  10.052  20.143  0.00  0.00    +0.000 A 
ATOM     12  C   UNL     1       1.053   9.050  21.115  0.00  0.00    +0.000 A 
ATOM     13  C   UNL     1       1.397   7.747  20.780  0.00  0.00    +0.000 A 
ATOM     14  C   UNL     1       1.810   7.414  19.491  0.00  0.00    +0.000 A 
ATOM     15  C   UNL     1       1.821   8.417  18.513  0.00  0.00    +0.000 A 
ATOM     16  C   UNL     1       1.448   9.730  18.834  0.00  0.00    +0.000 A 
BRANCH  11  17
ATOM     17  C   UNL     1       0.774  11.454  20.518  0.00  0.00    +0.000 C 
ATOM     18  O   UNL     1       1.129  11.972  21.560  0.00  0.00    +0.000 OA
BRANCH  17  19
ATOM     19  O   UNL     1      -0.018  12.003  19.562  0.00  0.00    +0.000 OA
BRANCH  19  21
ATOM     20  C   UNL     1      -1.994  11.531  18.321  0.00  0.00    +0.000 C 
ATOM     21  C   UNL     1      -1.426  11.789  19.706  0.00  0.00    +0.000 C 
ENDBRANCH  19  21
ENDBRANCH  17  19
ENDBRANCH  11  17
ENDBRANCH   7  14
ENDBRANCH   1   8
BRANCH   5  22
ATOM     22  C   UNL     1       4.083   4.341  17.294  0.00  0.00    +0.000 C 
ATOM     23  O   UNL     1       3.727   5.498  17.078  0.00  0.00    +0.000 OA
ATOM     24  N   UNL     1       5.188   3.815  16.662  0.00  0.00    +0.000 N 
ATOM     25  H   UNL     1       5.446   2.843  16.812  0.00  0.00    +0.000 HD
BRANCH  24  26
ATOM     26  C   UNL     1       6.007   4.568  15.716  0.00  0.00    +0.000 C 
ATOM     27  C   UNL     1       6.268   3.754  14.450  0.00  0.00    +0.000 C 
BRANCH  26  28
ATOM     28  C   UNL     1       7.367   5.009  16.276  0.00  0.00    +0.000 C 
ATOM     29  O   UNL     1       8.196   4.202  16.682  0.00  0.00    +0.000 OA
BRANCH  28  30
ATOM     30  O   UNL     1       7.516   6.364  16.318  0.00  0.00    +0.000 OA
BRANCH  30  31
ATOM     31  C   UNL     1       7.274   7.068  17.567  0.00  0.00    +0.000 C 
ATOM     32  C   UNL     1       8.139   8.329  17.665  0.00  0.00    +0.000 C 
ATOM     33  C   UNL     1       5.807   7.515  17.544  0.00  0.00    +0.000 C 
ATOM     34  C   UNL     1       7.444   6.129  18.769  0.00  0.00    +0.000 C 
ENDBRANCH  30  31
ENDBRANCH  28  30
ENDBRANCH  26  28
ENDBRANCH  24  26
ENDBRANCH   5  22
TORSDOF 10
ENDMDL
MODEL 5
REMARK VINA RESULT:      -6.9      0.689      1.339
REMARK  Name = 
REMARK  15 active torsions:
REMARK  status: ('A' for Active; 'I' for Inactive)
REMARK    1  A    between atoms: C_1  and  C_2
REMARK    2  A    between atoms: C_2  and  O_3
REMARK    3  A    between atoms: O_3  and  C_4
REMARK    4  A    between atoms: C_4  and  C_6
REMARK    5  A    between atoms: C_9  and  N_10
REMARK    6  A    between atoms: C_11  and  C_13
REMARK    7  A    between atoms: C_17  and  C_18
REMARK    8  A    between atoms: N_20  and  C_21
REMARK    9  A    between atoms: C_21  and  C_22
REMARK   10  A    between atoms: C_21  and  C_23
REMARK   11  A    between atoms: C_23  and  O_25
REMARK   12  A    between atoms: O_25  and  C_26
REMARK   13  A    between atoms: C_26  and  C_27
REMARK   14  A    between atoms: C_26  and  C_28
REMARK   15  A    between atoms: C_26  and  C_29
REMARK                            x       y       z     vdW  Elec       q    Type
REMARK                         _______ _______ _______ _____ _____    ______ ____
ROOT
ATOM      1  C   UNL     1       2.978   3.624  20.047  0.00  0.00    +0.000 A 
ATOM      2  N   UNL     1       3.241   2.782  21.107  0.00  0.00    +0.000 N 
ATOM      3  C   UNL     1       4.105   1.819  20.694  0.00  0.00    +0.000 A 
ATOM      4  N   UNL     1       4.435   1.995  19.442  0.00  0.00    +0.000 NA
ATOM      5  C   UNL     1       3.779   3.147  19.006  0.00  0.00    +0.000 A 
ATOM      6  H   UNL     1       2.903   2.892  22.054  0.00  0.00    +0.000 HD
ENDROOT
BRANCH   1   8
ATOM      7  N   UNL     1       2.765   6.000  19.931  0.00  0.00    +0.000 N 
ATOM      8  C   UNL     1       2.127   4.782  20.128  0.00  0.00    +0.000 C 
ATOM      9  O   UNL     1       0.928   4.654  20.346  0.00  0.00    +0.000 OA
ATOM     10  H   UNL     1       3.775   6.014  19.931  0.00  0.00    +0.000 HD
BRANCH   7  14
ATOM     11  C   UNL     1       0.923   9.793  19.589  0.00  0.00    +0.000 A 
ATOM     12  C   UNL     1       0.845   9.082  20.787  0.00  0.00    +0.000 A 
ATOM     13  C   UNL     1       1.418   7.823  20.892  0.00  0.00    +0.000 A 
ATOM     14  C   UNL     1       2.130   7.259  19.835  0.00  0.00    +0.000 A 
ATOM     15  C   UNL     1       2.212   7.969  18.630  0.00  0.00    +0.000 A 
ATOM     16  C   UNL     1       1.611   9.230  18.504  0.00  0.00    +0.000 A 
BRANCH  11  17
ATOM     17  C   UNL     1       0.382  11.168  19.504  0.00  0.00    +0.000 C 
ATOM     18  O   UNL     1      -0.804  11.441  19.512  0.00  0.00    +0.000 OA
BRANCH  17  19
ATOM     19  O   UNL     1       1.416  12.028  19.318  0.00  0.00    +0.000 OA
BRANCH  19  21
ATOM     20  C   UNL     1       2.454  13.840  18.176  0.00  0.00    +0.000 C 
ATOM     21  C   UNL     1       1.129  13.214  18.571  0.00  0.00    +0.000 C 
ENDBRANCH  19  21
ENDBRANCH  17  19
ENDBRANCH  11  17
ENDBRANCH   7  14
ENDBRANCH   1   8
BRANCH   5  22
ATOM     22  C   UNL     1       3.996   3.644  17.618  0.00  0.00    +0.000 C 
ATOM     23  O   UNL     1       3.052   3.862  16.860  0.00  0.00    +0.000 OA
ATOM     24  N   UNL     1       5.294   3.845  17.203  0.00  0.00    +0.000 N 
ATOM     25  H   UNL     1       6.068   3.617  17.823  0.00  0.00    +0.000 HD
BRANCH  24  26
ATOM     26  C   UNL     1       5.646   4.325  15.870  0.00  0.00    +0.000 C 
ATOM     27  C   UNL     1       5.843   3.159  14.903  0.00  0.00    +0.000 C 
BRANCH  26  28
ATOM     28  C   UNL     1       6.917   5.185  15.828  0.00  0.00    +0.000 C 
ATOM     29  O   UNL     1       7.343   5.665  14.784  0.00  0.00    +0.000 OA
BRANCH  28  30
ATOM     30  O   UNL     1       7.527   5.300  17.043  0.00  0.00    +0.000 OA
BRANCH  30  31
ATOM     31  C   UNL     1       7.252   6.463  17.870  0.00  0.00    +0.000 C 
ATOM     32  C   UNL     1       5.747   6.730  17.965  0.00  0.00    +0.000 C 
ATOM     33  C   UNL     1       7.751   6.127  19.282  0.00  0.00    +0.000 C 
ATOM     34  C   UNL     1       8.049   7.682  17.385  0.00  0.00    +0.000 C 
ENDBRANCH  30  31
ENDBRANCH  28  30
ENDBRANCH  26  28
ENDBRANCH  24  26
ENDBRANCH   5  22
TORSDOF 10
ENDMDL
MODEL 6
REMARK VINA RESULT:      -6.9      1.312      2.522
REMARK  Name = 
REMARK  15 active torsions:
REMARK  status: ('A' for Active; 'I' for Inactive)
REMARK    1  A    between atoms: C_1  and  C_2
REMARK    2  A    between atoms: C_2  and  O_3
REMARK    3  A    between atoms: O_3  and  C_4
REMARK    4  A    between atoms: C_4  and  C_6
REMARK    5  A    between atoms: C_9  and  N_10
REMARK    6  A    between atoms: C_11  and  C_13
REMARK    7  A    between atoms: C_17  and  C_18
REMARK    8  A    between atoms: N_20  and  C_21
REMARK    9  A    between atoms: C_21  and  C_22
REMARK   10  A    between atoms: C_21  and  C_23
REMARK   11  A    between atoms: C_23  and  O_25
REMARK   12  A    between atoms: O_25  and  C_26
REMARK   13  A    between atoms: C_26  and  C_27
REMARK   14  A    between atoms: C_26  and  C_28
REMARK   15  A    between atoms: C_26  and  C_29
REMARK                            x       y       z     vdW  Elec       q    Type
REMARK                         _______ _______ _______ _____ _____    ______ ____
ROOT
ATOM      1  C   UNL     1       3.120   3.828  19.668  0.00  0.00    +0.000 A 
ATOM      2  N   UNL     1       2.677   2.608  20.133  0.00  0.00    +0.000 N 
ATOM      3  C   UNL     1       3.748   1.789  20.295  0.00  0.00    +0.000 A 
ATOM      4  N   UNL     1       4.857   2.405  19.986  0.00  0.00    +0.000 NA
ATOM      5  C   UNL     1       4.512   3.709  19.625  0.00  0.00    +0.000 A 
ATOM      6  H   UNL     1       1.723   2.374  20.376  0.00  0.00    +0.000 HD
ENDROOT
BRANCH   1   8
ATOM      7  N   UNL     1       2.708   6.166  19.927  0.00  0.00    +0.000 N 
ATOM      8  C   UNL     1       2.263   4.956  19.413  0.00  0.00    +0.000 C 
ATOM      9  O   UNL     1       1.227   4.812  18.773  0.00  0.00    +0.000 OA
ATOM     10  H   UNL     1       3.477   6.152  20.583  0.00  0.00    +0.000 HD
BRANCH   7  14
ATOM     11  C   UNL     1       0.987   9.962  19.199  0.00  0.00    +0.000 A 
ATOM     12  C   UNL     1       0.857   9.362  20.453  0.00  0.00    +0.000 A 
ATOM     13  C   UNL     1       1.390   8.102  20.685  0.00  0.00    +0.000 A 
ATOM     14  C   UNL     1       2.113   7.428  19.702  0.00  0.00    +0.000 A 
ATOM     15  C   UNL     1       2.248   8.027  18.443  0.00  0.00    +0.000 A 
ATOM     16  C   UNL     1       1.688   9.287  18.189  0.00  0.00    +0.000 A 
BRANCH  11  17
ATOM     17  C   UNL     1       0.490  11.338  18.978  0.00  0.00    +0.000 C 
ATOM     18  O   UNL     1      -0.558  11.608  18.420  0.00  0.00    +0.000 OA
BRANCH  17  19
ATOM     19  O   UNL     1       1.435  12.213  19.407  0.00  0.00    +0.000 OA
BRANCH  19  21
ATOM     20  C   UNL     1       1.688  14.464  18.675  0.00  0.00    +0.000 C 
ATOM     21  C   UNL     1       2.058  13.017  18.401  0.00  0.00    +0.000 C 
ENDBRANCH  19  21
ENDBRANCH  17  19
ENDBRANCH  11  17
ENDBRANCH   7  14
ENDBRANCH   1   8
BRANCH   5  22
ATOM     22  C   UNL     1       5.578   4.685  19.264  0.00  0.00    +0.000 C 
ATOM     23  O   UNL     1       5.529   5.855  19.639  0.00  0.00    +0.000 OA
ATOM     24  N   UNL     1       6.621   4.238  18.484  0.00  0.00    +0.000 N 
ATOM     25  H   UNL     1       6.627   3.280  18.141  0.00  0.00    +0.000 HD
BRANCH  24  26
ATOM     26  C   UNL     1       7.727   5.090  18.056  0.00  0.00    +0.000 C 
ATOM     27  C   UNL     1       8.205   5.982  19.201  0.00  0.00    +0.000 C 
BRANCH  26  28
ATOM     28  C   UNL     1       7.395   6.000  16.865  0.00  0.00    +0.000 C 
ATOM     29  O   UNL     1       6.909   7.115  17.014  0.00  0.00    +0.000 OA
BRANCH  28  30
ATOM     30  O   UNL     1       7.644   5.415  15.658  0.00  0.00    +0.000 OA
BRANCH  30  31
ATOM     31  C   UNL     1       6.534   4.899  14.874  0.00  0.00    +0.000 C 
ATOM     32  C   UNL     1       6.037   3.563  15.434  0.00  0.00    +0.000 C 
ATOM     33  C   UNL     1       5.390   5.912  15.012  0.00  0.00    +0.000 C 
ATOM     34  C   UNL     1       6.900   4.827  13.385  0.00  0.00    +0.000 C 
ENDBRANCH  30  31
ENDBRANCH  28  30
ENDBRANCH  26  28
ENDBRANCH  24  26
ENDBRANCH   5  22
TORSDOF 10
ENDMDL
MODEL 7
REMARK VINA RESULT:      -6.9      1.004      1.477
REMARK  Name = 
REMARK  15 active torsions:
REMARK  status: ('A' for Active; 'I' for Inactive)
REMARK    1  A    between atoms: C_1  and  C_2
REMARK    2  A    between atoms: C_2  and  O_3
REMARK    3  A    between atoms: O_3  and  C_4
REMARK    4  A    between atoms: C_4  and  C_6
REMARK    5  A    between atoms: C_9  and  N_10
REMARK    6  A    between atoms: C_11  and  C_13
REMARK    7  A    between atoms: C_17  and  C_18
REMARK    8  A    between atoms: N_20  and  C_21
REMARK    9  A    between atoms: C_21  and  C_22
REMARK   10  A    between atoms: C_21  and  C_23
REMARK   11  A    between atoms: C_23  and  O_25
REMARK   12  A    between atoms: O_25  and  C_26
REMARK   13  A    between atoms: C_26  and  C_27
REMARK   14  A    between atoms: C_26  and  C_28
REMARK   15  A    between atoms: C_26  and  C_29
REMARK                            x       y       z     vdW  Elec       q    Type
REMARK                         _______ _______ _______ _____ _____    ______ ____
ROOT
ATOM      1  C   UNL     1       2.972   3.701  20.011  0.00  0.00    +0.000 A 
ATOM      2  N   UNL     1       3.207   2.885  21.098  0.00  0.00    +0.000 N 
ATOM      3  C   UNL     1       4.049   1.888  20.720  0.00  0.00    +0.000 A 
ATOM      4  N   UNL     1       4.392   2.018  19.466  0.00  0.00    +0.000 NA
ATOM      5  C   UNL     1       3.768   3.173  18.990  0.00  0.00    +0.000 A 
ATOM      6  H   UNL     1       2.865   3.032  22.038  0.00  0.00    +0.000 HD
ENDROOT
BRANCH   1   8
ATOM      7  N   UNL     1       2.814   6.074  19.790  0.00  0.00    +0.000 N 
ATOM      8  C   UNL     1       2.151   4.882  20.049  0.00  0.00    +0.000 C 
ATOM      9  O   UNL     1       0.952   4.792  20.288  0.00  0.00    +0.000 OA
ATOM     10  H   UNL     1       3.824   6.063  19.777  0.00  0.00    +0.000 HD
BRANCH   7  14
ATOM     11  C   UNL     1       0.944   9.850  19.415  0.00  0.00    +0.000 A 
ATOM     12  C   UNL     1       1.574   9.267  18.314  0.00  0.00    +0.000 A 
ATOM     13  C   UNL     1       2.218   8.045  18.442  0.00  0.00    +0.000 A 
ATOM     14  C   UNL     1       2.208   7.342  19.646  0.00  0.00    +0.000 A 
ATOM     15  C   UNL     1       1.576   7.922  20.753  0.00  0.00    +0.000 A 
ATOM     16  C   UNL     1       0.947   9.170  20.642  0.00  0.00    +0.000 A 
BRANCH  11  17
ATOM     17  C   UNL     1       0.188  11.113  19.257  0.00  0.00    +0.000 C 
ATOM     18  O   UNL     1       0.697  12.190  19.007  0.00  0.00    +0.000 OA
BRANCH  17  19
ATOM     19  O   UNL     1      -1.118  10.872  19.535  0.00  0.00    +0.000 OA
BRANCH  19  21
ATOM     20  C   UNL     1      -2.379  12.449  20.796  0.00  0.00    +0.000 C 
ATOM     21  C   UNL     1      -2.011  11.981  19.399  0.00  0.00    +0.000 C 
ENDBRANCH  19  21
ENDBRANCH  17  19
ENDBRANCH  11  17
ENDBRANCH   7  14
ENDBRANCH   1   8
BRANCH   5  22
ATOM     22  C   UNL     1       4.007   3.621  17.590  0.00  0.00    +0.000 C 
ATOM     23  O   UNL     1       3.080   3.758  16.793  0.00  0.00    +0.000 OA
ATOM     24  N   UNL     1       5.306   3.871  17.208  0.00  0.00    +0.000 N 
ATOM     25  H   UNL     1       6.069   3.710  17.862  0.00  0.00    +0.000 HD
BRANCH  24  26
ATOM     26  C   UNL     1       5.679   4.313  15.867  0.00  0.00    +0.000 C 
ATOM     27  C   UNL     1       5.866   3.120  14.931  0.00  0.00    +0.000 C 
BRANCH  26  28
ATOM     28  C   UNL     1       6.965   5.150  15.816  0.00  0.00    +0.000 C 
ATOM     29  O   UNL     1       7.437   5.554  14.760  0.00  0.00    +0.000 OA
BRANCH  28  30
ATOM     30  O   UNL     1       7.532   5.336  17.043  0.00  0.00    +0.000 OA
BRANCH  30  31
ATOM     31  C   UNL     1       6.986   6.347  17.934  0.00  0.00    +0.000 C 
ATOM     32  C   UNL     1       6.626   5.746  19.296  0.00  0.00    +0.000 C 
ATOM     33  C   UNL     1       8.098   7.378  18.164  0.00  0.00    +0.000 C 
ATOM     34  C   UNL     1       5.812   7.085  17.274  0.00  0.00    +0.000 C 
ENDBRANCH  30  31
ENDBRANCH  28  30
ENDBRANCH  26  28
ENDBRANCH  24  26
ENDBRANCH   5  22
TORSDOF 10
ENDMDL
MODEL 8
REMARK VINA RESULT:      -6.9      2.010      4.931
REMARK  Name = 
REMARK  15 active torsions:
REMARK  status: ('A' for Active; 'I' for Inactive)
REMARK    1  A    between atoms: C_1  and  C_2
REMARK    2  A    between atoms: C_2  and  O_3
REMARK    3  A    between atoms: O_3  and  C_4
REMARK    4  A    between atoms: C_4  and  C_6
REMARK    5  A    between atoms: C_9  and  N_10
REMARK    6  A    between atoms: C_11  and  C_13
REMARK    7  A    between atoms: C_17  and  C_18
REMARK    8  A    between atoms: N_20  and  C_21
REMARK    9  A    between atoms: C_21  and  C_22
REMARK   10  A    between atoms: C_21  and  C_23
REMARK   11  A    between atoms: C_23  and  O_25
REMARK   12  A    between atoms: O_25  and  C_26
REMARK   13  A    between atoms: C_26  and  C_27
REMARK   14  A    between atoms: C_26  and  C_28
REMARK   15  A    between atoms: C_26  and  C_29
REMARK                            x       y       z     vdW  Elec       q    Type
REMARK                         _______ _______ _______ _____ _____    ______ ____
ROOT
ATOM      1  C   UNL     1       5.571   5.937  16.815  0.00  0.00    +0.000 A 
ATOM      2  N   UNL     1       5.961   5.776  15.502  0.00  0.00    +0.000 N 
ATOM      3  C   UNL     1       6.592   4.579  15.379  0.00  0.00    +0.000 A 
ATOM      4  N   UNL     1       6.615   3.945  16.521  0.00  0.00    +0.000 NA
ATOM      5  C   UNL     1       5.945   4.747  17.446  0.00  0.00    +0.000 A 
ATOM      6  H   UNL     1       5.761   6.409  14.739  0.00  0.00    +0.000 HD
ENDROOT
BRANCH   1   8
ATOM      7  N   UNL     1       3.523   6.832  17.656  0.00  0.00    +0.000 N 
ATOM      8  C   UNL     1       4.844   7.077  17.308  0.00  0.00    +0.000 C 
ATOM      9  O   UNL     1       5.397   8.167  17.405  0.00  0.00    +0.000 OA
ATOM     10  H   UNL     1       3.113   5.951  17.378  0.00  0.00    +0.000 HD
BRANCH   7  14
ATOM     11  C   UNL     1       0.875   9.520  19.569  0.00  0.00    +0.000 A 
ATOM     12  C   UNL     1       1.243   9.726  18.238  0.00  0.00    +0.000 A 
ATOM     13  C   UNL     1       2.138   8.866  17.618  0.00  0.00    +0.000 A 
ATOM     14  C   UNL     1       2.649   7.750  18.279  0.00  0.00    +0.000 A 
ATOM     15  C   UNL     1       2.282   7.539  19.615  0.00  0.00    +0.000 A 
ATOM     16  C   UNL     1       1.401   8.419  20.259  0.00  0.00    +0.000 A 
BRANCH  11  17
ATOM     17  C   UNL     1      -0.141  10.390  20.203  0.00  0.00    +0.000 C 
ATOM     18  O   UNL     1      -1.175  10.741  19.666  0.00  0.00    +0.000 OA
BRANCH  17  19
ATOM     19  O   UNL     1       0.329  10.791  21.412  0.00  0.00    +0.000 OA
BRANCH  19  21
ATOM     20  C   UNL     1      -1.298  11.475  23.009  0.00  0.00    +0.000 C 
ATOM     21  C   UNL     1      -0.399  10.338  22.557  0.00  0.00    +0.000 C 
ENDBRANCH  19  21
ENDBRANCH  17  19
ENDBRANCH  11  17
ENDBRANCH   7  14
ENDBRANCH   1   8
BRANCH   5  22
ATOM     22  C   UNL     1       5.759   4.270  18.845  0.00  0.00    +0.000 C 
ATOM     23  O   UNL     1       6.319   4.821  19.791  0.00  0.00    +0.000 OA
ATOM     24  N   UNL     1       4.944   3.178  19.048  0.00  0.00    +0.000 N 
ATOM     25  H   UNL     1       4.523   2.702  18.253  0.00  0.00    +0.000 HD
BRANCH  24  26
ATOM     26  C   UNL     1       4.679   2.607  20.365  0.00  0.00    +0.000 C 
ATOM     27  C   UNL     1       5.312   1.223  20.498  0.00  0.00    +0.000 C 
BRANCH  26  28
ATOM     28  C   UNL     1       3.187   2.472  20.703  0.00  0.00    +0.000 C 
ATOM     29  O   UNL     1       2.773   2.537  21.854  0.00  0.00    +0.000 OA
BRANCH  28  30
ATOM     30  O   UNL     1       2.411   2.223  19.609  0.00  0.00    +0.000 OA
BRANCH  30  31
ATOM     31  C   UNL     1       1.426   3.209  19.197  0.00  0.00    +0.000 C 
ATOM     32  C   UNL     1       1.862   3.921  17.912  0.00  0.00    +0.000 C 
ATOM     33  C   UNL     1       0.137   2.438  18.881  0.00  0.00    +0.000 C 
ATOM     34  C   UNL     1       1.106   4.180  20.342  0.00  0.00    +0.000 C 
ENDBRANCH  30  31
ENDBRANCH  28  30
ENDBRANCH  26  28
ENDBRANCH  24  26
ENDBRANCH   5  22
TORSDOF 10
ENDMDL
MODEL 9
REMARK VINA RESULT:      -6.8      1.957      4.720
REMARK  Name = 
REMARK  15 active torsions:
REMARK  status: ('A' for Active; 'I' for Inactive)
REMARK    1  A    between atoms: C_1  and  C_2
REMARK    2  A    between atoms: C_2  and  O_3
REMARK    3  A    between atoms: O_3  and  C_4
REMARK    4  A    between atoms: C_4  and  C_6
REMARK    5  A    between atoms: C_9  and  N_10
REMARK    6  A    between atoms: C_11  and  C_13
REMARK    7  A    between atoms: C_17  and  C_18
REMARK    8  A    between atoms: N_20  and  C_21
REMARK    9  A    between atoms: C_21  and  C_22
REMARK   10  A    between atoms: C_21  and  C_23
REMARK   11  A    between atoms: C_23  and  O_25
REMARK   12  A    between atoms: O_25  and  C_26
REMARK   13  A    between atoms: C_26  and  C_27
REMARK   14  A    between atoms: C_26  and  C_28
REMARK   15  A    between atoms: C_26  and  C_29
REMARK                            x       y       z     vdW  Elec       q    Type
REMARK                         _______ _______ _______ _____ _____    ______ ____
ROOT
ATOM      1  C   UNL     1       5.371   5.968  16.423  0.00  0.00    +0.000 A 
ATOM      2  N   UNL     1       5.597   5.995  15.063  0.00  0.00    +0.000 N 
ATOM      3  C   UNL     1       6.157   4.814  14.691  0.00  0.00    +0.000 A 
ATOM      4  N   UNL     1       6.288   4.018  15.718  0.00  0.00    +0.000 NA
ATOM      5  C   UNL     1       5.766   4.689  16.825  0.00  0.00    +0.000 A 
ATOM      6  H   UNL     1       5.335   6.738  14.430  0.00  0.00    +0.000 HD
ENDROOT
BRANCH   1   8
ATOM      7  N   UNL     1       3.407   6.866  17.443  0.00  0.00    +0.000 N 
ATOM      8  C   UNL     1       4.755   7.039  17.161  0.00  0.00    +0.000 C 
ATOM      9  O   UNL     1       5.416   8.013  17.504  0.00  0.00    +0.000 OA
ATOM     10  H   UNL     1       2.914   6.120  16.972  0.00  0.00    +0.000 HD
BRANCH   7  14
ATOM     11  C   UNL     1       1.020   9.324  19.925  0.00  0.00    +0.000 A 
ATOM     12  C   UNL     1       1.239   9.676  18.591  0.00  0.00    +0.000 A 
ATOM     13  C   UNL     1       2.049   8.890  17.784  0.00  0.00    +0.000 A 
ATOM     14  C   UNL     1       2.618   7.709  18.257  0.00  0.00    +0.000 A 
ATOM     15  C   UNL     1       2.401   7.352  19.595  0.00  0.00    +0.000 A 
ATOM     16  C   UNL     1       1.608   8.154  20.427  0.00  0.00    +0.000 A 
BRANCH  11  17
ATOM     17  C   UNL     1       0.092  10.118  20.761  0.00  0.00    +0.000 C 
ATOM     18  O   UNL     1      -0.579   9.659  21.666  0.00  0.00    +0.000 OA
BRANCH  17  19
ATOM     19  O   UNL     1       0.054  11.386  20.278  0.00  0.00    +0.000 OA
BRANCH  19  21
ATOM     20  C   UNL     1      -1.060  13.357  19.541  0.00  0.00    +0.000 C 
ATOM     21  C   UNL     1      -1.244  11.974  20.141  0.00  0.00    +0.000 C 
ENDBRANCH  19  21
ENDBRANCH  17  19
ENDBRANCH  11  17
ENDBRANCH   7  14
ENDBRANCH   1   8
BRANCH   5  22
ATOM     22  C   UNL     1       5.726   4.013  18.152  0.00  0.00    +0.000 C 
ATOM     23  O   UNL     1       6.501   4.325  19.054  0.00  0.00    +0.000 OA
ATOM     24  N   UNL     1       4.796   3.015  18.337  0.00  0.00    +0.000 N 
ATOM     25  H   UNL     1       4.191   2.733  17.568  0.00  0.00    +0.000 HD
BRANCH  24  26
ATOM     26  C   UNL     1       4.652   2.271  19.585  0.00  0.00    +0.000 C 
ATOM     27  C   UNL     1       4.359   0.796  19.312  0.00  0.00    +0.000 C 
BRANCH  26  28
ATOM     28  C   UNL     1       3.547   2.802  20.509  0.00  0.00    +0.000 C 
ATOM     29  O   UNL     1       3.307   2.291  21.597  0.00  0.00    +0.000 OA
BRANCH  28  30
ATOM     30  O   UNL     1       2.849   3.841  19.967  0.00  0.00    +0.000 OA
BRANCH  30  31
ATOM     31  C   UNL     1       1.516   3.604  19.438  0.00  0.00    +0.000 C 
ATOM     32  C   UNL     1       1.131   2.126  19.555  0.00  0.00    +0.000 C 
ATOM     33  C   UNL     1       0.545   4.405  20.315  0.00  0.00    +0.000 C 
ATOM     34  C   UNL     1       1.388   4.147  18.007  0.00  0.00    +0.000 C 
ENDBRANCH  30  31
ENDBRANCH  28  30
ENDBRANCH  26  28
ENDBRANCH  24  26
ENDBRANCH   5  22
TORSDOF 10
ENDMDL
