MODEL 1
REMARK VINA RESULT:      -7.4      0.000      0.000
REMARK  Name = 
REMARK  1 active torsions:
REMARK  status: ('A' for Active; 'I' for Inactive)
REMARK    1  A    between atoms: C_9  and  C_10
REMARK                            x       y       z     vdW  Elec       q    Type
REMARK                         _______ _______ _______ _____ _____    ______ ____
ROOT
ATOM      1  N   UNL     1       5.605   5.397  19.592  0.00  0.00    +0.000 N 
ATOM      2  C   UNL     1       6.278   5.607  18.450  0.00  0.00    +0.000 A 
ATOM      3  N   UNL     1       7.384   6.351  18.453  0.00  0.00    +0.000 NA
ATOM      4  N   UNL     1       7.795   6.309  17.180  0.00  0.00    +0.000 N 
ATOM      5  C   UNL     1       6.999   5.562  16.365  0.00  0.00    +0.000 A 
ATOM      6  N   UNL     1       7.227   5.347  15.060  0.00  0.00    +0.000 NA
ATOM      7  C   UNL     1       6.275   4.587  14.483  0.00  0.00    +0.000 A 
ATOM      8  C   UNL     1       5.161   4.070  15.129  0.00  0.00    +0.000 A 
ATOM      9  C   UNL     1       4.949   4.310  16.505  0.00  0.00    +0.000 A 
ATOM     10  C   UNL     1       5.948   5.094  17.153  0.00  0.00    +0.000 A 
ATOM     11  H   UNL     1       6.068   5.717  20.436  0.00  0.00    +0.000 HD
ATOM     12  H   UNL     1       5.097   4.530  19.721  0.00  0.00    +0.000 HD
ATOM     13  H   UNL     1       8.639   6.795  16.912  0.00  0.00    +0.000 HD
ENDROOT
BRANCH   9  14
ATOM     14  C   UNL     1       3.769   3.758  17.205  0.00  0.00    +0.000 A 
ATOM     15  C   UNL     1       2.634   4.554  17.463  0.00  0.00    +0.000 A 
ATOM     16  C   UNL     1       1.496   4.030  18.087  0.00  0.00    +0.000 A 
ATOM     17  C   UNL     1       1.454   2.688  18.446  0.00  0.00    +0.000 A 
ATOM     18  C   UNL     1       2.571   1.887  18.237  0.00  0.00    +0.000 A 
ATOM     19  C   UNL     1       3.725   2.432  17.664  0.00  0.00    +0.000 A 
ENDBRANCH   9  14
TORSDOF 1
ENDMDL
MODEL 2
REMARK VINA RESULT:      -7.3      0.072      1.201
REMARK  Name = 
REMARK  1 active torsions:
REMARK  status: ('A' for Active; 'I' for Inactive)
REMARK    1  A    between atoms: C_9  and  C_10
REMARK                            x       y       z     vdW  Elec       q    Type
REMARK                         _______ _______ _______ _____ _____    ______ ____
ROOT
ATOM      1  N   UNL     1       5.555   5.365  19.584  0.00  0.00    +0.000 N 
ATOM      2  C   UNL     1       6.243   5.580  18.452  0.00  0.00    +0.000 A 
ATOM      3  N   UNL     1       7.344   6.330  18.471  0.00  0.00    +0.000 NA
ATOM      4  N   UNL     1       7.773   6.293  17.204  0.00  0.00    +0.000 N 
ATOM      5  C   UNL     1       6.993   5.542  16.377  0.00  0.00    +0.000 A 
ATOM      6  N   UNL     1       7.240   5.330  15.075  0.00  0.00    +0.000 NA
ATOM      7  C   UNL     1       6.301   4.567  14.484  0.00  0.00    +0.000 A 
ATOM      8  C   UNL     1       5.181   4.042  15.114  0.00  0.00    +0.000 A 
ATOM      9  C   UNL     1       4.949   4.278  16.487  0.00  0.00    +0.000 A 
ATOM     10  C   UNL     1       5.934   5.067  17.150  0.00  0.00    +0.000 A 
ATOM     11  H   UNL     1       6.004   5.686  20.435  0.00  0.00    +0.000 HD
ATOM     12  H   UNL     1       5.051   4.494  19.705  0.00  0.00    +0.000 HD
ATOM     13  H   UNL     1       8.619   6.783  16.949  0.00  0.00    +0.000 HD
ENDROOT
BRANCH   9  14
ATOM     14  C   UNL     1       3.762   3.719  17.170  0.00  0.00    +0.000 A 
ATOM     15  C   UNL     1       3.748   2.391  17.640  0.00  0.00    +0.000 A 
ATOM     16  C   UNL     1       2.646   1.865  18.325  0.00  0.00    +0.000 A 
ATOM     17  C   UNL     1       1.539   2.665  18.581  0.00  0.00    +0.000 A 
ATOM     18  C   UNL     1       1.509   3.969  18.098  0.00  0.00    +0.000 A 
ATOM     19  C   UNL     1       2.591   4.469  17.366  0.00  0.00    +0.000 A 
ENDBRANCH   9  14
TORSDOF 1
ENDMDL
MODEL 3
REMARK VINA RESULT:      -7.3      3.081      5.210
REMARK  Name = 
REMARK  1 active torsions:
REMARK  status: ('A' for Active; 'I' for Inactive)
REMARK    1  A    between atoms: C_9  and  C_10
REMARK                            x       y       z     vdW  Elec       q    Type
REMARK                         _______ _______ _______ _____ _____    ______ ____
ROOT
ATOM      1  N   UNL     1       4.754   2.021  19.777  0.00  0.00    +0.000 N 
ATOM      2  C   UNL     1       3.793   2.845  20.224  0.00  0.00    +0.000 A 
ATOM      3  N   UNL     1       2.999   2.466  21.224  0.00  0.00    +0.000 NA
ATOM      4  N   UNL     1       2.210   3.530  21.421  0.00  0.00    +0.000 N 
ATOM      5  C   UNL     1       2.474   4.576  20.588  0.00  0.00    +0.000 A 
ATOM      6  N   UNL     1       1.838   5.757  20.619  0.00  0.00    +0.000 NA
ATOM      7  C   UNL     1       2.279   6.611  19.675  0.00  0.00    +0.000 A 
ATOM      8  C   UNL     1       3.276   6.337  18.749  0.00  0.00    +0.000 A 
ATOM      9  C   UNL     1       3.931   5.086  18.743  0.00  0.00    +0.000 A 
ATOM     10  C   UNL     1       3.502   4.163  19.742  0.00  0.00    +0.000 A 
ATOM     11  H   UNL     1       4.907   1.187  20.335  0.00  0.00    +0.000 HD
ATOM     12  H   UNL     1       5.610   2.409  19.398  0.00  0.00    +0.000 HD
ATOM     13  H   UNL     1       1.512   3.504  22.149  0.00  0.00    +0.000 HD
ENDROOT
BRANCH   9  14
ATOM     14  C   UNL     1       4.998   4.785  17.764  0.00  0.00    +0.000 A 
ATOM     15  C   UNL     1       4.691   4.407  16.442  0.00  0.00    +0.000 A 
ATOM     16  C   UNL     1       5.694   4.161  15.497  0.00  0.00    +0.000 A 
ATOM     17  C   UNL     1       7.031   4.314  15.843  0.00  0.00    +0.000 A 
ATOM     18  C   UNL     1       7.366   4.652  17.150  0.00  0.00    +0.000 A 
ATOM     19  C   UNL     1       6.360   4.841  18.103  0.00  0.00    +0.000 A 
ENDBRANCH   9  14
TORSDOF 1
ENDMDL
MODEL 4
REMARK VINA RESULT:      -7.3      3.059      5.246
REMARK  Name = 
REMARK  1 active torsions:
REMARK  status: ('A' for Active; 'I' for Inactive)
REMARK    1  A    between atoms: C_9  and  C_10
REMARK                            x       y       z     vdW  Elec       q    Type
REMARK                         _______ _______ _______ _____ _____    ______ ____
ROOT
ATOM      1  N   UNL     1       4.767   2.086  19.741  0.00  0.00    +0.000 N 
ATOM      2  C   UNL     1       3.796   2.890  20.204  0.00  0.00    +0.000 A 
ATOM      3  N   UNL     1       3.009   2.484  21.199  0.00  0.00    +0.000 NA
ATOM      4  N   UNL     1       2.207   3.533  21.415  0.00  0.00    +0.000 N 
ATOM      5  C   UNL     1       2.455   4.597  20.600  0.00  0.00    +0.000 A 
ATOM      6  N   UNL     1       1.804   5.769  20.652  0.00  0.00    +0.000 NA
ATOM      7  C   UNL     1       2.232   6.645  19.722  0.00  0.00    +0.000 A 
ATOM      8  C   UNL     1       3.231   6.400  18.790  0.00  0.00    +0.000 A 
ATOM      9  C   UNL     1       3.902   5.157  18.761  0.00  0.00    +0.000 A 
ATOM     10  C   UNL     1       3.487   4.212  19.745  0.00  0.00    +0.000 A 
ATOM     11  H   UNL     1       4.932   1.245  20.284  0.00  0.00    +0.000 HD
ATOM     12  H   UNL     1       5.617   2.492  19.367  0.00  0.00    +0.000 HD
ATOM     13  H   UNL     1       1.510   3.486  22.144  0.00  0.00    +0.000 HD
ENDROOT
BRANCH   9  14
ATOM     14  C   UNL     1       4.971   4.887  17.776  0.00  0.00    +0.000 A 
ATOM     15  C   UNL     1       6.332   4.972  18.132  0.00  0.00    +0.000 A 
ATOM     16  C   UNL     1       7.351   4.678  17.219  0.00  0.00    +0.000 A 
ATOM     17  C   UNL     1       7.033   4.263  15.931  0.00  0.00    +0.000 A 
ATOM     18  C   UNL     1       5.701   4.204  15.539  0.00  0.00    +0.000 A 
ATOM     19  C   UNL     1       4.690   4.554  16.441  0.00  0.00    +0.000 A 
ENDBRANCH   9  14
TORSDOF 1
ENDMDL
MODEL 5
REMARK VINA RESULT:      -7.1      3.111      5.320
REMARK  Name = 
REMARK  1 active torsions:
REMARK  status: ('A' for Active; 'I' for Inactive)
REMARK    1  A    between atoms: C_9  and  C_10
REMARK                            x       y       z     vdW  Elec       q    Type
REMARK                         _______ _______ _______ _____ _____    ______ ____
ROOT
ATOM      1  N   UNL     1       2.701   6.574  20.254  0.00  0.00    +0.000 N 
ATOM      2  C   UNL     1       2.158   5.366  20.036  0.00  0.00    +0.000 A 
ATOM      3  N   UNL     1       1.024   5.024  20.646  0.00  0.00    +0.000 NA
ATOM      4  N   UNL     1       0.768   3.798  20.172  0.00  0.00    +0.000 N 
ATOM      5  C   UNL     1       1.692   3.347  19.278  0.00  0.00    +0.000 A 
ATOM      6  N   UNL     1       1.632   2.165  18.645  0.00  0.00    +0.000 NA
ATOM      7  C   UNL     1       2.682   1.957  17.828  0.00  0.00    +0.000 A 
ATOM      8  C   UNL     1       3.737   2.839  17.637  0.00  0.00    +0.000 A 
ATOM      9  C   UNL     1       3.772   4.078  18.314  0.00  0.00    +0.000 A 
ATOM     10  C   UNL     1       2.665   4.341  19.173  0.00  0.00    +0.000 A 
ATOM     11  H   UNL     1       2.126   7.222  20.782  0.00  0.00    +0.000 HD
ATOM     12  H   UNL     1       3.234   7.023  19.518  0.00  0.00    +0.000 HD
ATOM     13  H   UNL     1      -0.062   3.310  20.474  0.00  0.00    +0.000 HD
ENDROOT
BRANCH   9  14
ATOM     14  C   UNL     1       4.888   5.028  18.114  0.00  0.00    +0.000 A 
ATOM     15  C   UNL     1       6.051   4.966  18.907  0.00  0.00    +0.000 A 
ATOM     16  C   UNL     1       7.130   5.834  18.698  0.00  0.00    +0.000 A 
ATOM     17  C   UNL     1       7.083   6.768  17.670  0.00  0.00    +0.000 A 
ATOM     18  C   UNL     1       5.935   6.876  16.893  0.00  0.00    +0.000 A 
ATOM     19  C   UNL     1       4.839   6.044  17.146  0.00  0.00    +0.000 A 
ENDBRANCH   9  14
TORSDOF 1
ENDMDL
MODEL 6
REMARK VINA RESULT:      -7.1      3.063      5.434
REMARK  Name = 
REMARK  1 active torsions:
REMARK  status: ('A' for Active; 'I' for Inactive)
REMARK    1  A    between atoms: C_9  and  C_10
REMARK                            x       y       z     vdW  Elec       q    Type
REMARK                         _______ _______ _______ _____ _____    ______ ____
ROOT
ATOM      1  N   UNL     1       3.722   1.491  18.124  0.00  0.00    +0.000 N 
ATOM      2  C   UNL     1       2.881   2.272  18.819  0.00  0.00    +0.000 A 
ATOM      3  N   UNL     1       1.839   1.735  19.453  0.00  0.00    +0.000 NA
ATOM      4  N   UNL     1       1.262   2.782  20.054  0.00  0.00    +0.000 N 
ATOM      5  C   UNL     1       1.897   3.967  19.833  0.00  0.00    +0.000 A 
ATOM      6  N   UNL     1       1.524   5.145  20.357  0.00  0.00    +0.000 NA
ATOM      7  C   UNL     1       2.313   6.164  19.964  0.00  0.00    +0.000 A 
ATOM      8  C   UNL     1       3.400   6.052  19.108  0.00  0.00    +0.000 A 
ATOM      9  C   UNL     1       3.772   4.798  18.575  0.00  0.00    +0.000 A 
ATOM     10  C   UNL     1       2.970   3.693  18.985  0.00  0.00    +0.000 A 
ATOM     11  H   UNL     1       3.585   0.492  18.239  0.00  0.00    +0.000 HD
ATOM     12  H   UNL     1       4.698   1.752  18.046  0.00  0.00    +0.000 HD
ATOM     13  H   UNL     1       0.439   2.640  20.623  0.00  0.00    +0.000 HD
ENDROOT
BRANCH   9  14
ATOM     14  C   UNL     1       4.932   4.666  17.666  0.00  0.00    +0.000 A 
ATOM     15  C   UNL     1       4.756   4.500  16.277  0.00  0.00    +0.000 A 
ATOM     16  C   UNL     1       5.847   4.416  15.404  0.00  0.00    +0.000 A 
ATOM     17  C   UNL     1       7.143   4.524  15.895  0.00  0.00    +0.000 A 
ATOM     18  C   UNL     1       7.348   4.653  17.264  0.00  0.00    +0.000 A 
ATOM     19  C   UNL     1       6.254   4.678  18.136  0.00  0.00    +0.000 A 
ENDBRANCH   9  14
TORSDOF 1
ENDMDL
MODEL 7
REMARK VINA RESULT:      -7.0      3.054      5.218
REMARK  Name = 
REMARK  1 active torsions:
REMARK  status: ('A' for Active; 'I' for Inactive)
REMARK    1  A    between atoms: C_9  and  C_10
REMARK                            x       y       z     vdW  Elec       q    Type
REMARK                         _______ _______ _______ _____ _____    ______ ____
ROOT
ATOM      1  N   UNL     1       2.731   6.613  20.148  0.00  0.00    +0.000 N 
ATOM      2  C   UNL     1       2.163   5.408  19.987  0.00  0.00    +0.000 A 
ATOM      3  N   UNL     1       1.043   5.104  20.642  0.00  0.00    +0.000 NA
ATOM      4  N   UNL     1       0.755   3.868  20.217  0.00  0.00    +0.000 N 
ATOM      5  C   UNL     1       1.645   3.372  19.311  0.00  0.00    +0.000 A 
ATOM      6  N   UNL     1       1.547   2.171  18.721  0.00  0.00    +0.000 NA
ATOM      7  C   UNL     1       2.569   1.919  17.880  0.00  0.00    +0.000 A 
ATOM      8  C   UNL     1       3.630   2.777  17.628  0.00  0.00    +0.000 A 
ATOM      9  C   UNL     1       3.704   4.038  18.261  0.00  0.00    +0.000 A 
ATOM     10  C   UNL     1       2.628   4.347  19.144  0.00  0.00    +0.000 A 
ATOM     11  H   UNL     1       2.182   7.287  20.670  0.00  0.00    +0.000 HD
ATOM     12  H   UNL     1       3.247   7.029  19.381  0.00  0.00    +0.000 HD
ATOM     13  H   UNL     1      -0.073   3.402  20.561  0.00  0.00    +0.000 HD
ENDROOT
BRANCH   9  14
ATOM     14  C   UNL     1       4.827   4.963  17.995  0.00  0.00    +0.000 A 
ATOM     15  C   UNL     1       4.749   5.932  16.975  0.00  0.00    +0.000 A 
ATOM     16  C   UNL     1       5.790   6.840  16.742  0.00  0.00    +0.000 A 
ATOM     17  C   UNL     1       6.924   6.819  17.545  0.00  0.00    +0.000 A 
ATOM     18  C   UNL     1       7.045   5.852  18.536  0.00  0.00    +0.000 A 
ATOM     19  C   UNL     1       6.026   4.912  18.725  0.00  0.00    +0.000 A 
ENDBRANCH   9  14
TORSDOF 1
ENDMDL
MODEL 8
REMARK VINA RESULT:      -7.0      3.049      5.486
REMARK  Name = 
REMARK  1 active torsions:
REMARK  status: ('A' for Active; 'I' for Inactive)
REMARK    1  A    between atoms: C_9  and  C_10
REMARK                            x       y       z     vdW  Elec       q    Type
REMARK                         _______ _______ _______ _____ _____    ______ ____
ROOT
ATOM      1  N   UNL     1       3.773   1.537  18.115  0.00  0.00    +0.000 N 
ATOM      2  C   UNL     1       2.909   2.285  18.818  0.00  0.00    +0.000 A 
ATOM      3  N   UNL     1       1.873   1.713  19.431  0.00  0.00    +0.000 NA
ATOM      4  N   UNL     1       1.268   2.735  20.048  0.00  0.00    +0.000 N 
ATOM      5  C   UNL     1       1.880   3.937  19.858  0.00  0.00    +0.000 A 
ATOM      6  N   UNL     1       1.476   5.096  20.403  0.00  0.00    +0.000 NA
ATOM      7  C   UNL     1       2.247   6.139  20.038  0.00  0.00    +0.000 A 
ATOM      8  C   UNL     1       3.344   6.068  19.190  0.00  0.00    +0.000 A 
ATOM      9  C   UNL     1       3.748   4.834  18.635  0.00  0.00    +0.000 A 
ATOM     10  C   UNL     1       2.966   3.704  19.015  0.00  0.00    +0.000 A 
ATOM     11  H   UNL     1       3.656   0.533  18.208  0.00  0.00    +0.000 HD
ATOM     12  H   UNL     1       4.744   1.820  18.052  0.00  0.00    +0.000 HD
ATOM     13  H   UNL     1       0.444   2.563  20.606  0.00  0.00    +0.000 HD
ENDROOT
BRANCH   9  14
ATOM     14  C   UNL     1       4.918   4.746  17.734  0.00  0.00    +0.000 A 
ATOM     15  C   UNL     1       6.233   4.795  18.239  0.00  0.00    +0.000 A 
ATOM     16  C   UNL     1       7.346   4.671  17.400  0.00  0.00    +0.000 A 
ATOM     17  C   UNL     1       7.172   4.465  16.036  0.00  0.00    +0.000 A 
ATOM     18  C   UNL     1       5.888   4.447  15.505  0.00  0.00    +0.000 A 
ATOM     19  C   UNL     1       4.781   4.629  16.342  0.00  0.00    +0.000 A 
ENDBRANCH   9  14
TORSDOF 1
ENDMDL
MODEL 9
REMARK VINA RESULT:      -7.0      0.997      2.881
REMARK  Name = 
REMARK  1 active torsions:
REMARK  status: ('A' for Active; 'I' for Inactive)
REMARK    1  A    between atoms: C_9  and  C_10
REMARK                            x       y       z     vdW  Elec       q    Type
REMARK                         _______ _______ _______ _____ _____    ______ ____
ROOT
ATOM      1  N   UNL     1       4.689   4.372  14.774  0.00  0.00    +0.000 N 
ATOM      2  C   UNL     1       5.739   4.895  15.426  0.00  0.00    +0.000 A 
ATOM      3  N   UNL     1       6.775   5.381  14.744  0.00  0.00    +0.000 NA
ATOM      4  N   UNL     1       7.593   5.841  15.698  0.00  0.00    +0.000 N 
ATOM      5  C   UNL     1       7.116   5.674  16.964  0.00  0.00    +0.000 A 
ATOM      6  N   UNL     1       7.742   6.084  18.078  0.00  0.00    +0.000 NA
ATOM      7  C   UNL     1       7.063   5.777  19.200  0.00  0.00    +0.000 A 
ATOM      8  C   UNL     1       5.850   5.105  19.245  0.00  0.00    +0.000 A 
ATOM      9  C   UNL     1       5.212   4.688  18.055  0.00  0.00    +0.000 A 
ATOM     10  C   UNL     1       5.893   5.014  16.846  0.00  0.00    +0.000 A 
ATOM     11  H   UNL     1       4.690   4.505  13.768  0.00  0.00    +0.000 HD
ATOM     12  H   UNL     1       3.764   4.436  15.183  0.00  0.00    +0.000 HD
ATOM     13  H   UNL     1       8.464   6.281  15.439  0.00  0.00    +0.000 HD
ENDROOT
BRANCH   9  14
ATOM     14  C   UNL     1       3.916   3.977  18.090  0.00  0.00    +0.000 A 
ATOM     15  C   UNL     1       3.848   2.595  18.361  0.00  0.00    +0.000 A 
ATOM     16  C   UNL     1       2.623   1.921  18.437  0.00  0.00    +0.000 A 
ATOM     17  C   UNL     1       1.433   2.619  18.273  0.00  0.00    +0.000 A 
ATOM     18  C   UNL     1       1.469   3.975  17.971  0.00  0.00    +0.000 A 
ATOM     19  C   UNL     1       2.698   4.630  17.839  0.00  0.00    +0.000 A 
ENDBRANCH   9  14
TORSDOF 1
ENDMDL
