MODEL 1
REMARK VINA RESULT:      -9.0      0.000      0.000
REMARK  Name = 
REMARK  7 active torsions:
REMARK  status: ('A' for Active; 'I' for Inactive)
REMARK    1  A    between atoms: C_2  and  C_12
REMARK    2  A    between atoms: N_3  and  C_4
REMARK    3  A    between atoms: C_4  and  C_5
REMARK    4  A    between atoms: C_5  and  N_6
REMARK    5  A    between atoms: C_17  and  O_18
REMARK    6  A    between atoms: O_18  and  C_19
REMARK    7  A    between atoms: C_22  and  C_23
REMARK                            x       y       z     vdW  Elec       q    Type
REMARK                         _______ _______ _______ _____ _____    ______ ____
ROOT
ATOM      1  C   UNL     1       3.353   6.485  18.567  0.00  0.00    +0.000 A 
ATOM      2  C   UNL     1       3.367   7.401  17.526  0.00  0.00    +0.000 A 
ATOM      3  C   UNL     1       2.619   8.565  17.672  0.00  0.00    +0.000 A 
ATOM      4  C   UNL     1       1.882   8.777  18.844  0.00  0.00    +0.000 A 
ATOM      5  C   UNL     1       1.111   9.941  19.040  0.00  0.00    +0.000 A 
ATOM      6  C   UNL     1       0.385  10.115  20.219  0.00  0.00    +0.000 A 
ATOM      7  C   UNL     1       0.391   9.103  21.178  0.00  0.00    +0.000 A 
ATOM      8  C   UNL     1       1.178   7.963  20.992  0.00  0.00    +0.000 A 
ATOM      9  C   UNL     1       1.928   7.777  19.843  0.00  0.00    +0.000 A 
ATOM     10  N   UNL     1       2.652   6.655  19.719  0.00  0.00    +0.000 NA
ENDROOT
BRANCH   1  12
ATOM     11  O   UNL     1       5.279   5.123  18.888  0.00  0.00    +0.000 OA
ATOM     12  C   UNL     1       4.137   5.213  18.448  0.00  0.00    +0.000 C 
ATOM     13  N   UNL     1       3.480   4.183  17.808  0.00  0.00    +0.000 N 
ATOM     14  H   UNL     1       2.510   4.350  17.543  0.00  0.00    +0.000 HD
BRANCH  13  15
ATOM     15  C   UNL     1       4.060   2.863  17.679  0.00  0.00    +0.000 C 
BRANCH  15  16
ATOM     16  C   UNL     1       3.293   1.785  18.446  0.00  0.00    +0.000 C 
BRANCH  16  17
ATOM     17  N   UNL     1       2.457   2.300  19.516  0.00  0.00    +0.000 N 
ATOM     18  C   UNL     1       2.949   2.632  20.837  0.00  0.00    +0.000 C 
ATOM     19  C   UNL     1       1.803   3.451  21.418  0.00  0.00    +0.000 C 
ATOM     20  N   UNL     1       0.665   3.024  20.647  0.00  0.00    +0.000 N 
ATOM     21  C   UNL     1       1.082   2.471  19.443  0.00  0.00    +0.000 C 
ATOM     22  O   UNL     1       0.351   2.227  18.499  0.00  0.00    +0.000 OA
ATOM     23  H   UNL     1      -0.267   3.409  20.707  0.00  0.00    +0.000 HD
ENDBRANCH  16  17
ENDBRANCH  15  16
ENDBRANCH  13  15
ENDBRANCH   1  12
BRANCH   6  24
ATOM     24  O   UNL     1      -0.367  11.265  20.327  0.00  0.00    +0.000 OA
BRANCH  24  25
ATOM     25  C   UNL     1      -1.564  11.336  19.625  0.00  0.00    +0.000 A 
ATOM     26  C   UNL     1      -2.498  12.259  20.070  0.00  0.00    +0.000 A 
ATOM     27  C   UNL     1      -3.702  12.370  19.373  0.00  0.00    +0.000 A 
ATOM     28  C   UNL     1      -3.935  11.555  18.259  0.00  0.00    +0.000 A 
ATOM     29  C   UNL     1      -2.947  10.646  17.912  0.00  0.00    +0.000 A 
ATOM     30  N   UNL     1      -1.780  10.508  18.577  0.00  0.00    +0.000 NA
BRANCH  28  31
ATOM     31  C   UNL     1      -5.185  11.622  17.439  0.00  0.00    +0.000 C 
ATOM     32  F   UNL     1      -5.020  11.192  16.159  0.00  0.00    +0.000 F 
ATOM     33  F   UNL     1      -6.190  10.864  17.960  0.00  0.00    +0.000 F 
ATOM     34  F   UNL     1      -5.682  12.886  17.350  0.00  0.00    +0.000 F 
ENDBRANCH  28  31
ENDBRANCH  24  25
ENDBRANCH   6  24
TORSDOF 7
ENDMDL
MODEL 2
REMARK VINA RESULT:      -8.7      3.105      3.651
REMARK  Name = 
REMARK  7 active torsions:
REMARK  status: ('A' for Active; 'I' for Inactive)
REMARK    1  A    between atoms: C_2  and  C_12
REMARK    2  A    between atoms: N_3  and  C_4
REMARK    3  A    between atoms: C_4  and  C_5
REMARK    4  A    between atoms: C_5  and  N_6
REMARK    5  A    between atoms: C_17  and  O_18
REMARK    6  A    between atoms: O_18  and  C_19
REMARK    7  A    between atoms: C_22  and  C_23
REMARK                            x       y       z     vdW  Elec       q    Type
REMARK                         _______ _______ _______ _____ _____    ______ ____
ROOT
ATOM      1  C   UNL     1       3.172   6.549  18.645  0.00  0.00    +0.000 A 
ATOM      2  C   UNL     1       3.069   7.445  17.592  0.00  0.00    +0.000 A 
ATOM      3  C   UNL     1       2.282   8.578  17.775  0.00  0.00    +0.000 A 
ATOM      4  C   UNL     1       1.622   8.779  18.994  0.00  0.00    +0.000 A 
ATOM      5  C   UNL     1       0.816   9.911  19.229  0.00  0.00    +0.000 A 
ATOM      6  C   UNL     1       0.170  10.074  20.455  0.00  0.00    +0.000 A 
ATOM      7  C   UNL     1       0.291   9.081  21.426  0.00  0.00    +0.000 A 
ATOM      8  C   UNL     1       1.113   7.974  21.200  0.00  0.00    +0.000 A 
ATOM      9  C   UNL     1       1.786   7.801  20.003  0.00  0.00    +0.000 A 
ATOM     10  N   UNL     1       2.549   6.709  19.843  0.00  0.00    +0.000 NA
ENDROOT
BRANCH   1  12
ATOM     11  O   UNL     1       5.132   5.235  18.961  0.00  0.00    +0.000 OA
ATOM     12  C   UNL     1       4.002   5.311  18.489  0.00  0.00    +0.000 C 
ATOM     13  N   UNL     1       3.400   4.294  17.777  0.00  0.00    +0.000 N 
ATOM     14  H   UNL     1       2.433   4.443  17.490  0.00  0.00    +0.000 HD
BRANCH  13  15
ATOM     15  C   UNL     1       4.028   3.002  17.601  0.00  0.00    +0.000 C 
BRANCH  15  16
ATOM     16  C   UNL     1       3.443   1.914  18.504  0.00  0.00    +0.000 C 
BRANCH  16  17
ATOM     17  N   UNL     1       2.564   2.417  19.544  0.00  0.00    +0.000 N 
ATOM     18  C   UNL     1       2.976   2.637  20.914  0.00  0.00    +0.000 C 
ATOM     19  C   UNL     1       1.843   3.491  21.466  0.00  0.00    +0.000 C 
ATOM     20  N   UNL     1       0.741   3.185  20.592  0.00  0.00    +0.000 N 
ATOM     21  C   UNL     1       1.210   2.680  19.387  0.00  0.00    +0.000 C 
ATOM     22  O   UNL     1       0.537   2.541  18.381  0.00  0.00    +0.000 OA
ATOM     23  H   UNL     1      -0.168   3.625  20.612  0.00  0.00    +0.000 HD
ENDBRANCH  16  17
ENDBRANCH  15  16
ENDBRANCH  13  15
ENDBRANCH   1  12
BRANCH   6  24
ATOM     24  O   UNL     1      -0.623  11.192  20.600  0.00  0.00    +0.000 OA
BRANCH  24  25
ATOM     25  C   UNL     1      -0.129  12.411  20.151  0.00  0.00    +0.000 A 
ATOM     26  C   UNL     1       0.997  12.906  20.793  0.00  0.00    +0.000 A 
ATOM     27  C   UNL     1       1.531  14.116  20.350  0.00  0.00    +0.000 A 
ATOM     28  C   UNL     1       0.922  14.796  19.288  0.00  0.00    +0.000 A 
ATOM     29  C   UNL     1      -0.215  14.229  18.733  0.00  0.00    +0.000 A 
ATOM     30  N   UNL     1      -0.760  13.066  19.151  0.00  0.00    +0.000 NA
BRANCH  28  31
ATOM     31  C   UNL     1       1.439  16.086  18.735  0.00  0.00    +0.000 C 
ATOM     32  F   UNL     1       1.886  16.947  19.688  0.00  0.00    +0.000 F 
ATOM     33  F   UNL     1       2.482  15.904  17.878  0.00  0.00    +0.000 F 
ATOM     34  F   UNL     1       0.493  16.766  18.029  0.00  0.00    +0.000 F 
ENDBRANCH  28  31
ENDBRANCH  24  25
ENDBRANCH   6  24
TORSDOF 7
ENDMDL
MODEL 3
REMARK VINA RESULT:      -8.7      2.678      4.166
REMARK  Name = 
REMARK  7 active torsions:
REMARK  status: ('A' for Active; 'I' for Inactive)
REMARK    1  A    between atoms: C_2  and  C_12
REMARK    2  A    between atoms: N_3  and  C_4
REMARK    3  A    between atoms: C_4  and  C_5
REMARK    4  A    between atoms: C_5  and  N_6
REMARK    5  A    between atoms: C_17  and  O_18
REMARK    6  A    between atoms: O_18  and  C_19
REMARK    7  A    between atoms: C_22  and  C_23
REMARK                            x       y       z     vdW  Elec       q    Type
REMARK                         _______ _______ _______ _____ _____    ______ ____
ROOT
ATOM      1  C   UNL     1       2.359   7.268  18.925  0.00  0.00    +0.000 A 
ATOM      2  C   UNL     1       2.361   8.153  17.857  0.00  0.00    +0.000 A 
ATOM      3  C   UNL     1       1.788   9.406  18.048  0.00  0.00    +0.000 A 
ATOM      4  C   UNL     1       1.230   9.736  19.290  0.00  0.00    +0.000 A 
ATOM      5  C   UNL     1       0.640  10.992  19.534  0.00  0.00    +0.000 A 
ATOM      6  C   UNL     1       0.089  11.282  20.783  0.00  0.00    +0.000 A 
ATOM      7  C   UNL     1       0.084  10.297  21.770  0.00  0.00    +0.000 A 
ATOM      8  C   UNL     1       0.694   9.062  21.533  0.00  0.00    +0.000 A 
ATOM      9  C   UNL     1       1.271   8.758  20.312  0.00  0.00    +0.000 A 
ATOM     10  N   UNL     1       1.828   7.550  20.144  0.00  0.00    +0.000 NA
ENDROOT
BRANCH   1  12
ATOM     11  O   UNL     1       2.438   5.062  18.034  0.00  0.00    +0.000 OA
ATOM     12  C   UNL     1       2.957   5.903  18.760  0.00  0.00    +0.000 C 
ATOM     13  N   UNL     1       4.108   5.683  19.487  0.00  0.00    +0.000 N 
ATOM     14  H   UNL     1       4.486   6.476  20.004  0.00  0.00    +0.000 HD
BRANCH  13  15
ATOM     15  C   UNL     1       4.859   4.449  19.383  0.00  0.00    +0.000 C 
BRANCH  15  16
ATOM     16  C   UNL     1       5.863   4.445  18.229  0.00  0.00    +0.000 C 
BRANCH  16  17
ATOM     17  N   UNL     1       6.780   5.572  18.237  0.00  0.00    +0.000 N 
ATOM     18  C   UNL     1       6.925   6.503  17.138  0.00  0.00    +0.000 C 
ATOM     19  C   UNL     1       7.687   7.654  17.780  0.00  0.00    +0.000 C 
ATOM     20  N   UNL     1       8.336   7.037  18.906  0.00  0.00    +0.000 N 
ATOM     21  C   UNL     1       7.679   5.862  19.253  0.00  0.00    +0.000 C 
ATOM     22  O   UNL     1       7.858   5.244  20.288  0.00  0.00    +0.000 OA
ATOM     23  H   UNL     1       8.877   7.515  19.611  0.00  0.00    +0.000 HD
ENDBRANCH  16  17
ENDBRANCH  15  16
ENDBRANCH  13  15
ENDBRANCH   1  12
BRANCH   6  24
ATOM     24  O   UNL     1      -0.494  12.521  20.938  0.00  0.00    +0.000 OA
BRANCH  24  25
ATOM     25  C   UNL     1      -1.871  12.581  21.116  0.00  0.00    +0.000 A 
ATOM     26  C   UNL     1      -2.652  12.575  19.969  0.00  0.00    +0.000 A 
ATOM     27  C   UNL     1      -4.039  12.612  20.115  0.00  0.00    +0.000 A 
ATOM     28  C   UNL     1      -4.601  12.660  21.396  0.00  0.00    +0.000 A 
ATOM     29  C   UNL     1      -3.731  12.690  22.476  0.00  0.00    +0.000 A 
ATOM     30  N   UNL     1      -2.386  12.669  22.363  0.00  0.00    +0.000 NA
BRANCH  28  31
ATOM     31  C   UNL     1      -6.076  12.679  21.647  0.00  0.00    +0.000 C 
ATOM     32  F   UNL     1      -6.699  13.779  21.142  0.00  0.00    +0.000 F 
ATOM     33  F   UNL     1      -6.710  11.606  21.099  0.00  0.00    +0.000 F 
ATOM     34  F   UNL     1      -6.379  12.652  22.974  0.00  0.00    +0.000 F 
ENDBRANCH  28  31
ENDBRANCH  24  25
ENDBRANCH   6  24
TORSDOF 7
ENDMDL
MODEL 4
REMARK VINA RESULT:      -8.7      1.473      1.772
REMARK  Name = 
REMARK  7 active torsions:
REMARK  status: ('A' for Active; 'I' for Inactive)
REMARK    1  A    between atoms: C_2  and  C_12
REMARK    2  A    between atoms: N_3  and  C_4
REMARK    3  A    between atoms: C_4  and  C_5
REMARK    4  A    between atoms: C_5  and  N_6
REMARK    5  A    between atoms: C_17  and  O_18
REMARK    6  A    between atoms: O_18  and  C_19
REMARK    7  A    between atoms: C_22  and  C_23
REMARK                            x       y       z     vdW  Elec       q    Type
REMARK                         _______ _______ _______ _____ _____    ______ ____
ROOT
ATOM      1  C   UNL     1       2.546   7.359  18.841  0.00  0.00    +0.000 A 
ATOM      2  C   UNL     1       2.579   8.183  17.726  0.00  0.00    +0.000 A 
ATOM      3  C   UNL     1       1.851   9.367  17.769  0.00  0.00    +0.000 A 
ATOM      4  C   UNL     1       1.112   9.690  18.915  0.00  0.00    +0.000 A 
ATOM      5  C   UNL     1       0.360  10.878  19.008  0.00  0.00    +0.000 A 
ATOM      6  C   UNL     1      -0.369  11.163  20.163  0.00  0.00    +0.000 A 
ATOM      7  C   UNL     1      -0.384  10.236  21.204  0.00  0.00    +0.000 A 
ATOM      8  C   UNL     1       0.385   9.072  21.120  0.00  0.00    +0.000 A 
ATOM      9  C   UNL     1       1.137   8.777  19.995  0.00  0.00    +0.000 A 
ATOM     10  N   UNL     1       1.842   7.636  19.970  0.00  0.00    +0.000 NA
ENDROOT
BRANCH   1  12
ATOM     11  O   UNL     1       4.105   5.793  19.727  0.00  0.00    +0.000 OA
ATOM     12  C   UNL     1       3.309   6.068  18.835  0.00  0.00    +0.000 C 
ATOM     13  N   UNL     1       3.048   5.245  17.760  0.00  0.00    +0.000 N 
ATOM     14  H   UNL     1       2.318   5.546  17.115  0.00  0.00    +0.000 HD
BRANCH  13  15
ATOM     15  C   UNL     1       3.637   3.928  17.639  0.00  0.00    +0.000 C 
BRANCH  15  16
ATOM     16  C   UNL     1       2.715   2.804  18.114  0.00  0.00    +0.000 C 
BRANCH  16  17
ATOM     17  N   UNL     1       2.462   2.809  19.544  0.00  0.00    +0.000 N 
ATOM     18  C   UNL     1       1.202   3.199  20.141  0.00  0.00    +0.000 C 
ATOM     19  C   UNL     1       1.337   2.678  21.565  0.00  0.00    +0.000 C 
ATOM     20  N   UNL     1       2.761   2.585  21.752  0.00  0.00    +0.000 N 
ATOM     21  C   UNL     1       3.402   2.516  20.522  0.00  0.00    +0.000 C 
ATOM     22  O   UNL     1       4.572   2.212  20.363  0.00  0.00    +0.000 OA
ATOM     23  H   UNL     1       3.226   2.206  22.564  0.00  0.00    +0.000 HD
ENDBRANCH  16  17
ENDBRANCH  15  16
ENDBRANCH  13  15
ENDBRANCH   1  12
BRANCH   6  24
ATOM     24  O   UNL     1      -1.101  12.331  20.170  0.00  0.00    +0.000 OA
BRANCH  24  25
ATOM     25  C   UNL     1      -2.461  12.254  19.893  0.00  0.00    +0.000 A 
ATOM     26  C   UNL     1      -3.327  12.726  20.869  0.00  0.00    +0.000 A 
ATOM     27  C   UNL     1      -4.697  12.684  20.612  0.00  0.00    +0.000 A 
ATOM     28  C   UNL     1      -5.159  12.168  19.396  0.00  0.00    +0.000 A 
ATOM     29  C   UNL     1      -4.213  11.696  18.499  0.00  0.00    +0.000 A 
ATOM     30  N   UNL     1      -2.882  11.713  18.727  0.00  0.00    +0.000 NA
BRANCH  28  31
ATOM     31  C   UNL     1      -6.608  12.104  19.027  0.00  0.00    +0.000 C 
ATOM     32  F   UNL     1      -6.837  11.529  17.816  0.00  0.00    +0.000 F 
ATOM     33  F   UNL     1      -7.342  11.389  19.925  0.00  0.00    +0.000 F 
ATOM     34  F   UNL     1      -7.186  13.336  18.973  0.00  0.00    +0.000 F 
ENDBRANCH  28  31
ENDBRANCH  24  25
ENDBRANCH   6  24
TORSDOF 7
ENDMDL
MODEL 5
REMARK VINA RESULT:      -8.7      0.919      1.296
REMARK  Name = 
REMARK  7 active torsions:
REMARK  status: ('A' for Active; 'I' for Inactive)
REMARK    1  A    between atoms: C_2  and  C_12
REMARK    2  A    between atoms: N_3  and  C_4
REMARK    3  A    between atoms: C_4  and  C_5
REMARK    4  A    between atoms: C_5  and  N_6
REMARK    5  A    between atoms: C_17  and  O_18
REMARK    6  A    between atoms: O_18  and  C_19
REMARK    7  A    between atoms: C_22  and  C_23
REMARK                            x       y       z     vdW  Elec       q    Type
REMARK                         _______ _______ _______ _____ _____    ______ ____
ROOT
ATOM      1  C   UNL     1       3.719   5.877  18.414  0.00  0.00    +0.000 A 
ATOM      2  C   UNL     1       3.998   6.617  17.275  0.00  0.00    +0.000 A 
ATOM      3  C   UNL     1       3.419   7.877  17.158  0.00  0.00    +0.000 A 
ATOM      4  C   UNL     1       2.581   8.356  18.173  0.00  0.00    +0.000 A 
ATOM      5  C   UNL     1       1.973   9.625  18.102  0.00  0.00    +0.000 A 
ATOM      6  C   UNL     1       1.140  10.066  19.131  0.00  0.00    +0.000 A 
ATOM      7  C   UNL     1       0.876   9.217  20.204  0.00  0.00    +0.000 A 
ATOM      8  C   UNL     1       1.502   7.971  20.284  0.00  0.00    +0.000 A 
ATOM      9  C   UNL     1       2.353   7.519  19.291  0.00  0.00    +0.000 A 
ATOM     10  N   UNL     1       2.912   6.307  19.420  0.00  0.00    +0.000 NA
ENDROOT
BRANCH   1  12
ATOM     11  O   UNL     1       5.275   4.317  19.314  0.00  0.00    +0.000 OA
ATOM     12  C   UNL     1       4.313   4.511  18.577  0.00  0.00    +0.000 C 
ATOM     13  N   UNL     1       3.704   3.520  17.836  0.00  0.00    +0.000 N 
ATOM     14  H   UNL     1       2.872   3.784  17.310  0.00  0.00    +0.000 HD
BRANCH  13  15
ATOM     15  C   UNL     1       4.100   2.131  17.936  0.00  0.00    +0.000 C 
BRANCH  15  16
ATOM     16  C   UNL     1       3.293   1.342  18.968  0.00  0.00    +0.000 C 
BRANCH  16  17
ATOM     17  N   UNL     1       2.423   2.162  19.793  0.00  0.00    +0.000 N 
ATOM     18  C   UNL     1       2.726   2.542  21.157  0.00  0.00    +0.000 C 
ATOM     19  C   UNL     1       1.727   3.662  21.416  0.00  0.00    +0.000 C 
ATOM     20  N   UNL     1       0.683   3.404  20.459  0.00  0.00    +0.000 N 
ATOM     21  C   UNL     1       1.169   2.623  19.418  0.00  0.00    +0.000 C 
ATOM     22  O   UNL     1       0.590   2.430  18.364  0.00  0.00    +0.000 OA
ATOM     23  H   UNL     1      -0.121   3.991  20.290  0.00  0.00    +0.000 HD
ENDBRANCH  16  17
ENDBRANCH  15  16
ENDBRANCH  13  15
ENDBRANCH   1  12
BRANCH   6  24
ATOM     24  O   UNL     1       0.560  11.308  18.978  0.00  0.00    +0.000 OA
BRANCH  24  25
ATOM     25  C   UNL     1      -0.821  11.374  18.831  0.00  0.00    +0.000 A 
ATOM     26  C   UNL     1      -1.389  10.545  17.874  0.00  0.00    +0.000 A 
ATOM     27  C   UNL     1      -2.775  10.572  17.717  0.00  0.00    +0.000 A 
ATOM     28  C   UNL     1      -3.547  11.426  18.514  0.00  0.00    +0.000 A 
ATOM     29  C   UNL     1      -2.879  12.233  19.422  0.00  0.00    +0.000 A 
ATOM     30  N   UNL     1      -1.538  12.237  19.584  0.00  0.00    +0.000 NA
BRANCH  28  31
ATOM     31  C   UNL     1      -5.039  11.504  18.430  0.00  0.00    +0.000 C 
ATOM     32  F   UNL     1      -5.637  10.296  18.239  0.00  0.00    +0.000 F 
ATOM     33  F   UNL     1      -5.597  12.022  19.559  0.00  0.00    +0.000 F 
ATOM     34  F   UNL     1      -5.462  12.298  17.408  0.00  0.00    +0.000 F 
ENDBRANCH  28  31
ENDBRANCH  24  25
ENDBRANCH   6  24
TORSDOF 7
ENDMDL
MODEL 6
REMARK VINA RESULT:      -8.7      3.545      4.912
REMARK  Name = 
REMARK  7 active torsions:
REMARK  status: ('A' for Active; 'I' for Inactive)
REMARK    1  A    between atoms: C_2  and  C_12
REMARK    2  A    between atoms: N_3  and  C_4
REMARK    3  A    between atoms: C_4  and  C_5
REMARK    4  A    between atoms: C_5  and  N_6
REMARK    5  A    between atoms: C_17  and  O_18
REMARK    6  A    between atoms: O_18  and  C_19
REMARK    7  A    between atoms: C_22  and  C_23
REMARK                            x       y       z     vdW  Elec       q    Type
REMARK                         _______ _______ _______ _____ _____    ______ ____
ROOT
ATOM      1  C   UNL     1       2.453   7.187  18.705  0.00  0.00    +0.000 A 
ATOM      2  C   UNL     1       2.425   7.999  17.582  0.00  0.00    +0.000 A 
ATOM      3  C   UNL     1       1.895   9.279  17.716  0.00  0.00    +0.000 A 
ATOM      4  C   UNL     1       1.408   9.705  18.958  0.00  0.00    +0.000 A 
ATOM      5  C   UNL     1       0.864  10.991  19.146  0.00  0.00    +0.000 A 
ATOM      6  C   UNL     1       0.383  11.378  20.397  0.00  0.00    +0.000 A 
ATOM      7  C   UNL     1       0.402  10.461  21.447  0.00  0.00    +0.000 A 
ATOM      8  C   UNL     1       0.967   9.196  21.265  0.00  0.00    +0.000 A 
ATOM      9  C   UNL     1       1.474   8.796  20.041  0.00  0.00    +0.000 A 
ATOM     10  N   UNL     1       1.991   7.563  19.927  0.00  0.00    +0.000 NA
ENDROOT
BRANCH   1  12
ATOM     11  O   UNL     1       2.442   4.931  17.944  0.00  0.00    +0.000 OA
ATOM     12  C   UNL     1       3.007   5.797  18.604  0.00  0.00    +0.000 C 
ATOM     13  N   UNL     1       4.172   5.584  19.310  0.00  0.00    +0.000 N 
ATOM     14  H   UNL     1       4.588   6.394  19.769  0.00  0.00    +0.000 HD
BRANCH  13  15
ATOM     15  C   UNL     1       4.884   4.325  19.257  0.00  0.00    +0.000 C 
BRANCH  15  16
ATOM     16  C   UNL     1       5.979   4.290  18.190  0.00  0.00    +0.000 C 
BRANCH  16  17
ATOM     17  N   UNL     1       6.841   5.459  18.187  0.00  0.00    +0.000 N 
ATOM     18  C   UNL     1       6.998   6.344  17.052  0.00  0.00    +0.000 C 
ATOM     19  C   UNL     1       7.674   7.559  17.674  0.00  0.00    +0.000 C 
ATOM     20  N   UNL     1       8.294   7.025  18.858  0.00  0.00    +0.000 N 
ATOM     21  C   UNL     1       7.676   5.837  19.229  0.00  0.00    +0.000 C 
ATOM     22  O   UNL     1       7.832   5.276  20.299  0.00  0.00    +0.000 OA
ATOM     23  H   UNL     1       8.778   7.560  19.564  0.00  0.00    +0.000 HD
ENDBRANCH  16  17
ENDBRANCH  15  16
ENDBRANCH  13  15
ENDBRANCH   1  12
BRANCH   6  24
ATOM     24  O   UNL     1      -0.159  12.641  20.496  0.00  0.00    +0.000 OA
BRANCH  24  25
ATOM     25  C   UNL     1      -1.087  12.881  21.503  0.00  0.00    +0.000 A 
ATOM     26  C   UNL     1      -2.397  12.498  21.253  0.00  0.00    +0.000 A 
ATOM     27  C   UNL     1      -3.348  12.704  22.252  0.00  0.00    +0.000 A 
ATOM     28  C   UNL     1      -2.963  13.290  23.465  0.00  0.00    +0.000 A 
ATOM     29  C   UNL     1      -1.635  13.661  23.604  0.00  0.00    +0.000 A 
ATOM     30  N   UNL     1      -0.697  13.485  22.648  0.00  0.00    +0.000 NA
BRANCH  28  31
ATOM     31  C   UNL     1      -3.910  13.528  24.599  0.00  0.00    +0.000 C 
ATOM     32  F   UNL     1      -5.084  14.099  24.217  0.00  0.00    +0.000 F 
ATOM     33  F   UNL     1      -4.248  12.377  25.244  0.00  0.00    +0.000 F 
ATOM     34  F   UNL     1      -3.386  14.347  25.551  0.00  0.00    +0.000 F 
ENDBRANCH  28  31
ENDBRANCH  24  25
ENDBRANCH   6  24
TORSDOF 7
ENDMDL
MODEL 7
REMARK VINA RESULT:      -8.6      3.069      3.700
REMARK  Name = 
REMARK  7 active torsions:
REMARK  status: ('A' for Active; 'I' for Inactive)
REMARK    1  A    between atoms: C_2  and  C_12
REMARK    2  A    between atoms: N_3  and  C_4
REMARK    3  A    between atoms: C_4  and  C_5
REMARK    4  A    between atoms: C_5  and  N_6
REMARK    5  A    between atoms: C_17  and  O_18
REMARK    6  A    between atoms: O_18  and  C_19
REMARK    7  A    between atoms: C_22  and  C_23
REMARK                            x       y       z     vdW  Elec       q    Type
REMARK                         _______ _______ _______ _____ _____    ______ ____
ROOT
ATOM      1  C   UNL     1       2.674   7.224  18.771  0.00  0.00    +0.000 A 
ATOM      2  C   UNL     1       2.649   7.998  17.621  0.00  0.00    +0.000 A 
ATOM      3  C   UNL     1       1.987   9.220  17.671  0.00  0.00    +0.000 A 
ATOM      4  C   UNL     1       1.371   9.630  18.861  0.00  0.00    +0.000 A 
ATOM      5  C   UNL     1       0.690  10.860  18.963  0.00  0.00    +0.000 A 
ATOM      6  C   UNL     1       0.083  11.232  20.163  0.00  0.00    +0.000 A 
ATOM      7  C   UNL     1       0.115  10.351  21.243  0.00  0.00    +0.000 A 
ATOM      8  C   UNL     1       0.814   9.145  21.147  0.00  0.00    +0.000 A 
ATOM      9  C   UNL     1       1.447   8.764  19.976  0.00  0.00    +0.000 A 
ATOM     10  N   UNL     1       2.089   7.586  19.943  0.00  0.00    +0.000 NA
ENDROOT
BRANCH   1  12
ATOM     11  O   UNL     1       4.194   5.598  19.616  0.00  0.00    +0.000 OA
ATOM     12  C   UNL     1       3.369   5.895  18.759  0.00  0.00    +0.000 C 
ATOM     13  N   UNL     1       3.012   5.064  17.718  0.00  0.00    +0.000 N 
ATOM     14  H   UNL     1       2.267   5.389  17.103  0.00  0.00    +0.000 HD
BRANCH  13  15
ATOM     15  C   UNL     1       3.526   3.715  17.601  0.00  0.00    +0.000 C 
BRANCH  15  16
ATOM     16  C   UNL     1       2.570   2.652  18.144  0.00  0.00    +0.000 C 
BRANCH  16  17
ATOM     17  N   UNL     1       2.376   2.709  19.583  0.00  0.00    +0.000 N 
ATOM     18  C   UNL     1       1.138   3.114  20.215  0.00  0.00    +0.000 C 
ATOM     19  C   UNL     1       1.334   2.648  21.651  0.00  0.00    +0.000 C 
ATOM     20  N   UNL     1       2.765   2.570  21.783  0.00  0.00    +0.000 N 
ATOM     21  C   UNL     1       3.357   2.457  20.531  0.00  0.00    +0.000 C 
ATOM     22  O   UNL     1       4.521   2.154  20.336  0.00  0.00    +0.000 OA
ATOM     23  H   UNL     1       3.266   2.223  22.589  0.00  0.00    +0.000 HD
ENDBRANCH  16  17
ENDBRANCH  15  16
ENDBRANCH  13  15
ENDBRANCH   1  12
BRANCH   6  24
ATOM     24  O   UNL     1      -0.587  12.436  20.179  0.00  0.00    +0.000 OA
BRANCH  24  25
ATOM     25  C   UNL     1      -1.406  12.718  21.265  0.00  0.00    +0.000 A 
ATOM     26  C   UNL     1      -2.756  12.429  21.124  0.00  0.00    +0.000 A 
ATOM     27  C   UNL     1      -3.601  12.680  22.206  0.00  0.00    +0.000 A 
ATOM     28  C   UNL     1      -3.075  13.214  23.388  0.00  0.00    +0.000 A 
ATOM     29  C   UNL     1      -1.717  13.492  23.417  0.00  0.00    +0.000 A 
ATOM     30  N   UNL     1      -0.879  13.272  22.381  0.00  0.00    +0.000 NA
BRANCH  28  31
ATOM     31  C   UNL     1      -3.903  13.493  24.603  0.00  0.00    +0.000 C 
ATOM     32  F   UNL     1      -3.261  14.248  25.536  0.00  0.00    +0.000 F 
ATOM     33  F   UNL     1      -5.051  14.163  24.307  0.00  0.00    +0.000 F 
ATOM     34  F   UNL     1      -4.290  12.355  25.242  0.00  0.00    +0.000 F 
ENDBRANCH  28  31
ENDBRANCH  24  25
ENDBRANCH   6  24
TORSDOF 7
ENDMDL
MODEL 8
REMARK VINA RESULT:      -8.6      5.354     10.231
REMARK  Name = 
REMARK  7 active torsions:
REMARK  status: ('A' for Active; 'I' for Inactive)
REMARK    1  A    between atoms: C_2  and  C_12
REMARK    2  A    between atoms: N_3  and  C_4
REMARK    3  A    between atoms: C_4  and  C_5
REMARK    4  A    between atoms: C_5  and  N_6
REMARK    5  A    between atoms: C_17  and  O_18
REMARK    6  A    between atoms: O_18  and  C_19
REMARK    7  A    between atoms: C_22  and  C_23
REMARK                            x       y       z     vdW  Elec       q    Type
REMARK                         _______ _______ _______ _____ _____    ______ ____
ROOT
ATOM      1  C   UNL     1      -0.330  10.934  22.086  0.00  0.00    +0.000 A 
ATOM      2  C   UNL     1       0.093   9.781  22.730  0.00  0.00    +0.000 A 
ATOM      3  C   UNL     1       0.832   8.859  21.997  0.00  0.00    +0.000 A 
ATOM      4  C   UNL     1       1.123   9.111  20.650  0.00  0.00    +0.000 A 
ATOM      5  C   UNL     1       1.870   8.210  19.866  0.00  0.00    +0.000 A 
ATOM      6  C   UNL     1       2.134   8.493  18.526  0.00  0.00    +0.000 A 
ATOM      7  C   UNL     1       1.609   9.653  17.958  0.00  0.00    +0.000 A 
ATOM      8  C   UNL     1       0.892  10.558  18.746  0.00  0.00    +0.000 A 
ATOM      9  C   UNL     1       0.638  10.314  20.084  0.00  0.00    +0.000 A 
ATOM     10  N   UNL     1      -0.069  11.216  20.782  0.00  0.00    +0.000 NA
ENDROOT
BRANCH   1  12
ATOM     11  O   UNL     1      -0.610  12.930  23.354  0.00  0.00    +0.000 OA
ATOM     12  C   UNL     1      -1.138  11.951  22.835  0.00  0.00    +0.000 C 
ATOM     13  N   UNL     1      -2.490  11.689  22.896  0.00  0.00    +0.000 N 
ATOM     14  H   UNL     1      -2.827  10.882  22.371  0.00  0.00    +0.000 HD
BRANCH  13  15
ATOM     15  C   UNL     1      -3.425  12.607  23.510  0.00  0.00    +0.000 C 
BRANCH  15  16
ATOM     16  C   UNL     1      -4.707  12.803  22.699  0.00  0.00    +0.000 C 
BRANCH  16  17
ATOM     17  N   UNL     1      -5.759  13.504  23.413  0.00  0.00    +0.000 N 
ATOM     18  C   UNL     1      -5.757  14.931  23.659  0.00  0.00    +0.000 C 
ATOM     19  C   UNL     1      -7.197  15.194  24.081  0.00  0.00    +0.000 C 
ATOM     20  N   UNL     1      -7.647  13.909  24.548  0.00  0.00    +0.000 N 
ATOM     21  C   UNL     1      -6.856  12.900  24.012  0.00  0.00    +0.000 C 
ATOM     22  O   UNL     1      -7.126  11.713  24.046  0.00  0.00    +0.000 OA
ATOM     23  H   UNL     1      -8.586  13.684  24.842  0.00  0.00    +0.000 HD
ENDBRANCH  16  17
ENDBRANCH  15  16
ENDBRANCH  13  15
ENDBRANCH   1  12
BRANCH   6  24
ATOM     24  O   UNL     1       2.848   7.551  17.816  0.00  0.00    +0.000 OA
BRANCH  24  25
ATOM     25  C   UNL     1       2.871   6.246  18.295  0.00  0.00    +0.000 A 
ATOM     26  C   UNL     1       1.850   5.406  17.874  0.00  0.00    +0.000 A 
ATOM     27  C   UNL     1       1.857   4.084  18.320  0.00  0.00    +0.000 A 
ATOM     28  C   UNL     1       2.876   3.645  19.173  0.00  0.00    +0.000 A 
ATOM     29  C   UNL     1       3.834   4.572  19.557  0.00  0.00    +0.000 A 
ATOM     30  N   UNL     1       3.843   5.860  19.151  0.00  0.00    +0.000 NA
BRANCH  28  31
ATOM     31  C   UNL     1       2.975   2.241  19.682  0.00  0.00    +0.000 C 
ATOM     32  F   UNL     1       2.935   1.302  18.698  0.00  0.00    +0.000 F 
ATOM     33  F   UNL     1       4.132   2.017  20.365  0.00  0.00    +0.000 F 
ATOM     34  F   UNL     1       1.969   1.927  20.543  0.00  0.00    +0.000 F 
ENDBRANCH  28  31
ENDBRANCH  24  25
ENDBRANCH   6  24
TORSDOF 7
ENDMDL
MODEL 9
REMARK VINA RESULT:      -8.5      2.817      4.258
REMARK  Name = 
REMARK  7 active torsions:
REMARK  status: ('A' for Active; 'I' for Inactive)
REMARK    1  A    between atoms: C_2  and  C_12
REMARK    2  A    between atoms: N_3  and  C_4
REMARK    3  A    between atoms: C_4  and  C_5
REMARK    4  A    between atoms: C_5  and  N_6
REMARK    5  A    between atoms: C_17  and  O_18
REMARK    6  A    between atoms: O_18  and  C_19
REMARK    7  A    between atoms: C_22  and  C_23
REMARK                            x       y       z     vdW  Elec       q    Type
REMARK                         _______ _______ _______ _____ _____    ______ ____
ROOT
ATOM      1  C   UNL     1       2.259   7.191  18.564  0.00  0.00    +0.000 A 
ATOM      2  C   UNL     1       2.142   8.260  17.689  0.00  0.00    +0.000 A 
ATOM      3  C   UNL     1       1.681   9.471  18.197  0.00  0.00    +0.000 A 
ATOM      4  C   UNL     1       1.350   9.576  19.554  0.00  0.00    +0.000 A 
ATOM      5  C   UNL     1       0.881  10.781  20.116  0.00  0.00    +0.000 A 
ATOM      6  C   UNL     1       0.556  10.846  21.472  0.00  0.00    +0.000 A 
ATOM      7  C   UNL     1       0.651   9.694  22.251  0.00  0.00    +0.000 A 
ATOM      8  C   UNL     1       1.142   8.509  21.696  0.00  0.00    +0.000 A 
ATOM      9  C   UNL     1       1.497   8.424  20.361  0.00  0.00    +0.000 A 
ATOM     10  N   UNL     1       1.948   7.253  19.886  0.00  0.00    +0.000 NA
ENDROOT
BRANCH   1  12
ATOM     11  O   UNL     1       1.956   4.984  17.725  0.00  0.00    +0.000 OA
ATOM     12  C   UNL     1       2.742   5.865  18.057  0.00  0.00    +0.000 C 
ATOM     13  N   UNL     1       4.113   5.727  18.009  0.00  0.00    +0.000 N 
ATOM     14  H   UNL     1       4.668   6.549  18.247  0.00  0.00    +0.000 HD
BRANCH  13  15
ATOM     15  C   UNL     1       4.748   4.543  17.471  0.00  0.00    +0.000 C 
BRANCH  15  16
ATOM     16  C   UNL     1       6.156   4.306  18.019  0.00  0.00    +0.000 C 
BRANCH  16  17
ATOM     17  N   UNL     1       6.972   5.505  18.096  0.00  0.00    +0.000 N 
ATOM     18  C   UNL     1       7.201   6.400  16.981  0.00  0.00    +0.000 C 
ATOM     19  C   UNL     1       7.772   7.636  17.663  0.00  0.00    +0.000 C 
ATOM     20  N   UNL     1       8.298   7.120  18.899  0.00  0.00    +0.000 N 
ATOM     21  C   UNL     1       7.692   5.910  19.211  0.00  0.00    +0.000 C 
ATOM     22  O   UNL     1       7.768   5.351  20.291  0.00  0.00    +0.000 OA
ATOM     23  H   UNL     1       8.695   7.671  19.647  0.00  0.00    +0.000 HD
ENDBRANCH  16  17
ENDBRANCH  15  16
ENDBRANCH  13  15
ENDBRANCH   1  12
BRANCH   6  24
ATOM     24  O   UNL     1       0.079  12.050  21.943  0.00  0.00    +0.000 OA
BRANCH  24  25
ATOM     25  C   UNL     1      -1.292  12.275  21.901  0.00  0.00    +0.000 A 
ATOM     26  C   UNL     1      -1.993  12.100  23.086  0.00  0.00    +0.000 A 
ATOM     27  C   UNL     1      -3.367  12.340  23.082  0.00  0.00    +0.000 A 
ATOM     28  C   UNL     1      -3.998  12.740  21.898  0.00  0.00    +0.000 A 
ATOM     29  C   UNL     1      -3.212  12.860  20.762  0.00  0.00    +0.000 A 
ATOM     30  N   UNL     1      -1.883  12.621  20.735  0.00  0.00    +0.000 NA
BRANCH  28  31
ATOM     31  C   UNL     1      -5.461  13.040  21.806  0.00  0.00    +0.000 C 
ATOM     32  F   UNL     1      -5.995  13.501  22.970  0.00  0.00    +0.000 F 
ATOM     33  F   UNL     1      -5.740  13.986  20.867  0.00  0.00    +0.000 F 
ATOM     34  F   UNL     1      -6.196  11.947  21.462  0.00  0.00    +0.000 F 
ENDBRANCH  28  31
ENDBRANCH  24  25
ENDBRANCH   6  24
TORSDOF 7
ENDMDL
