MODEL 1
REMARK VINA RESULT:      -8.0      0.000      0.000
REMARK  Name = 
REMARK  4 active torsions:
REMARK  status: ('A' for Active; 'I' for Inactive)
REMARK    1  A    between atoms: C_1  and  C_2
REMARK    2  A    between atoms: C_5  and  C_6
REMARK    3  A    between atoms: C_14  and  C_15
REMARK    4  A    between atoms: N_17  and  C_18
REMARK                            x       y       z     vdW  Elec       q    Type
REMARK                         _______ _______ _______ _____ _____    ______ ____
ROOT
ATOM      1  C   UNL     1       2.917   6.022  19.280  0.00  0.00    +0.000 A 
ATOM      2  C   UNL     1       2.184   7.232  19.409  0.00  0.00    +0.000 A 
ATOM      3  N   UNL     1       1.490   7.746  20.583  0.00  0.00    +0.000 N 
ATOM      4  C   UNL     1       0.824   8.965  20.681  0.00  0.00    +0.000 A 
ATOM      5  N   UNL     1       2.846   5.265  20.383  0.00  0.00    +0.000 NA
ATOM      6  S   UNL     1      -0.108   9.323  22.075  0.00  0.00    +0.000 S 
ATOM      7  C   UNL     1      -0.280   9.644  19.876  0.00  0.00    +0.000 A 
ATOM      8  C   UNL     1      -1.267  10.675  19.810  0.00  0.00    +0.000 A 
ATOM      9  C   UNL     1      -0.914  11.947  20.217  0.00  0.00    +0.000 A 
ATOM     10  C   UNL     1       0.456  12.070  20.708  0.00  0.00    +0.000 A 
ATOM     11  C   UNL     1       1.638  10.990  20.558  0.00  0.00    +0.000 A 
ATOM     12  C   UNL     1       1.397   9.504  19.893  0.00  0.00    +0.000 A 
ENDROOT
BRANCH   1  17
ATOM     13  C   UNL     1       6.104   4.842  14.565  0.00  0.00    +0.000 C 
ATOM     14  C   UNL     1       5.293   5.139  15.794  0.00  0.00    +0.000 A 
ATOM     15  C   UNL     1       4.619   4.129  16.492  0.00  0.00    +0.000 A 
ATOM     16  C   UNL     1       3.842   4.423  17.623  0.00  0.00    +0.000 A 
ATOM     17  C   UNL     1       3.717   5.737  18.084  0.00  0.00    +0.000 A 
ATOM     18  C   UNL     1       4.414   6.746  17.392  0.00  0.00    +0.000 A 
ATOM     19  C   UNL     1       5.188   6.453  16.262  0.00  0.00    +0.000 A 
ENDBRANCH   1  17
BRANCH   9  20
ATOM     20  C   UNL     1      -2.112  12.959  20.137  0.00  0.00    +0.000 C 
ATOM     21  O   UNL     1      -1.938  14.122  20.388  0.00  0.00    +0.000 OA
ATOM     22  N   UNL     1      -3.344  12.415  19.788  0.00  0.00    +0.000 N 
ATOM     23  H   UNL     1      -3.332  11.437  19.502  0.00  0.00    +0.000 HD
BRANCH  22  24
ATOM     24  C   UNL     1      -4.710  13.058  19.867  0.00  0.00    +0.000 C 
ATOM     25  C   UNL     1      -5.718  12.488  18.856  0.00  0.00    +0.000 C 
ATOM     26  C   UNL     1      -6.402  11.161  19.225  0.00  0.00    +0.000 C 
ATOM     27  C   UNL     1      -7.664  11.321  20.078  0.00  0.00    +0.000 C 
ATOM     28  C   UNL     1      -7.437  11.843  21.492  0.00  0.00    +0.000 C 
ATOM     29  C   UNL     1      -6.685  13.168  21.578  0.00  0.00    +0.000 C 
ATOM     30  C   UNL     1      -5.174  13.029  21.343  0.00  0.00    +0.000 C 
ENDBRANCH  22  24
ENDBRANCH   9  20
TORSDOF 3
ENDMDL
MODEL 2
REMARK VINA RESULT:      -7.7      3.348     10.354
REMARK  Name = 
REMARK  4 active torsions:
REMARK  status: ('A' for Active; 'I' for Inactive)
REMARK    1  A    between atoms: C_1  and  C_2
REMARK    2  A    between atoms: C_5  and  C_6
REMARK    3  A    between atoms: C_14  and  C_15
REMARK    4  A    between atoms: N_17  and  C_18
REMARK                            x       y       z     vdW  Elec       q    Type
REMARK                         _______ _______ _______ _____ _____    ______ ____
ROOT
ATOM      1  C   UNL     1      -3.135  13.757  21.384  0.00  0.00    +0.000 A 
ATOM      2  C   UNL     1      -2.132  12.901  20.858  0.00  0.00    +0.000 A 
ATOM      3  N   UNL     1      -2.166  12.118  19.630  0.00  0.00    +0.000 N 
ATOM      4  C   UNL     1      -1.137  11.328  19.124  0.00  0.00    +0.000 A 
ATOM      5  N   UNL     1      -4.261  13.726  20.658  0.00  0.00    +0.000 NA
ATOM      6  S   UNL     1      -1.419  10.318  17.767  0.00  0.00    +0.000 S 
ATOM      7  C   UNL     1      -0.293  10.188  19.687  0.00  0.00    +0.000 A 
ATOM      8  C   UNL     1       0.600   9.104  19.426  0.00  0.00    +0.000 A 
ATOM      9  C   UNL     1       1.642   9.311  18.544  0.00  0.00    +0.000 A 
ATOM     10  C   UNL     1       1.678  10.644  17.948  0.00  0.00    +0.000 A 
ATOM     11  C   UNL     1       0.839  11.934  18.412  0.00  0.00    +0.000 A 
ATOM     12  C   UNL     1      -0.292  11.869  19.606  0.00  0.00    +0.000 A 
ENDROOT
BRANCH   1  17
ATOM     13  C   UNL     1      -2.064  17.141  25.987  0.00  0.00    +0.000 C 
ATOM     14  C   UNL     1      -2.342  16.251  24.808  0.00  0.00    +0.000 A 
ATOM     15  C   UNL     1      -1.367  15.386  24.296  0.00  0.00    +0.000 A 
ATOM     16  C   UNL     1      -1.629  14.580  23.177  0.00  0.00    +0.000 A 
ATOM     17  C   UNL     1      -2.873  14.622  22.540  0.00  0.00    +0.000 A 
ATOM     18  C   UNL     1      -3.857  15.477  23.073  0.00  0.00    +0.000 A 
ATOM     19  C   UNL     1      -3.595  16.283  24.188  0.00  0.00    +0.000 A 
ENDBRANCH   1  17
BRANCH   9  20
ATOM     20  C   UNL     1       2.506   8.019  18.318  0.00  0.00    +0.000 C 
ATOM     21  O   UNL     1       3.238   7.940  17.368  0.00  0.00    +0.000 OA
ATOM     22  N   UNL     1       2.344   7.008  19.260  0.00  0.00    +0.000 N 
ATOM     23  H   UNL     1       1.772   7.244  20.070  0.00  0.00    +0.000 HD
BRANCH  22  24
ATOM     24  C   UNL     1       2.827   5.577  19.194  0.00  0.00    +0.000 C 
ATOM     25  C   UNL     1       2.626   4.798  20.504  0.00  0.00    +0.000 C 
ATOM     26  C   UNL     1       1.221   4.234  20.772  0.00  0.00    +0.000 C 
ATOM     27  C   UNL     1       0.970   2.854  20.156  0.00  0.00    +0.000 C 
ATOM     28  C   UNL     1       0.928   2.815  18.633  0.00  0.00    +0.000 C 
ATOM     29  C   UNL     1       2.162   3.382  17.937  0.00  0.00    +0.000 C 
ATOM     30  C   UNL     1       2.211   4.916  17.937  0.00  0.00    +0.000 C 
ENDBRANCH  22  24
ENDBRANCH   9  20
TORSDOF 3
ENDMDL
MODEL 3
REMARK VINA RESULT:      -7.7      0.755      1.294
REMARK  Name = 
REMARK  4 active torsions:
REMARK  status: ('A' for Active; 'I' for Inactive)
REMARK    1  A    between atoms: C_1  and  C_2
REMARK    2  A    between atoms: C_5  and  C_6
REMARK    3  A    between atoms: C_14  and  C_15
REMARK    4  A    between atoms: N_17  and  C_18
REMARK                            x       y       z     vdW  Elec       q    Type
REMARK                         _______ _______ _______ _____ _____    ______ ____
ROOT
ATOM      1  C   UNL     1       2.762   6.027  19.495  0.00  0.00    +0.000 A 
ATOM      2  C   UNL     1       2.045   7.242  19.659  0.00  0.00    +0.000 A 
ATOM      3  N   UNL     1       1.343   7.723  20.842  0.00  0.00    +0.000 N 
ATOM      4  C   UNL     1       0.693   8.947  20.976  0.00  0.00    +0.000 A 
ATOM      5  N   UNL     1       2.665   5.231  20.569  0.00  0.00    +0.000 NA
ATOM      6  S   UNL     1      -0.251   9.268  22.372  0.00  0.00    +0.000 S 
ATOM      7  C   UNL     1      -0.391   9.671  20.183  0.00  0.00    +0.000 A 
ATOM      8  C   UNL     1      -1.362  10.718  20.143  0.00  0.00    +0.000 A 
ATOM      9  C   UNL     1      -0.997  11.969  20.601  0.00  0.00    +0.000 A 
ATOM     10  C   UNL     1       0.369  12.054  21.112  0.00  0.00    +0.000 A 
ATOM     11  C   UNL     1       1.537  10.963  20.938  0.00  0.00    +0.000 A 
ATOM     12  C   UNL     1       1.283   9.506  20.216  0.00  0.00    +0.000 A 
ENDROOT
BRANCH   1  17
ATOM     13  C   UNL     1       5.950   5.070  14.731  0.00  0.00    +0.000 C 
ATOM     14  C   UNL     1       5.112   5.323  15.951  0.00  0.00    +0.000 A 
ATOM     15  C   UNL     1       4.839   6.622  16.399  0.00  0.00    +0.000 A 
ATOM     16  C   UNL     1       4.079   6.845  17.557  0.00  0.00    +0.000 A 
ATOM     17  C   UNL     1       3.572   5.774  18.299  0.00  0.00    +0.000 A 
ATOM     18  C   UNL     1       3.831   4.470  17.832  0.00  0.00    +0.000 A 
ATOM     19  C   UNL     1       4.592   4.247  16.679  0.00  0.00    +0.000 A 
ENDBRANCH   1  17
BRANCH   9  20
ATOM     20  C   UNL     1      -2.179  13.001  20.543  0.00  0.00    +0.000 C 
ATOM     21  O   UNL     1      -2.016  14.080  20.038  0.00  0.00    +0.000 OA
ATOM     22  N   UNL     1      -3.375  12.586  21.121  0.00  0.00    +0.000 N 
ATOM     23  H   UNL     1      -3.409  11.612  21.421  0.00  0.00    +0.000 HD
BRANCH  22  24
ATOM     24  C   UNL     1      -4.597  13.415  21.447  0.00  0.00    +0.000 C 
ATOM     25  C   UNL     1      -5.773  13.182  20.486  0.00  0.00    +0.000 C 
ATOM     26  C   UNL     1      -6.642  11.938  20.735  0.00  0.00    +0.000 C 
ATOM     27  C   UNL     1      -7.776  12.155  21.741  0.00  0.00    +0.000 C 
ATOM     28  C   UNL     1      -7.338  12.399  23.180  0.00  0.00    +0.000 C 
ATOM     29  C   UNL     1      -6.363  13.557  23.371  0.00  0.00    +0.000 C 
ATOM     30  C   UNL     1      -4.927  13.221  22.947  0.00  0.00    +0.000 C 
ENDBRANCH  22  24
ENDBRANCH   9  20
TORSDOF 3
ENDMDL
MODEL 4
REMARK VINA RESULT:      -7.6      3.352     10.634
REMARK  Name = 
REMARK  4 active torsions:
REMARK  status: ('A' for Active; 'I' for Inactive)
REMARK    1  A    between atoms: C_1  and  C_2
REMARK    2  A    between atoms: C_5  and  C_6
REMARK    3  A    between atoms: C_14  and  C_15
REMARK    4  A    between atoms: N_17  and  C_18
REMARK                            x       y       z     vdW  Elec       q    Type
REMARK                         _______ _______ _______ _____ _____    ______ ____
ROOT
ATOM      1  C   UNL     1      -2.947  13.952  21.707  0.00  0.00    +0.000 A 
ATOM      2  C   UNL     1      -1.997  13.023  21.204  0.00  0.00    +0.000 A 
ATOM      3  N   UNL     1      -2.089  12.195  20.009  0.00  0.00    +0.000 N 
ATOM      4  C   UNL     1      -1.110  11.332  19.525  0.00  0.00    +0.000 A 
ATOM      5  N   UNL     1      -4.082  13.952  20.995  0.00  0.00    +0.000 NA
ATOM      6  S   UNL     1      -1.463  10.284  18.213  0.00  0.00    +0.000 S 
ATOM      7  C   UNL     1      -0.320  10.172  20.124  0.00  0.00    +0.000 A 
ATOM      8  C   UNL     1       0.510   9.032  19.898  0.00  0.00    +0.000 A 
ATOM      9  C   UNL     1       1.550   9.147  18.996  0.00  0.00    +0.000 A 
ATOM     10  C   UNL     1       1.649  10.451  18.346  0.00  0.00    +0.000 A 
ATOM     11  C   UNL     1       0.885  11.802  18.767  0.00  0.00    +0.000 A 
ATOM     12  C   UNL     1      -0.231  11.845  19.975  0.00  0.00    +0.000 A 
ENDROOT
BRANCH   1  17
ATOM     13  C   UNL     1      -1.631  17.529  26.095  0.00  0.00    +0.000 C 
ATOM     14  C   UNL     1      -1.953  16.605  24.955  0.00  0.00    +0.000 A 
ATOM     15  C   UNL     1      -2.067  17.074  23.640  0.00  0.00    +0.000 A 
ATOM     16  C   UNL     1      -2.397  16.207  22.587  0.00  0.00    +0.000 A 
ATOM     17  C   UNL     1      -2.624  14.847  22.823  0.00  0.00    +0.000 A 
ATOM     18  C   UNL     1      -2.486  14.377  24.143  0.00  0.00    +0.000 A 
ATOM     19  C   UNL     1      -2.160  15.243  25.194  0.00  0.00    +0.000 A 
ENDBRANCH   1  17
BRANCH   9  20
ATOM     20  C   UNL     1       2.342   7.803  18.814  0.00  0.00    +0.000 C 
ATOM     21  O   UNL     1       2.903   7.568  17.776  0.00  0.00    +0.000 OA
ATOM     22  N   UNL     1       2.322   6.935  19.901  0.00  0.00    +0.000 N 
ATOM     23  H   UNL     1       1.898   7.300  20.753  0.00  0.00    +0.000 HD
BRANCH  22  24
ATOM     24  C   UNL     1       2.762   5.489  19.955  0.00  0.00    +0.000 C 
ATOM     25  C   UNL     1       1.745   4.513  19.343  0.00  0.00    +0.000 C 
ATOM     26  C   UNL     1       1.742   4.377  17.811  0.00  0.00    +0.000 C 
ATOM     27  C   UNL     1       2.741   3.351  17.270  0.00  0.00    +0.000 C 
ATOM     28  C   UNL     1       4.211   3.710  17.448  0.00  0.00    +0.000 C 
ATOM     29  C   UNL     1       4.634   4.010  18.883  0.00  0.00    +0.000 C 
ATOM     30  C   UNL     1       4.193   5.396  19.372  0.00  0.00    +0.000 C 
ENDBRANCH  22  24
ENDBRANCH   9  20
TORSDOF 3
ENDMDL
MODEL 5
REMARK VINA RESULT:      -7.6      3.681     10.573
REMARK  Name = 
REMARK  4 active torsions:
REMARK  status: ('A' for Active; 'I' for Inactive)
REMARK    1  A    between atoms: C_1  and  C_2
REMARK    2  A    between atoms: C_5  and  C_6
REMARK    3  A    between atoms: C_14  and  C_15
REMARK    4  A    between atoms: N_17  and  C_18
REMARK                            x       y       z     vdW  Elec       q    Type
REMARK                         _______ _______ _______ _____ _____    ______ ____
ROOT
ATOM      1  C   UNL     1      -2.155  14.084  22.634  0.00  0.00    +0.000 A 
ATOM      2  C   UNL     1      -1.339  13.120  21.982  0.00  0.00    +0.000 A 
ATOM      3  N   UNL     1      -1.656  12.314  20.811  0.00  0.00    +0.000 N 
ATOM      4  C   UNL     1      -0.805  11.415  20.172  0.00  0.00    +0.000 A 
ATOM      5  N   UNL     1      -3.386  14.145  22.109  0.00  0.00    +0.000 NA
ATOM      6  S   UNL     1      -1.408  10.403  18.925  0.00  0.00    +0.000 S 
ATOM      7  C   UNL     1       0.014  10.213  20.632  0.00  0.00    +0.000 A 
ATOM      8  C   UNL     1       0.745   9.040  20.270  0.00  0.00    +0.000 A 
ATOM      9  C   UNL     1       1.635   9.121  19.218  0.00  0.00    +0.000 A 
ATOM     10  C   UNL     1       1.692  10.429  18.569  0.00  0.00    +0.000 A 
ATOM     11  C   UNL     1       1.066  11.806  19.114  0.00  0.00    +0.000 A 
ATOM     12  C   UNL     1       0.156  11.882  20.482  0.00  0.00    +0.000 A 
ENDROOT
BRANCH   1  17
ATOM     13  C   UNL     1      -0.089  17.511  26.849  0.00  0.00    +0.000 C 
ATOM     14  C   UNL     1      -0.639  16.636  25.758  0.00  0.00    +0.000 A 
ATOM     15  C   UNL     1      -1.661  15.710  26.005  0.00  0.00    +0.000 A 
ATOM     16  C   UNL     1      -2.146  14.877  24.985  0.00  0.00    +0.000 A 
ATOM     17  C   UNL     1      -1.620  14.947  23.692  0.00  0.00    +0.000 A 
ATOM     18  C   UNL     1      -0.608  15.896  23.444  0.00  0.00    +0.000 A 
ATOM     19  C   UNL     1      -0.122  16.724  24.462  0.00  0.00    +0.000 A 
ENDBRANCH   1  17
BRANCH   9  20
ATOM     20  C   UNL     1       2.325   7.746  18.903  0.00  0.00    +0.000 C 
ATOM     21  O   UNL     1       2.699   7.498  17.788  0.00  0.00    +0.000 OA
ATOM     22  N   UNL     1       2.443   6.868  19.976  0.00  0.00    +0.000 N 
ATOM     23  H   UNL     1       2.180   7.242  20.887  0.00  0.00    +0.000 HD
BRANCH  22  24
ATOM     24  C   UNL     1       2.821   5.404  19.953  0.00  0.00    +0.000 C 
ATOM     25  C   UNL     1       1.737   4.499  19.345  0.00  0.00    +0.000 C 
ATOM     26  C   UNL     1       1.666   4.428  17.810  0.00  0.00    +0.000 C 
ATOM     27  C   UNL     1       2.597   3.384  17.186  0.00  0.00    +0.000 C 
ATOM     28  C   UNL     1       4.087   3.673  17.316  0.00  0.00    +0.000 C 
ATOM     29  C   UNL     1       4.580   3.893  18.743  0.00  0.00    +0.000 C 
ATOM     30  C   UNL     1       4.221   5.275  19.306  0.00  0.00    +0.000 C 
ENDBRANCH  22  24
ENDBRANCH   9  20
TORSDOF 3
ENDMDL
MODEL 6
REMARK VINA RESULT:      -7.5      3.625     10.299
REMARK  Name = 
REMARK  4 active torsions:
REMARK  status: ('A' for Active; 'I' for Inactive)
REMARK    1  A    between atoms: C_1  and  C_2
REMARK    2  A    between atoms: C_5  and  C_6
REMARK    3  A    between atoms: C_14  and  C_15
REMARK    4  A    between atoms: N_17  and  C_18
REMARK                            x       y       z     vdW  Elec       q    Type
REMARK                         _______ _______ _______ _____ _____    ______ ____
ROOT
ATOM      1  C   UNL     1      -2.262  13.474  21.985  0.00  0.00    +0.000 A 
ATOM      2  C   UNL     1      -1.343  12.604  21.340  0.00  0.00    +0.000 A 
ATOM      3  N   UNL     1      -1.554  11.790  20.150  0.00  0.00    +0.000 N 
ATOM      4  C   UNL     1      -0.606  10.987  19.520  0.00  0.00    +0.000 A 
ATOM      5  N   UNL     1      -3.482  13.423  21.433  0.00  0.00    +0.000 NA
ATOM      6  S   UNL     1      -1.080   9.942  18.245  0.00  0.00    +0.000 S 
ATOM      7  C   UNL     1       0.316   9.863  19.982  0.00  0.00    +0.000 A 
ATOM      8  C   UNL     1       1.165   8.772  19.621  0.00  0.00    +0.000 A 
ATOM      9  C   UNL     1       2.066   8.957  18.591  0.00  0.00    +0.000 A 
ATOM     10  C   UNL     1       2.009  10.274  17.962  0.00  0.00    +0.000 A 
ATOM     11  C   UNL     1       1.241  11.575  18.511  0.00  0.00    +0.000 A 
ATOM     12  C   UNL     1       0.298  11.541  19.858  0.00  0.00    +0.000 A 
ENDROOT
BRANCH   1  17
ATOM     13  C   UNL     1      -0.634  17.025  26.288  0.00  0.00    +0.000 C 
ATOM     14  C   UNL     1      -1.070  16.118  25.173  0.00  0.00    +0.000 A 
ATOM     15  C   UNL     1      -2.129  15.215  25.333  0.00  0.00    +0.000 A 
ATOM     16  C   UNL     1      -2.509  14.352  24.293  0.00  0.00    +0.000 A 
ATOM     17  C   UNL     1      -1.837  14.368  23.067  0.00  0.00    +0.000 A 
ATOM     18  C   UNL     1      -0.787  15.293  22.904  0.00  0.00    +0.000 A 
ATOM     19  C   UNL     1      -0.406  16.152  23.943  0.00  0.00    +0.000 A 
ENDBRANCH   1  17
BRANCH   9  20
ATOM     20  C   UNL     1       2.893   7.660  18.274  0.00  0.00    +0.000 C 
ATOM     21  O   UNL     1       3.835   7.711  17.528  0.00  0.00    +0.000 OA
ATOM     22  N   UNL     1       2.450   6.493  18.888  0.00  0.00    +0.000 N 
ATOM     23  H   UNL     1       1.706   6.607  19.575  0.00  0.00    +0.000 HD
BRANCH  22  24
ATOM     24  C   UNL     1       2.862   5.066  18.600  0.00  0.00    +0.000 C 
ATOM     25  C   UNL     1       3.305   4.290  19.850  0.00  0.00    +0.000 C 
ATOM     26  C   UNL     1       2.194   3.711  20.742  0.00  0.00    +0.000 C 
ATOM     27  C   UNL     1       1.699   2.327  20.311  0.00  0.00    +0.000 C 
ATOM     28  C   UNL     1       0.951   2.282  18.984  0.00  0.00    +0.000 C 
ATOM     29  C   UNL     1       1.711   2.861  17.794  0.00  0.00    +0.000 C 
ATOM     30  C   UNL     1       1.738   4.395  17.774  0.00  0.00    +0.000 C 
ENDBRANCH  22  24
ENDBRANCH   9  20
TORSDOF 3
ENDMDL
MODEL 7
REMARK VINA RESULT:      -7.4      2.203      2.833
REMARK  Name = 
REMARK  4 active torsions:
REMARK  status: ('A' for Active; 'I' for Inactive)
REMARK    1  A    between atoms: C_1  and  C_2
REMARK    2  A    between atoms: C_5  and  C_6
REMARK    3  A    between atoms: C_14  and  C_15
REMARK    4  A    between atoms: N_17  and  C_18
REMARK                            x       y       z     vdW  Elec       q    Type
REMARK                         _______ _______ _______ _____ _____    ______ ____
ROOT
ATOM      1  C   UNL     1       3.365   7.102  17.866  0.00  0.00    +0.000 A 
ATOM      2  C   UNL     1       2.394   7.994  18.396  0.00  0.00    +0.000 A 
ATOM      3  N   UNL     1       2.260   9.425  18.161  0.00  0.00    +0.000 N 
ATOM      4  C   UNL     1       1.260  10.254  18.664  0.00  0.00    +0.000 A 
ATOM      5  N   UNL     1       4.293   7.737  17.138  0.00  0.00    +0.000 NA
ATOM      6  S   UNL     1       1.367  11.953  18.448  0.00  0.00    +0.000 S 
ATOM      7  C   UNL     1       0.726  10.553  20.061  0.00  0.00    +0.000 A 
ATOM      8  C   UNL     1      -0.047  11.414  20.900  0.00  0.00    +0.000 A 
ATOM      9  C   UNL     1      -1.278  11.842  20.443  0.00  0.00    +0.000 A 
ATOM     10  C   UNL     1      -1.627  11.371  19.105  0.00  0.00    +0.000 A 
ATOM     11  C   UNL     1      -0.888  10.218  18.262  0.00  0.00    +0.000 A 
ATOM     12  C   UNL     1       0.479   9.473  18.796  0.00  0.00    +0.000 A 
ENDROOT
BRANCH   1  17
ATOM     13  C   UNL     1       2.974   1.348  18.582  0.00  0.00    +0.000 C 
ATOM     14  C   UNL     1       3.085   2.832  18.381  0.00  0.00    +0.000 A 
ATOM     15  C   UNL     1       4.281   3.519  18.626  0.00  0.00    +0.000 A 
ATOM     16  C   UNL     1       4.365   4.911  18.463  0.00  0.00    +0.000 A 
ATOM     17  C   UNL     1       3.252   5.652  18.052  0.00  0.00    +0.000 A 
ATOM     18  C   UNL     1       2.058   4.953  17.785  0.00  0.00    +0.000 A 
ATOM     19  C   UNL     1       1.974   3.565  17.952  0.00  0.00    +0.000 A 
ENDBRANCH   1  17
BRANCH   9  20
ATOM     20  C   UNL     1      -1.987  12.819  21.447  0.00  0.00    +0.000 C 
ATOM     21  O   UNL     1      -1.387  13.252  22.395  0.00  0.00    +0.000 OA
ATOM     22  N   UNL     1      -3.318  13.113  21.170  0.00  0.00    +0.000 N 
ATOM     23  H   UNL     1      -3.674  12.763  20.281  0.00  0.00    +0.000 HD
BRANCH  22  24
ATOM     24  C   UNL     1      -4.332  13.801  22.056  0.00  0.00    +0.000 C 
ATOM     25  C   UNL     1      -5.546  14.351  21.290  0.00  0.00    +0.000 C 
ATOM     26  C   UNL     1      -6.654  13.349  20.926  0.00  0.00    +0.000 C 
ATOM     27  C   UNL     1      -7.701  13.145  22.025  0.00  0.00    +0.000 C 
ATOM     28  C   UNL     1      -7.200  12.456  23.288  0.00  0.00    +0.000 C 
ATOM     29  C   UNL     1      -5.999  13.122  23.954  0.00  0.00    +0.000 C 
ATOM     30  C   UNL     1      -4.672  12.852  23.230  0.00  0.00    +0.000 C 
ENDBRANCH  22  24
ENDBRANCH   9  20
TORSDOF 3
ENDMDL
MODEL 8
REMARK VINA RESULT:      -7.3      2.403      3.183
REMARK  Name = 
REMARK  4 active torsions:
REMARK  status: ('A' for Active; 'I' for Inactive)
REMARK    1  A    between atoms: C_1  and  C_2
REMARK    2  A    between atoms: C_5  and  C_6
REMARK    3  A    between atoms: C_14  and  C_15
REMARK    4  A    between atoms: N_17  and  C_18
REMARK                            x       y       z     vdW  Elec       q    Type
REMARK                         _______ _______ _______ _____ _____    ______ ____
ROOT
ATOM      1  C   UNL     1       3.450   6.970  17.786  0.00  0.00    +0.000 A 
ATOM      2  C   UNL     1       2.513   7.938  18.239  0.00  0.00    +0.000 A 
ATOM      3  N   UNL     1       2.491   9.368  17.965  0.00  0.00    +0.000 N 
ATOM      4  C   UNL     1       1.523  10.275  18.390  0.00  0.00    +0.000 A 
ATOM      5  N   UNL     1       4.460   7.523  17.101  0.00  0.00    +0.000 NA
ATOM      6  S   UNL     1       1.758  11.957  18.145  0.00  0.00    +0.000 S 
ATOM      7  C   UNL     1       0.931  10.645  19.747  0.00  0.00    +0.000 A 
ATOM      8  C   UNL     1       0.172  11.576  20.520  0.00  0.00    +0.000 A 
ATOM      9  C   UNL     1      -0.999  12.074  19.982  0.00  0.00    +0.000 A 
ATOM     10  C   UNL     1      -1.301  11.594  18.636  0.00  0.00    +0.000 A 
ATOM     11  C   UNL     1      -0.595  10.373  17.863  0.00  0.00    +0.000 A 
ATOM     12  C   UNL     1       0.684   9.552  18.492  0.00  0.00    +0.000 A 
ENDROOT
BRANCH   1  17
ATOM     13  C   UNL     1       2.519   1.297  18.644  0.00  0.00    +0.000 C 
ATOM     14  C   UNL     1       2.751   2.767  18.439  0.00  0.00    +0.000 A 
ATOM     15  C   UNL     1       1.705   3.636  18.103  0.00  0.00    +0.000 A 
ATOM     16  C   UNL     1       1.939   5.003  17.885  0.00  0.00    +0.000 A 
ATOM     17  C   UNL     1       3.228   5.535  17.996  0.00  0.00    +0.000 A 
ATOM     18  C   UNL     1       4.272   4.661  18.356  0.00  0.00    +0.000 A 
ATOM     19  C   UNL     1       4.038   3.297  18.570  0.00  0.00    +0.000 A 
ENDBRANCH   1  17
BRANCH   9  20
ATOM     20  C   UNL     1      -1.696  13.122  20.920  0.00  0.00    +0.000 C 
ATOM     21  O   UNL     1      -1.326  14.266  20.929  0.00  0.00    +0.000 OA
ATOM     22  N   UNL     1      -2.721  12.630  21.722  0.00  0.00    +0.000 N 
ATOM     23  H   UNL     1      -3.003  11.667  21.542  0.00  0.00    +0.000 HD
BRANCH  22  24
ATOM     24  C   UNL     1      -3.407  13.306  22.888  0.00  0.00    +0.000 C 
ATOM     25  C   UNL     1      -4.574  14.216  22.472  0.00  0.00    +0.000 C 
ATOM     26  C   UNL     1      -5.919  13.532  22.173  0.00  0.00    +0.000 C 
ATOM     27  C   UNL     1      -6.800  13.313  23.406  0.00  0.00    +0.000 C 
ATOM     28  C   UNL     1      -6.271  12.306  24.420  0.00  0.00    +0.000 C 
ATOM     29  C   UNL     1      -4.864  12.589  24.938  0.00  0.00    +0.000 C 
ATOM     30  C   UNL     1      -3.760  12.224  23.936  0.00  0.00    +0.000 C 
ENDBRANCH  22  24
ENDBRANCH   9  20
TORSDOF 3
ENDMDL
MODEL 9
REMARK VINA RESULT:      -7.3      2.718      4.080
REMARK  Name = 
REMARK  4 active torsions:
REMARK  status: ('A' for Active; 'I' for Inactive)
REMARK    1  A    between atoms: C_1  and  C_2
REMARK    2  A    between atoms: C_5  and  C_6
REMARK    3  A    between atoms: C_14  and  C_15
REMARK    4  A    between atoms: N_17  and  C_18
REMARK                            x       y       z     vdW  Elec       q    Type
REMARK                         _______ _______ _______ _____ _____    ______ ____
ROOT
ATOM      1  C   UNL     1       2.488   7.479  18.510  0.00  0.00    +0.000 A 
ATOM      2  C   UNL     1       1.498   8.413  18.918  0.00  0.00    +0.000 A 
ATOM      3  N   UNL     1       1.426   9.838  18.624  0.00  0.00    +0.000 N 
ATOM      4  C   UNL     1       0.408  10.709  19.004  0.00  0.00    +0.000 A 
ATOM      5  N   UNL     1       3.498   8.065  17.853  0.00  0.00    +0.000 NA
ATOM      6  S   UNL     1       0.583  12.396  18.744  0.00  0.00    +0.000 S 
ATOM      7  C   UNL     1      -0.245  11.071  20.334  0.00  0.00    +0.000 A 
ATOM      8  C   UNL     1      -1.068  11.979  21.068  0.00  0.00    +0.000 A 
ATOM      9  C   UNL     1      -2.238  12.422  20.484  0.00  0.00    +0.000 A 
ATOM     10  C   UNL     1      -2.474  11.913  19.135  0.00  0.00    +0.000 A 
ATOM     11  C   UNL     1      -1.693  10.713  18.403  0.00  0.00    +0.000 A 
ATOM     12  C   UNL     1      -0.404   9.953  19.087  0.00  0.00    +0.000 A 
ENDROOT
BRANCH   1  17
ATOM     13  C   UNL     1       1.790   1.768  19.334  0.00  0.00    +0.000 C 
ATOM     14  C   UNL     1       1.955   3.245  19.111  0.00  0.00    +0.000 A 
ATOM     15  C   UNL     1       2.353   3.760  17.871  0.00  0.00    +0.000 A 
ATOM     16  C   UNL     1       2.531   5.139  17.683  0.00  0.00    +0.000 A 
ATOM     17  C   UNL     1       2.317   6.039  18.732  0.00  0.00    +0.000 A 
ATOM     18  C   UNL     1       1.895   5.518  19.970  0.00  0.00    +0.000 A 
ATOM     19  C   UNL     1       1.720   4.141  20.159  0.00  0.00    +0.000 A 
ENDBRANCH   1  17
BRANCH   9  20
ATOM     20  C   UNL     1      -3.010  13.451  21.384  0.00  0.00    +0.000 C 
ATOM     21  O   UNL     1      -2.786  14.628  21.284  0.00  0.00    +0.000 OA
ATOM     22  N   UNL     1      -3.921  12.907  22.283  0.00  0.00    +0.000 N 
ATOM     23  H   UNL     1      -4.089  11.906  22.194  0.00  0.00    +0.000 HD
BRANCH  22  24
ATOM     24  C   UNL     1      -4.623  13.589  23.437  0.00  0.00    +0.000 C 
ATOM     25  C   UNL     1      -3.746  13.734  24.691  0.00  0.00    +0.000 C 
ATOM     26  C   UNL     1      -2.742  14.900  24.709  0.00  0.00    +0.000 C 
ATOM     27  C   UNL     1      -3.325  16.223  25.215  0.00  0.00    +0.000 C 
ATOM     28  C   UNL     1      -4.377  16.862  24.317  0.00  0.00    +0.000 C 
ATOM     29  C   UNL     1      -5.566  15.968  23.975  0.00  0.00    +0.000 C 
ATOM     30  C   UNL     1      -5.245  14.906  22.915  0.00  0.00    +0.000 C 
ENDBRANCH  22  24
ENDBRANCH   9  20
TORSDOF 3
ENDMDL
