MODEL 1
REMARK VINA RESULT:      -8.5      0.000      0.000
REMARK  Name = 
REMARK  3 active torsions:
REMARK  status: ('A' for Active; 'I' for Inactive)
REMARK    1  A    between atoms: C_3  and  N_4
REMARK    2  A    between atoms: N_4  and  C_5
REMARK    3  A    between atoms: N_17  and  C_18
REMARK                            x       y       z     vdW  Elec       q    Type
REMARK                         _______ _______ _______ _____ _____    ______ ____
ROOT
ATOM      1  O   UNL     1       5.261   6.813  17.592  0.00  0.00    +0.000 OA
ATOM      2  C   UNL     1       4.452   5.913  17.775  0.00  0.00    +0.000 C 
ATOM      3  C   UNL     1       4.815   4.475  17.540  0.00  0.00    +0.000 C 
ATOM      4  C   UNL     1       3.729   3.768  17.870  0.00  0.00    +0.000 C 
ATOM      5  C   UNL     1       3.562   2.285  17.813  0.00  0.00    +0.000 C 
ATOM      6  C   UNL     1       2.455   1.824  18.760  0.00  0.00    +0.000 C 
ATOM      7  C   UNL     1       1.174   2.645  18.563  0.00  0.00    +0.000 C 
ATOM      8  C   UNL     1       1.432   4.132  18.547  0.00  0.00    +0.000 C 
ATOM      9  C   UNL     1       2.645   4.632  18.281  0.00  0.00    +0.000 C 
ATOM     10  N   UNL     1       3.112   5.937  18.224  0.00  0.00    +0.000 N 
ENDROOT
BRANCH  10  11
ATOM     11  C   UNL     1       2.467   7.157  18.608  0.00  0.00    +0.000 A 
ATOM     12  C   UNL     1       2.096   7.390  19.943  0.00  0.00    +0.000 A 
ATOM     13  C   UNL     1       1.419   8.555  20.325  0.00  0.00    +0.000 A 
ATOM     14  C   UNL     1       1.100   9.518  19.375  0.00  0.00    +0.000 A 
ATOM     15  C   UNL     1       1.463   9.317  18.049  0.00  0.00    +0.000 A 
ATOM     16  C   UNL     1       2.138   8.147  17.671  0.00  0.00    +0.000 A 
ENDBRANCH  10  11
BRANCH   3  17
ATOM     17  N   UNL     1       6.047   4.095  17.043  0.00  0.00    +0.000 N 
ATOM     18  H   UNL     1       6.779   4.618  17.535  0.00  0.00    +0.000 HD
BRANCH  17  19
ATOM     19  C   UNL     1       6.313   4.161  15.648  0.00  0.00    +0.000 A 
ATOM     20  C   UNL     1       5.523   3.491  14.702  0.00  0.00    +0.000 A 
ATOM     21  C   UNL     1       5.767   3.636  13.335  0.00  0.00    +0.000 A 
ATOM     22  C   UNL     1       6.792   4.469  12.895  0.00  0.00    +0.000 A 
ATOM     23  C   UNL     1       7.562   5.169  13.823  0.00  0.00    +0.000 A 
ATOM     24  C   UNL     1       7.311   5.029  15.191  0.00  0.00    +0.000 A 
ENDBRANCH  17  19
ENDBRANCH   3  17
TORSDOF 3
ENDMDL
MODEL 2
REMARK VINA RESULT:      -8.5      0.120      1.012
REMARK  Name = 
REMARK  3 active torsions:
REMARK  status: ('A' for Active; 'I' for Inactive)
REMARK    1  A    between atoms: C_3  and  N_4
REMARK    2  A    between atoms: N_4  and  C_5
REMARK    3  A    between atoms: N_17  and  C_18
REMARK                            x       y       z     vdW  Elec       q    Type
REMARK                         _______ _______ _______ _____ _____    ______ ____
ROOT
ATOM      1  O   UNL     1       5.247   6.846  17.452  0.00  0.00    +0.000 OA
ATOM      2  C   UNL     1       4.448   5.943  17.659  0.00  0.00    +0.000 C 
ATOM      3  C   UNL     1       4.811   4.506  17.412  0.00  0.00    +0.000 C 
ATOM      4  C   UNL     1       3.738   3.794  17.775  0.00  0.00    +0.000 C 
ATOM      5  C   UNL     1       3.576   2.310  17.722  0.00  0.00    +0.000 C 
ATOM      6  C   UNL     1       2.500   1.844  18.701  0.00  0.00    +0.000 C 
ATOM      7  C   UNL     1       1.210   2.660  18.543  0.00  0.00    +0.000 C 
ATOM      8  C   UNL     1       1.461   4.148  18.520  0.00  0.00    +0.000 C 
ATOM      9  C   UNL     1       2.663   4.653  18.219  0.00  0.00    +0.000 C 
ATOM     10  N   UNL     1       3.122   5.960  18.148  0.00  0.00    +0.000 N 
ENDROOT
BRANCH  10  11
ATOM     11  C   UNL     1       2.484   7.178  18.551  0.00  0.00    +0.000 A 
ATOM     12  C   UNL     1       2.111   7.390  19.890  0.00  0.00    +0.000 A 
ATOM     13  C   UNL     1       1.440   8.551  20.290  0.00  0.00    +0.000 A 
ATOM     14  C   UNL     1       1.129   9.533  19.357  0.00  0.00    +0.000 A 
ATOM     15  C   UNL     1       1.494   9.353  18.028  0.00  0.00    +0.000 A 
ATOM     16  C   UNL     1       2.162   8.185  17.631  0.00  0.00    +0.000 A 
ENDBRANCH  10  11
BRANCH   3  17
ATOM     17  N   UNL     1       6.029   4.132  16.878  0.00  0.00    +0.000 N 
ATOM     18  H   UNL     1       6.776   4.609  17.393  0.00  0.00    +0.000 HD
BRANCH  17  19
ATOM     19  C   UNL     1       6.282   4.278  15.488  0.00  0.00    +0.000 A 
ATOM     20  C   UNL     1       7.348   5.047  14.997  0.00  0.00    +0.000 A 
ATOM     21  C   UNL     1       7.614   5.109  13.628  0.00  0.00    +0.000 A 
ATOM     22  C   UNL     1       6.829   4.387  12.732  0.00  0.00    +0.000 A 
ATOM     23  C   UNL     1       5.789   3.591  13.209  0.00  0.00    +0.000 A 
ATOM     24  C   UNL     1       5.530   3.523  14.582  0.00  0.00    +0.000 A 
ENDBRANCH  17  19
ENDBRANCH   3  17
TORSDOF 3
ENDMDL
MODEL 3
REMARK VINA RESULT:      -8.5      1.383      1.496
REMARK  Name = 
REMARK  3 active torsions:
REMARK  status: ('A' for Active; 'I' for Inactive)
REMARK    1  A    between atoms: C_3  and  N_4
REMARK    2  A    between atoms: N_4  and  C_5
REMARK    3  A    between atoms: N_17  and  C_18
REMARK                            x       y       z     vdW  Elec       q    Type
REMARK                         _______ _______ _______ _____ _____    ______ ____
ROOT
ATOM      1  O   UNL     1       4.839   6.755  17.992  0.00  0.00    +0.000 OA
ATOM      2  C   UNL     1       4.130   5.990  18.632  0.00  0.00    +0.000 C 
ATOM      3  C   UNL     1       4.555   4.575  18.906  0.00  0.00    +0.000 C 
ATOM      4  C   UNL     1       3.581   4.043  19.653  0.00  0.00    +0.000 C 
ATOM      5  C   UNL     1       3.512   2.652  20.193  0.00  0.00    +0.000 C 
ATOM      6  C   UNL     1       2.591   2.585  21.410  0.00  0.00    +0.000 C 
ATOM      7  C   UNL     1       1.240   3.255  21.126  0.00  0.00    +0.000 C 
ATOM      8  C   UNL     1       1.389   4.623  20.503  0.00  0.00    +0.000 C 
ATOM      9  C   UNL     1       2.512   4.990  19.874  0.00  0.00    +0.000 C 
ATOM     10  N   UNL     1       2.873   6.175  19.250  0.00  0.00    +0.000 N 
ENDROOT
BRANCH  10  11
ATOM     11  C   UNL     1       2.207   7.444  19.239  0.00  0.00    +0.000 A 
ATOM     12  C   UNL     1       1.686   7.997  20.421  0.00  0.00    +0.000 A 
ATOM     13  C   UNL     1       0.988   9.211  20.419  0.00  0.00    +0.000 A 
ATOM     14  C   UNL     1       0.798   9.903  19.228  0.00  0.00    +0.000 A 
ATOM     15  C   UNL     1       1.311   9.382  18.046  0.00  0.00    +0.000 A 
ATOM     16  C   UNL     1       2.006   8.164  18.053  0.00  0.00    +0.000 A 
ENDBRANCH  10  11
BRANCH   3  17
ATOM     17  N   UNL     1       5.724   4.043  18.399  0.00  0.00    +0.000 N 
ATOM     18  H   UNL     1       6.516   4.404  18.941  0.00  0.00    +0.000 HD
BRANCH  17  19
ATOM     19  C   UNL     1       6.034   4.170  17.018  0.00  0.00    +0.000 A 
ATOM     20  C   UNL     1       5.116   3.838  16.010  0.00  0.00    +0.000 A 
ATOM     21  C   UNL     1       5.425   4.044  14.664  0.00  0.00    +0.000 A 
ATOM     22  C   UNL     1       6.649   4.605  14.309  0.00  0.00    +0.000 A 
ATOM     23  C   UNL     1       7.556   4.973  15.301  0.00  0.00    +0.000 A 
ATOM     24  C   UNL     1       7.241   4.773  16.649  0.00  0.00    +0.000 A 
ENDBRANCH  17  19
ENDBRANCH   3  17
TORSDOF 3
ENDMDL
MODEL 4
REMARK VINA RESULT:      -8.4      1.390      1.792
REMARK  Name = 
REMARK  3 active torsions:
REMARK  status: ('A' for Active; 'I' for Inactive)
REMARK    1  A    between atoms: C_3  and  N_4
REMARK    2  A    between atoms: N_4  and  C_5
REMARK    3  A    between atoms: N_17  and  C_18
REMARK                            x       y       z     vdW  Elec       q    Type
REMARK                         _______ _______ _______ _____ _____    ______ ____
ROOT
ATOM      1  O   UNL     1       4.796   6.728  17.978  0.00  0.00    +0.000 OA
ATOM      2  C   UNL     1       4.100   5.959  18.627  0.00  0.00    +0.000 C 
ATOM      3  C   UNL     1       4.542   4.551  18.906  0.00  0.00    +0.000 C 
ATOM      4  C   UNL     1       3.579   4.012  19.663  0.00  0.00    +0.000 C 
ATOM      5  C   UNL     1       3.528   2.624  20.211  0.00  0.00    +0.000 C 
ATOM      6  C   UNL     1       2.617   2.554  21.435  0.00  0.00    +0.000 C 
ATOM      7  C   UNL     1       1.258   3.209  21.157  0.00  0.00    +0.000 C 
ATOM      8  C   UNL     1       1.387   4.574  20.526  0.00  0.00    +0.000 C 
ATOM      9  C   UNL     1       2.502   4.950  19.887  0.00  0.00    +0.000 C 
ATOM     10  N   UNL     1       2.845   6.135  19.253  0.00  0.00    +0.000 N 
ENDROOT
BRANCH  10  11
ATOM     11  C   UNL     1       2.167   7.397  19.240  0.00  0.00    +0.000 A 
ATOM     12  C   UNL     1       2.027   8.130  18.050  0.00  0.00    +0.000 A 
ATOM     13  C   UNL     1       1.413   9.388  18.029  0.00  0.00    +0.000 A 
ATOM     14  C   UNL     1       0.918   9.941  19.205  0.00  0.00    +0.000 A 
ATOM     15  C   UNL     1       1.035   9.232  20.395  0.00  0.00    +0.000 A 
ATOM     16  C   UNL     1       1.655   7.974  20.411  0.00  0.00    +0.000 A 
ENDBRANCH  10  11
BRANCH   3  17
ATOM     17  N   UNL     1       5.712   4.028  18.393  0.00  0.00    +0.000 N 
ATOM     18  H   UNL     1       6.504   4.395  18.931  0.00  0.00    +0.000 HD
BRANCH  17  19
ATOM     19  C   UNL     1       6.015   4.158  17.010  0.00  0.00    +0.000 A 
ATOM     20  C   UNL     1       5.083   3.850  16.007  0.00  0.00    +0.000 A 
ATOM     21  C   UNL     1       5.386   4.058  14.661  0.00  0.00    +0.000 A 
ATOM     22  C   UNL     1       6.618   4.597  14.300  0.00  0.00    +0.000 A 
ATOM     23  C   UNL     1       7.539   4.942  15.288  0.00  0.00    +0.000 A 
ATOM     24  C   UNL     1       7.231   4.740  16.636  0.00  0.00    +0.000 A 
ENDBRANCH  17  19
ENDBRANCH   3  17
TORSDOF 3
ENDMDL
MODEL 5
REMARK VINA RESULT:      -8.4      0.055      1.001
REMARK  Name = 
REMARK  3 active torsions:
REMARK  status: ('A' for Active; 'I' for Inactive)
REMARK    1  A    between atoms: C_3  and  N_4
REMARK    2  A    between atoms: N_4  and  C_5
REMARK    3  A    between atoms: N_17  and  C_18
REMARK                            x       y       z     vdW  Elec       q    Type
REMARK                         _______ _______ _______ _____ _____    ______ ____
ROOT
ATOM      1  O   UNL     1       5.234   6.848  17.585  0.00  0.00    +0.000 OA
ATOM      2  C   UNL     1       4.440   5.936  17.770  0.00  0.00    +0.000 C 
ATOM      3  C   UNL     1       4.826   4.503  17.536  0.00  0.00    +0.000 C 
ATOM      4  C   UNL     1       3.752   3.779  17.870  0.00  0.00    +0.000 C 
ATOM      5  C   UNL     1       3.609   2.293  17.815  0.00  0.00    +0.000 C 
ATOM      6  C   UNL     1       2.511   1.816  18.763  0.00  0.00    +0.000 C 
ATOM      7  C   UNL     1       1.216   2.616  18.566  0.00  0.00    +0.000 C 
ATOM      8  C   UNL     1       1.450   4.107  18.548  0.00  0.00    +0.000 C 
ATOM      9  C   UNL     1       2.655   4.626  18.281  0.00  0.00    +0.000 C 
ATOM     10  N   UNL     1       3.101   5.938  18.221  0.00  0.00    +0.000 N 
ENDROOT
BRANCH  10  11
ATOM     11  C   UNL     1       2.437   7.149  18.604  0.00  0.00    +0.000 A 
ATOM     12  C   UNL     1       2.177   8.159  17.662  0.00  0.00    +0.000 A 
ATOM     13  C   UNL     1       1.576   9.369  18.030  0.00  0.00    +0.000 A 
ATOM     14  C   UNL     1       1.216   9.594  19.354  0.00  0.00    +0.000 A 
ATOM     15  C   UNL     1       1.453   8.608  20.304  0.00  0.00    +0.000 A 
ATOM     16  C   UNL     1       2.060   7.399  19.931  0.00  0.00    +0.000 A 
ENDBRANCH  10  11
BRANCH   3  17
ATOM     17  N   UNL     1       6.063   4.143  17.039  0.00  0.00    +0.000 N 
ATOM     18  H   UNL     1       6.786   4.691  17.517  0.00  0.00    +0.000 HD
BRANCH  17  19
ATOM     19  C   UNL     1       6.320   4.189  15.642  0.00  0.00    +0.000 A 
ATOM     20  C   UNL     1       5.497   3.542  14.707  0.00  0.00    +0.000 A 
ATOM     21  C   UNL     1       5.734   3.669  13.337  0.00  0.00    +0.000 A 
ATOM     22  C   UNL     1       6.785   4.461  12.882  0.00  0.00    +0.000 A 
ATOM     23  C   UNL     1       7.588   5.138  13.799  0.00  0.00    +0.000 A 
ATOM     24  C   UNL     1       7.344   5.017  15.170  0.00  0.00    +0.000 A 
ENDBRANCH  17  19
ENDBRANCH   3  17
TORSDOF 3
ENDMDL
MODEL 6
REMARK VINA RESULT:      -8.4      0.098      1.421
REMARK  Name = 
REMARK  3 active torsions:
REMARK  status: ('A' for Active; 'I' for Inactive)
REMARK    1  A    between atoms: C_3  and  N_4
REMARK    2  A    between atoms: N_4  and  C_5
REMARK    3  A    between atoms: N_17  and  C_18
REMARK                            x       y       z     vdW  Elec       q    Type
REMARK                         _______ _______ _______ _____ _____    ______ ____
ROOT
ATOM      1  O   UNL     1       5.180   6.866  17.509  0.00  0.00    +0.000 OA
ATOM      2  C   UNL     1       4.401   5.944  17.708  0.00  0.00    +0.000 C 
ATOM      3  C   UNL     1       4.798   4.517  17.460  0.00  0.00    +0.000 C 
ATOM      4  C   UNL     1       3.740   3.779  17.814  0.00  0.00    +0.000 C 
ATOM      5  C   UNL     1       3.613   2.292  17.756  0.00  0.00    +0.000 C 
ATOM      6  C   UNL     1       2.542   1.799  18.727  0.00  0.00    +0.000 C 
ATOM      7  C   UNL     1       1.234   2.584  18.563  0.00  0.00    +0.000 C 
ATOM      8  C   UNL     1       1.450   4.078  18.545  0.00  0.00    +0.000 C 
ATOM      9  C   UNL     1       2.643   4.612  18.253  0.00  0.00    +0.000 C 
ATOM     10  N   UNL     1       3.072   5.929  18.189  0.00  0.00    +0.000 N 
ENDROOT
BRANCH  10  11
ATOM     11  C   UNL     1       2.402   7.131  18.591  0.00  0.00    +0.000 A 
ATOM     12  C   UNL     1       2.100   8.137  17.658  0.00  0.00    +0.000 A 
ATOM     13  C   UNL     1       1.493   9.338  18.043  0.00  0.00    +0.000 A 
ATOM     14  C   UNL     1       1.170   9.559  19.377  0.00  0.00    +0.000 A 
ATOM     15  C   UNL     1       1.450   8.577  20.319  0.00  0.00    +0.000 A 
ATOM     16  C   UNL     1       2.062   7.377  19.929  0.00  0.00    +0.000 A 
ENDBRANCH  10  11
BRANCH   3  17
ATOM     17  N   UNL     1       6.028   4.173  16.933  0.00  0.00    +0.000 N 
ATOM     18  H   UNL     1       6.760   4.679  17.443  0.00  0.00    +0.000 HD
BRANCH  17  19
ATOM     19  C   UNL     1       6.279   4.308  15.541  0.00  0.00    +0.000 A 
ATOM     20  C   UNL     1       7.352   5.063  15.043  0.00  0.00    +0.000 A 
ATOM     21  C   UNL     1       7.616   5.115  13.673  0.00  0.00    +0.000 A 
ATOM     22  C   UNL     1       6.821   4.396  12.784  0.00  0.00    +0.000 A 
ATOM     23  C   UNL     1       5.774   3.613  13.268  0.00  0.00    +0.000 A 
ATOM     24  C   UNL     1       5.517   3.556  14.641  0.00  0.00    +0.000 A 
ENDBRANCH  17  19
ENDBRANCH   3  17
TORSDOF 3
ENDMDL
MODEL 7
REMARK VINA RESULT:      -8.3      1.376      1.776
REMARK  Name = 
REMARK  3 active torsions:
REMARK  status: ('A' for Active; 'I' for Inactive)
REMARK    1  A    between atoms: C_3  and  N_4
REMARK    2  A    between atoms: N_4  and  C_5
REMARK    3  A    between atoms: N_17  and  C_18
REMARK                            x       y       z     vdW  Elec       q    Type
REMARK                         _______ _______ _______ _____ _____    ______ ____
ROOT
ATOM      1  O   UNL     1       4.778   6.755  17.934  0.00  0.00    +0.000 OA
ATOM      2  C   UNL     1       4.089   5.990  18.593  0.00  0.00    +0.000 C 
ATOM      3  C   UNL     1       4.521   4.575  18.854  0.00  0.00    +0.000 C 
ATOM      4  C   UNL     1       3.568   4.042  19.629  0.00  0.00    +0.000 C 
ATOM      5  C   UNL     1       3.515   2.651  20.169  0.00  0.00    +0.000 C 
ATOM      6  C   UNL     1       2.629   2.584  21.412  0.00  0.00    +0.000 C 
ATOM      7  C   UNL     1       1.271   3.255  21.168  0.00  0.00    +0.000 C 
ATOM      8  C   UNL     1       1.402   4.623  20.542  0.00  0.00    +0.000 C 
ATOM      9  C   UNL     1       2.506   4.990  19.881  0.00  0.00    +0.000 C 
ATOM     10  N   UNL     1       2.849   6.175  19.247  0.00  0.00    +0.000 N 
ENDROOT
BRANCH  10  11
ATOM     11  C   UNL     1       2.184   7.444  19.257  0.00  0.00    +0.000 A 
ATOM     12  C   UNL     1       1.657   7.975  20.446  0.00  0.00    +0.000 A 
ATOM     13  C   UNL     1       0.959   9.189  20.463  0.00  0.00    +0.000 A 
ATOM     14  C   UNL     1       0.776   9.903  19.285  0.00  0.00    +0.000 A 
ATOM     15  C   UNL     1       1.296   9.406  18.096  0.00  0.00    +0.000 A 
ATOM     16  C   UNL     1       1.990   8.187  18.083  0.00  0.00    +0.000 A 
ENDBRANCH  10  11
BRANCH   3  17
ATOM     17  N   UNL     1       5.674   4.043  18.313  0.00  0.00    +0.000 N 
ATOM     18  H   UNL     1       6.473   4.325  18.891  0.00  0.00    +0.000 HD
BRANCH  17  19
ATOM     19  C   UNL     1       6.005   4.276  16.950  0.00  0.00    +0.000 A 
ATOM     20  C   UNL     1       7.252   4.789  16.560  0.00  0.00    +0.000 A 
ATOM     21  C   UNL     1       7.573   4.937  15.209  0.00  0.00    +0.000 A 
ATOM     22  C   UNL     1       6.660   4.554  14.230  0.00  0.00    +0.000 A 
ATOM     23  C   UNL     1       5.432   4.009  14.604  0.00  0.00    +0.000 A 
ATOM     24  C   UNL     1       5.116   3.854  15.957  0.00  0.00    +0.000 A 
ENDBRANCH  17  19
ENDBRANCH   3  17
TORSDOF 3
ENDMDL
MODEL 8
REMARK VINA RESULT:      -8.3      1.371      2.019
REMARK  Name = 
REMARK  3 active torsions:
REMARK  status: ('A' for Active; 'I' for Inactive)
REMARK    1  A    between atoms: C_3  and  N_4
REMARK    2  A    between atoms: N_4  and  C_5
REMARK    3  A    between atoms: N_17  and  C_18
REMARK                            x       y       z     vdW  Elec       q    Type
REMARK                         _______ _______ _______ _____ _____    ______ ____
ROOT
ATOM      1  O   UNL     1       4.755   6.777  17.907  0.00  0.00    +0.000 OA
ATOM      2  C   UNL     1       4.078   6.004  18.572  0.00  0.00    +0.000 C 
ATOM      3  C   UNL     1       4.532   4.597  18.838  0.00  0.00    +0.000 C 
ATOM      4  C   UNL     1       3.589   4.053  19.617  0.00  0.00    +0.000 C 
ATOM      5  C   UNL     1       3.557   2.664  20.163  0.00  0.00    +0.000 C 
ATOM      6  C   UNL     1       2.676   2.588  21.408  0.00  0.00    +0.000 C 
ATOM      7  C   UNL     1       1.307   3.238  21.164  0.00  0.00    +0.000 C 
ATOM      8  C   UNL     1       1.416   4.605  20.532  0.00  0.00    +0.000 C 
ATOM      9  C   UNL     1       2.514   4.986  19.867  0.00  0.00    +0.000 C 
ATOM     10  N   UNL     1       2.838   6.173  19.228  0.00  0.00    +0.000 N 
ENDROOT
BRANCH  10  11
ATOM     11  C   UNL     1       2.154   7.433  19.233  0.00  0.00    +0.000 A 
ATOM     12  C   UNL     1       2.005   8.179  18.052  0.00  0.00    +0.000 A 
ATOM     13  C   UNL     1       1.385   9.435  18.050  0.00  0.00    +0.000 A 
ATOM     14  C   UNL     1       0.895   9.972  19.234  0.00  0.00    +0.000 A 
ATOM     15  C   UNL     1       1.022   9.251  20.416  0.00  0.00    +0.000 A 
ATOM     16  C   UNL     1       1.647   7.995  20.414  0.00  0.00    +0.000 A 
ENDBRANCH  10  11
BRANCH   3  17
ATOM     17  N   UNL     1       5.692   4.079  18.296  0.00  0.00    +0.000 N 
ATOM     18  H   UNL     1       6.490   4.391  18.860  0.00  0.00    +0.000 HD
BRANCH  17  19
ATOM     19  C   UNL     1       6.005   4.291  16.926  0.00  0.00    +0.000 A 
ATOM     20  C   UNL     1       7.251   4.784  16.509  0.00  0.00    +0.000 A 
ATOM     21  C   UNL     1       7.553   4.911  15.152  0.00  0.00    +0.000 A 
ATOM     22  C   UNL     1       6.620   4.527  14.192  0.00  0.00    +0.000 A 
ATOM     23  C   UNL     1       5.392   4.001  14.592  0.00  0.00    +0.000 A 
ATOM     24  C   UNL     1       5.095   3.867  15.952  0.00  0.00    +0.000 A 
ENDBRANCH  17  19
ENDBRANCH   3  17
TORSDOF 3
ENDMDL
MODEL 9
REMARK VINA RESULT:      -7.6      1.108      6.126
REMARK  Name = 
REMARK  3 active torsions:
REMARK  status: ('A' for Active; 'I' for Inactive)
REMARK    1  A    between atoms: C_3  and  N_4
REMARK    2  A    between atoms: N_4  and  C_5
REMARK    3  A    between atoms: N_17  and  C_18
REMARK                            x       y       z     vdW  Elec       q    Type
REMARK                         _______ _______ _______ _____ _____    ______ ____
ROOT
ATOM      1  O   UNL     1       4.694   7.106  18.152  0.00  0.00    +0.000 OA
ATOM      2  C   UNL     1       4.057   6.069  18.279  0.00  0.00    +0.000 C 
ATOM      3  C   UNL     1       2.945   5.951  19.282  0.00  0.00    +0.000 C 
ATOM      4  C   UNL     1       2.446   4.720  19.127  0.00  0.00    +0.000 C 
ATOM      5  C   UNL     1       1.323   4.096  19.888  0.00  0.00    +0.000 C 
ATOM      6  C   UNL     1       0.689   2.958  19.090  0.00  0.00    +0.000 C 
ATOM      7  C   UNL     1       1.753   1.987  18.561  0.00  0.00    +0.000 C 
ATOM      8  C   UNL     1       2.899   2.695  17.878  0.00  0.00    +0.000 C 
ATOM      9  C   UNL     1       3.166   3.986  18.111  0.00  0.00    +0.000 C 
ATOM     10  N   UNL     1       4.139   4.832  17.601  0.00  0.00    +0.000 N 
ENDROOT
BRANCH  10  11
ATOM     11  C   UNL     1       5.060   4.623  16.523  0.00  0.00    +0.000 A 
ATOM     12  C   UNL     1       6.448   4.672  16.738  0.00  0.00    +0.000 A 
ATOM     13  C   UNL     1       7.361   4.522  15.687  0.00  0.00    +0.000 A 
ATOM     14  C   UNL     1       6.902   4.314  14.392  0.00  0.00    +0.000 A 
ATOM     15  C   UNL     1       5.535   4.251  14.152  0.00  0.00    +0.000 A 
ATOM     16  C   UNL     1       4.625   4.407  15.208  0.00  0.00    +0.000 A 
ENDBRANCH  10  11
BRANCH   3  17
ATOM     17  N   UNL     1       2.628   6.972  20.156  0.00  0.00    +0.000 N 
ATOM     18  H   UNL     1       2.194   6.569  20.993  0.00  0.00    +0.000 HD
BRANCH  17  19
ATOM     19  C   UNL     1       1.833   8.069  19.726  0.00  0.00    +0.000 A 
ATOM     20  C   UNL     1       1.762   8.461  18.380  0.00  0.00    +0.000 A 
ATOM     21  C   UNL     1       0.915   9.496  17.980  0.00  0.00    +0.000 A 
ATOM     22  C   UNL     1       0.112  10.140  18.917  0.00  0.00    +0.000 A 
ATOM     23  C   UNL     1       0.146   9.737  20.252  0.00  0.00    +0.000 A 
ATOM     24  C   UNL     1       0.989   8.695  20.649  0.00  0.00    +0.000 A 
ENDBRANCH  17  19
ENDBRANCH   3  17
TORSDOF 3
ENDMDL
