MODEL 1
REMARK VINA RESULT:      -6.5      0.000      0.000
REMARK  Name = 
REMARK  8 active torsions:
REMARK  status: ('A' for Active; 'I' for Inactive)
REMARK    1  A    between atoms: C_2  and  C_3
REMARK    2  A    between atoms: C_2  and  O_9
REMARK    3  A    between atoms: C_3  and  C_4
REMARK    4  A    between atoms: C_4  and  C_5
REMARK    5  A    between atoms: C_5  and  C_6
REMARK    6  A    between atoms: C_6  and  C_7
REMARK    7  A    between atoms: O_9  and  C_10
REMARK    8  A    between atoms: C_10  and  N_11
REMARK                            x       y       z     vdW  Elec       q    Type
REMARK                         _______ _______ _______ _____ _____    ______ ____
ROOT
ATOM      1  C   UNL     1       3.546   2.331  18.122  0.00  0.00    +0.000 C 
ENDROOT
BRANCH   1   2
ATOM      2  N   UNL     1       4.485   3.431  18.141  0.00  0.00    +0.000 N 
ATOM      3  O   UNL     1       5.119   3.743  19.359  0.00  0.00    +0.000 OA
ATOM      4  C   UNL     1       6.104   4.683  19.089  0.00  0.00    +0.000 A 
ATOM      5  O   UNL     1       6.823   5.248  19.899  0.00  0.00    +0.000 OA
ATOM      6  C   UNL     1       6.122   4.850  17.629  0.00  0.00    +0.000 A 
ATOM      7  C   UNL     1       6.935   5.649  16.841  0.00  0.00    +0.000 A 
ATOM      8  C   UNL     1       6.746   5.586  15.461  0.00  0.00    +0.000 A 
ATOM      9  C   UNL     1       5.778   4.726  14.913  0.00  0.00    +0.000 A 
ATOM     10  C   UNL     1       4.968   3.936  15.737  0.00  0.00    +0.000 A 
ATOM     11  C   UNL     1       5.143   4.014  17.101  0.00  0.00    +0.000 A 
ENDBRANCH   1   2
BRANCH   1  12
ATOM     12  O   UNL     1       2.988   2.131  19.423  0.00  0.00    +0.000 OA
BRANCH  12  14
ATOM     13  O   UNL     1       0.812   2.228  18.695  0.00  0.00    +0.000 OA
ATOM     14  C   UNL     1       1.668   2.422  19.548  0.00  0.00    +0.000 C 
BRANCH  14  15
ATOM     15  C   UNL     1       1.363   2.914  20.943  0.00  0.00    +0.000 C 
BRANCH  15  16
ATOM     16  C   UNL     1       2.151   4.167  21.297  0.00  0.00    +0.000 C 
BRANCH  16  17
ATOM     17  C   UNL     1       2.073   5.227  20.195  0.00  0.00    +0.000 C 
BRANCH  17  18
ATOM     18  C   UNL     1       1.409   6.502  20.720  0.00  0.00    +0.000 C 
BRANCH  18  19
ATOM     19  C   UNL     1       1.944   7.745  20.009  0.00  0.00    +0.000 C 
ATOM     20  I   UNL     1       2.829   7.218  18.135  0.00  0.00    +0.000 I 
ENDBRANCH  18  19
ENDBRANCH  17  18
ENDBRANCH  16  17
ENDBRANCH  15  16
ENDBRANCH  14  15
ENDBRANCH  12  14
ENDBRANCH   1  12
TORSDOF 8
ENDMDL
MODEL 2
REMARK VINA RESULT:      -6.4      4.071      6.478
REMARK  Name = 
REMARK  8 active torsions:
REMARK  status: ('A' for Active; 'I' for Inactive)
REMARK    1  A    between atoms: C_2  and  C_3
REMARK    2  A    between atoms: C_2  and  O_9
REMARK    3  A    between atoms: C_3  and  C_4
REMARK    4  A    between atoms: C_4  and  C_5
REMARK    5  A    between atoms: C_5  and  C_6
REMARK    6  A    between atoms: C_6  and  C_7
REMARK    7  A    between atoms: O_9  and  C_10
REMARK    8  A    between atoms: C_10  and  N_11
REMARK                            x       y       z     vdW  Elec       q    Type
REMARK                         _______ _______ _______ _____ _____    ______ ____
ROOT
ATOM      1  C   UNL     1       5.442   6.401  16.166  0.00  0.00    +0.000 C 
ENDROOT
BRANCH   1   2
ATOM      2  N   UNL     1       4.405   6.198  17.154  0.00  0.00    +0.000 N 
ATOM      3  O   UNL     1       3.795   7.334  17.721  0.00  0.00    +0.000 OA
ATOM      4  C   UNL     1       2.715   6.895  18.476  0.00  0.00    +0.000 A 
ATOM      5  O   UNL     1       1.979   7.577  19.174  0.00  0.00    +0.000 OA
ATOM      6  C   UNL     1       2.622   5.444  18.254  0.00  0.00    +0.000 A 
ATOM      7  C   UNL     1       1.706   4.531  18.752  0.00  0.00    +0.000 A 
ATOM      8  C   UNL     1       1.844   3.205  18.346  0.00  0.00    +0.000 A 
ATOM      9  C   UNL     1       2.865   2.835  17.453  0.00  0.00    +0.000 A 
ATOM     10  C   UNL     1       3.779   3.780  16.974  0.00  0.00    +0.000 A 
ATOM     11  C   UNL     1       3.653   5.087  17.390  0.00  0.00    +0.000 A 
ENDBRANCH   1   2
BRANCH   1  12
ATOM     12  O   UNL     1       6.505   7.184  16.716  0.00  0.00    +0.000 OA
BRANCH  12  14
ATOM     13  O   UNL     1       7.645   5.303  17.376  0.00  0.00    +0.000 OA
ATOM     14  C   UNL     1       7.414   6.502  17.457  0.00  0.00    +0.000 C 
BRANCH  14  15
ATOM     15  C   UNL     1       8.205   7.448  18.330  0.00  0.00    +0.000 C 
BRANCH  15  16
ATOM     16  C   UNL     1       8.025   8.901  17.915  0.00  0.00    +0.000 C 
BRANCH  16  17
ATOM     17  C   UNL     1       8.914   9.846  18.729  0.00  0.00    +0.000 C 
BRANCH  17  18
ATOM     18  C   UNL     1       9.067  11.191  18.014  0.00  0.00    +0.000 C 
BRANCH  18  19
ATOM     19  C   UNL     1       9.399  12.313  18.998  0.00  0.00    +0.000 C 
ATOM     20  I   UNL     1      11.390  12.096  19.745  0.00  0.00    +0.000 I 
ENDBRANCH  18  19
ENDBRANCH  17  18
ENDBRANCH  16  17
ENDBRANCH  15  16
ENDBRANCH  14  15
ENDBRANCH  12  14
ENDBRANCH   1  12
TORSDOF 8
ENDMDL
MODEL 3
REMARK VINA RESULT:      -6.4      3.631      6.359
REMARK  Name = 
REMARK  8 active torsions:
REMARK  status: ('A' for Active; 'I' for Inactive)
REMARK    1  A    between atoms: C_2  and  C_3
REMARK    2  A    between atoms: C_2  and  O_9
REMARK    3  A    between atoms: C_3  and  C_4
REMARK    4  A    between atoms: C_4  and  C_5
REMARK    5  A    between atoms: C_5  and  C_6
REMARK    6  A    between atoms: C_6  and  C_7
REMARK    7  A    between atoms: O_9  and  C_10
REMARK    8  A    between atoms: C_10  and  N_11
REMARK                            x       y       z     vdW  Elec       q    Type
REMARK                         _______ _______ _______ _____ _____    ______ ____
ROOT
ATOM      1  C   UNL     1       5.880   5.281  18.830  0.00  0.00    +0.000 C 
ENDROOT
BRANCH   1   2
ATOM      2  N   UNL     1       4.525   4.998  19.248  0.00  0.00    +0.000 N 
ATOM      3  O   UNL     1       3.803   6.018  19.897  0.00  0.00    +0.000 OA
ATOM      4  C   UNL     1       2.488   5.588  20.019  0.00  0.00    +0.000 A 
ATOM      5  O   UNL     1       1.574   6.166  20.587  0.00  0.00    +0.000 OA
ATOM      6  C   UNL     1       2.412   4.301  19.312  0.00  0.00    +0.000 A 
ATOM      7  C   UNL     1       1.324   3.466  19.112  0.00  0.00    +0.000 A 
ATOM      8  C   UNL     1       1.538   2.306  18.369  0.00  0.00    +0.000 A 
ATOM      9  C   UNL     1       2.809   2.025  17.838  0.00  0.00    +0.000 A 
ATOM     10  C   UNL     1       3.890   2.885  18.064  0.00  0.00    +0.000 A 
ATOM     11  C   UNL     1       3.681   4.022  18.814  0.00  0.00    +0.000 A 
ENDBRANCH   1   2
BRANCH   1  12
ATOM     12  O   UNL     1       5.877   6.086  17.648  0.00  0.00    +0.000 OA
BRANCH  12  14
ATOM     13  O   UNL     1       7.471   6.130  15.996  0.00  0.00    +0.000 OA
ATOM     14  C   UNL     1       7.097   6.381  17.134  0.00  0.00    +0.000 C 
BRANCH  14  15
ATOM     15  C   UNL     1       7.912   7.181  18.124  0.00  0.00    +0.000 C 
BRANCH  15  16
ATOM     16  C   UNL     1       7.948   8.662  17.777  0.00  0.00    +0.000 C 
BRANCH  16  17
ATOM     17  C   UNL     1       8.820   9.460  18.750  0.00  0.00    +0.000 C 
BRANCH  17  18
ATOM     18  C   UNL     1       9.247  10.790  18.125  0.00  0.00    +0.000 C 
BRANCH  18  19
ATOM     19  C   UNL     1      10.403  11.426  18.897  0.00  0.00    +0.000 C 
ATOM     20  I   UNL     1       9.749  12.086  20.823  0.00  0.00    +0.000 I 
ENDBRANCH  18  19
ENDBRANCH  17  18
ENDBRANCH  16  17
ENDBRANCH  15  16
ENDBRANCH  14  15
ENDBRANCH  12  14
ENDBRANCH   1  12
TORSDOF 8
ENDMDL
MODEL 4
REMARK VINA RESULT:      -6.4      1.129      1.294
REMARK  Name = 
REMARK  8 active torsions:
REMARK  status: ('A' for Active; 'I' for Inactive)
REMARK    1  A    between atoms: C_2  and  C_3
REMARK    2  A    between atoms: C_2  and  O_9
REMARK    3  A    between atoms: C_3  and  C_4
REMARK    4  A    between atoms: C_4  and  C_5
REMARK    5  A    between atoms: C_5  and  C_6
REMARK    6  A    between atoms: C_6  and  C_7
REMARK    7  A    between atoms: O_9  and  C_10
REMARK    8  A    between atoms: C_10  and  N_11
REMARK                            x       y       z     vdW  Elec       q    Type
REMARK                         _______ _______ _______ _____ _____    ______ ____
ROOT
ATOM      1  C   UNL     1       3.723   2.204  18.444  0.00  0.00    +0.000 C 
ENDROOT
BRANCH   1   2
ATOM      2  N   UNL     1       4.561   3.380  18.377  0.00  0.00    +0.000 N 
ATOM      3  O   UNL     1       5.253   3.771  19.539  0.00  0.00    +0.000 OA
ATOM      4  C   UNL     1       6.130   4.786  19.183  0.00  0.00    +0.000 A 
ATOM      5  O   UNL     1       6.855   5.428  19.928  0.00  0.00    +0.000 OA
ATOM      6  C   UNL     1       6.027   4.923  17.722  0.00  0.00    +0.000 A 
ATOM      7  C   UNL     1       6.707   5.772  16.864  0.00  0.00    +0.000 A 
ATOM      8  C   UNL     1       6.424   5.663  15.503  0.00  0.00    +0.000 A 
ATOM      9  C   UNL     1       5.497   4.712  15.042  0.00  0.00    +0.000 A 
ATOM     10  C   UNL     1       4.821   3.874  15.936  0.00  0.00    +0.000 A 
ATOM     11  C   UNL     1       5.088   3.995  17.282  0.00  0.00    +0.000 A 
ENDBRANCH   1   2
BRANCH   1  12
ATOM     12  O   UNL     1       2.342   2.577  18.435  0.00  0.00    +0.000 OA
BRANCH  12  14
ATOM     13  O   UNL     1       1.884   2.206  20.655  0.00  0.00    +0.000 OA
ATOM     14  C   UNL     1       1.810   2.891  19.643  0.00  0.00    +0.000 C 
BRANCH  14  15
ATOM     15  C   UNL     1       1.205   4.275  19.613  0.00  0.00    +0.000 C 
BRANCH  15  16
ATOM     16  C   UNL     1       1.913   5.234  20.559  0.00  0.00    +0.000 C 
BRANCH  16  17
ATOM     17  C   UNL     1       2.296   6.546  19.868  0.00  0.00    +0.000 C 
BRANCH  17  18
ATOM     18  C   UNL     1       2.566   6.313  18.380  0.00  0.00    +0.000 C 
BRANCH  18  19
ATOM     19  C   UNL     1       3.082   7.581  17.700  0.00  0.00    +0.000 C 
ATOM     20  I   UNL     1       1.796   9.236  18.119  0.00  0.00    +0.000 I 
ENDBRANCH  18  19
ENDBRANCH  17  18
ENDBRANCH  16  17
ENDBRANCH  15  16
ENDBRANCH  14  15
ENDBRANCH  12  14
ENDBRANCH   1  12
TORSDOF 8
ENDMDL
MODEL 5
REMARK VINA RESULT:      -6.2      2.581      6.495
REMARK  Name = 
REMARK  8 active torsions:
REMARK  status: ('A' for Active; 'I' for Inactive)
REMARK    1  A    between atoms: C_2  and  C_3
REMARK    2  A    between atoms: C_2  and  O_9
REMARK    3  A    between atoms: C_3  and  C_4
REMARK    4  A    between atoms: C_4  and  C_5
REMARK    5  A    between atoms: C_5  and  C_6
REMARK    6  A    between atoms: C_6  and  C_7
REMARK    7  A    between atoms: O_9  and  C_10
REMARK    8  A    between atoms: C_10  and  N_11
REMARK                            x       y       z     vdW  Elec       q    Type
REMARK                         _______ _______ _______ _____ _____    ______ ____
ROOT
ATOM      1  C   UNL     1       4.644   6.153  17.135  0.00  0.00    +0.000 C 
ENDROOT
BRANCH   1   2
ATOM      2  N   UNL     1       3.621   5.195  17.493  0.00  0.00    +0.000 N 
ATOM      3  O   UNL     1       3.603   3.959  16.818  0.00  0.00    +0.000 OA
ATOM      4  C   UNL     1       2.678   3.146  17.460  0.00  0.00    +0.000 A 
ATOM      5  O   UNL     1       2.331   2.022  17.129  0.00  0.00    +0.000 OA
ATOM      6  C   UNL     1       2.211   3.902  18.632  0.00  0.00    +0.000 A 
ATOM      7  C   UNL     1       1.307   3.537  19.617  0.00  0.00    +0.000 A 
ATOM      8  C   UNL     1       1.072   4.455  20.639  0.00  0.00    +0.000 A 
ATOM      9  C   UNL     1       1.749   5.687  20.659  0.00  0.00    +0.000 A 
ATOM     10  C   UNL     1       2.651   6.030  19.645  0.00  0.00    +0.000 A 
ATOM     11  C   UNL     1       2.868   5.129  18.626  0.00  0.00    +0.000 A 
ENDBRANCH   1   2
BRANCH   1  12
ATOM     12  O   UNL     1       5.802   5.972  17.954  0.00  0.00    +0.000 OA
BRANCH  12  14
ATOM     13  O   UNL     1       7.437   4.363  18.062  0.00  0.00    +0.000 OA
ATOM     14  C   UNL     1       6.771   5.176  17.435  0.00  0.00    +0.000 C 
BRANCH  14  15
ATOM     15  C   UNL     1       6.843   5.337  15.935  0.00  0.00    +0.000 C 
BRANCH  15  16
ATOM     16  C   UNL     1       6.705   4.009  15.205  0.00  0.00    +0.000 C 
BRANCH  16  17
ATOM     17  C   UNL     1       5.769   4.111  13.997  0.00  0.00    +0.000 C 
BRANCH  17  18
ATOM     18  C   UNL     1       6.536   3.851  12.698  0.00  0.00    +0.000 C 
BRANCH  18  19
ATOM     19  C   UNL     1       5.897   2.723  11.888  0.00  0.00    +0.000 C 
ATOM     20  I   UNL     1       3.978   3.315  11.156  0.00  0.00    +0.000 I 
ENDBRANCH  18  19
ENDBRANCH  17  18
ENDBRANCH  16  17
ENDBRANCH  15  16
ENDBRANCH  14  15
ENDBRANCH  12  14
ENDBRANCH   1  12
TORSDOF 8
ENDMDL
MODEL 6
REMARK VINA RESULT:      -6.2      3.678      6.493
REMARK  Name = 
REMARK  8 active torsions:
REMARK  status: ('A' for Active; 'I' for Inactive)
REMARK    1  A    between atoms: C_2  and  C_3
REMARK    2  A    between atoms: C_2  and  O_9
REMARK    3  A    between atoms: C_3  and  C_4
REMARK    4  A    between atoms: C_4  and  C_5
REMARK    5  A    between atoms: C_5  and  C_6
REMARK    6  A    between atoms: C_6  and  C_7
REMARK    7  A    between atoms: O_9  and  C_10
REMARK    8  A    between atoms: C_10  and  N_11
REMARK                            x       y       z     vdW  Elec       q    Type
REMARK                         _______ _______ _______ _____ _____    ______ ____
ROOT
ATOM      1  C   UNL     1       5.859   4.652  17.796  0.00  0.00    +0.000 C 
ENDROOT
BRANCH   1   2
ATOM      2  N   UNL     1       4.748   5.123  18.594  0.00  0.00    +0.000 N 
ATOM      3  O   UNL     1       4.223   6.400  18.315  0.00  0.00    +0.000 OA
ATOM      4  C   UNL     1       3.060   6.545  19.059  0.00  0.00    +0.000 A 
ATOM      5  O   UNL     1       2.355   7.541  19.137  0.00  0.00    +0.000 OA
ATOM      6  C   UNL     1       2.833   5.253  19.722  0.00  0.00    +0.000 A 
ATOM      7  C   UNL     1       1.800   4.857  20.557  0.00  0.00    +0.000 A 
ATOM      8  C   UNL     1       1.827   3.544  21.026  0.00  0.00    +0.000 A 
ATOM      9  C   UNL     1       2.858   2.670  20.640  0.00  0.00    +0.000 A 
ATOM     10  C   UNL     1       3.891   3.103  19.800  0.00  0.00    +0.000 A 
ATOM     11  C   UNL     1       3.874   4.406  19.353  0.00  0.00    +0.000 A 
ENDBRANCH   1   2
BRANCH   1  12
ATOM     12  O   UNL     1       7.084   5.223  18.265  0.00  0.00    +0.000 OA
BRANCH  12  14
ATOM     13  O   UNL     1       7.439   6.445  16.354  0.00  0.00    +0.000 OA
ATOM     14  C   UNL     1       7.542   6.290  17.564  0.00  0.00    +0.000 C 
BRANCH  14  15
ATOM     15  C   UNL     1       8.101   7.338  18.496  0.00  0.00    +0.000 C 
BRANCH  15  16
ATOM     16  C   UNL     1       8.089   8.727  17.876  0.00  0.00    +0.000 C 
BRANCH  16  17
ATOM     17  C   UNL     1       8.808   9.756  18.753  0.00  0.00    +0.000 C 
BRANCH  17  18
ATOM     18  C   UNL     1       9.243  10.965  17.920  0.00  0.00    +0.000 C 
BRANCH  18  19
ATOM     19  C   UNL     1       9.689  12.125  18.809  0.00  0.00    +0.000 C 
ATOM     20  I   UNL     1       9.464  11.621  20.874  0.00  0.00    +0.000 I 
ENDBRANCH  18  19
ENDBRANCH  17  18
ENDBRANCH  16  17
ENDBRANCH  15  16
ENDBRANCH  14  15
ENDBRANCH  12  14
ENDBRANCH   1  12
TORSDOF 8
ENDMDL
MODEL 7
REMARK VINA RESULT:      -6.2      3.540      6.386
REMARK  Name = 
REMARK  8 active torsions:
REMARK  status: ('A' for Active; 'I' for Inactive)
REMARK    1  A    between atoms: C_2  and  C_3
REMARK    2  A    between atoms: C_2  and  O_9
REMARK    3  A    between atoms: C_3  and  C_4
REMARK    4  A    between atoms: C_4  and  C_5
REMARK    5  A    between atoms: C_5  and  C_6
REMARK    6  A    between atoms: C_6  and  C_7
REMARK    7  A    between atoms: O_9  and  C_10
REMARK    8  A    between atoms: C_10  and  N_11
REMARK                            x       y       z     vdW  Elec       q    Type
REMARK                         _______ _______ _______ _____ _____    ______ ____
ROOT
ATOM      1  C   UNL     1       5.366   4.455  17.925  0.00  0.00    +0.000 C 
ENDROOT
BRANCH   1   2
ATOM      2  N   UNL     1       4.267   4.848  18.779  0.00  0.00    +0.000 N 
ATOM      3  O   UNL     1       3.908   6.209  18.816  0.00  0.00    +0.000 OA
ATOM      4  C   UNL     1       2.724   6.309  19.534  0.00  0.00    +0.000 A 
ATOM      5  O   UNL     1       2.133   7.334  19.840  0.00  0.00    +0.000 OA
ATOM      6  C   UNL     1       2.311   4.931  19.839  0.00  0.00    +0.000 A 
ATOM      7  C   UNL     1       1.189   4.473  20.511  0.00  0.00    +0.000 A 
ATOM      8  C   UNL     1       1.038   3.092  20.630  0.00  0.00    +0.000 A 
ATOM      9  C   UNL     1       1.986   2.219  20.068  0.00  0.00    +0.000 A 
ATOM     10  C   UNL     1       3.113   2.715  19.402  0.00  0.00    +0.000 A 
ATOM     11  C   UNL     1       3.271   4.080  19.300  0.00  0.00    +0.000 A 
ENDBRANCH   1   2
BRANCH   1  12
ATOM     12  O   UNL     1       5.537   5.403  16.868  0.00  0.00    +0.000 OA
BRANCH  12  14
ATOM     13  O   UNL     1       7.509   5.652  15.718  0.00  0.00    +0.000 OA
ATOM     14  C   UNL     1       6.800   5.867  16.692  0.00  0.00    +0.000 C 
BRANCH  14  15
ATOM     15  C   UNL     1       7.186   6.798  17.818  0.00  0.00    +0.000 C 
BRANCH  15  16
ATOM     16  C   UNL     1       8.188   7.853  17.375  0.00  0.00    +0.000 C 
BRANCH  16  17
ATOM     17  C   UNL     1       7.818   9.249  17.885  0.00  0.00    +0.000 C 
BRANCH  17  18
ATOM     18  C   UNL     1       8.964   9.842  18.709  0.00  0.00    +0.000 C 
BRANCH  18  19
ATOM     19  C   UNL     1       9.403  11.199  18.159  0.00  0.00    +0.000 C 
ATOM     20  I   UNL     1      11.196  11.856  19.120  0.00  0.00    +0.000 I 
ENDBRANCH  18  19
ENDBRANCH  17  18
ENDBRANCH  16  17
ENDBRANCH  15  16
ENDBRANCH  14  15
ENDBRANCH  12  14
ENDBRANCH   1  12
TORSDOF 8
ENDMDL
MODEL 8
REMARK VINA RESULT:      -6.2      1.973      2.930
REMARK  Name = 
REMARK  8 active torsions:
REMARK  status: ('A' for Active; 'I' for Inactive)
REMARK    1  A    between atoms: C_2  and  C_3
REMARK    2  A    between atoms: C_2  and  O_9
REMARK    3  A    between atoms: C_3  and  C_4
REMARK    4  A    between atoms: C_4  and  C_5
REMARK    5  A    between atoms: C_5  and  C_6
REMARK    6  A    between atoms: C_6  and  C_7
REMARK    7  A    between atoms: O_9  and  C_10
REMARK    8  A    between atoms: C_10  and  N_11
REMARK                            x       y       z     vdW  Elec       q    Type
REMARK                         _______ _______ _______ _____ _____    ______ ____
ROOT
ATOM      1  C   UNL     1       4.724   3.522  18.462  0.00  0.00    +0.000 C 
ENDROOT
BRANCH   1   2
ATOM      2  N   UNL     1       5.319   4.599  17.702  0.00  0.00    +0.000 N 
ATOM      3  O   UNL     1       4.618   5.090  16.583  0.00  0.00    +0.000 OA
ATOM      4  C   UNL     1       5.276   6.231  16.145  0.00  0.00    +0.000 A 
ATOM      5  O   UNL     1       5.010   6.901  15.158  0.00  0.00    +0.000 OA
ATOM      6  C   UNL     1       6.350   6.484  17.117  0.00  0.00    +0.000 A 
ATOM      7  C   UNL     1       7.280   7.510  17.159  0.00  0.00    +0.000 A 
ATOM      8  C   UNL     1       8.176   7.515  18.227  0.00  0.00    +0.000 A 
ATOM      9  C   UNL     1       8.108   6.521  19.219  0.00  0.00    +0.000 A 
ATOM     10  C   UNL     1       7.160   5.494  19.143  0.00  0.00    +0.000 A 
ATOM     11  C   UNL     1       6.288   5.479  18.077  0.00  0.00    +0.000 A 
ENDBRANCH   1   2
BRANCH   1  12
ATOM     12  O   UNL     1       3.389   3.276  18.013  0.00  0.00    +0.000 OA
BRANCH  12  14
ATOM     13  O   UNL     1       3.532   1.050  18.556  0.00  0.00    +0.000 OA
ATOM     14  C   UNL     1       2.878   2.059  18.325  0.00  0.00    +0.000 C 
BRANCH  14  15
ATOM     15  C   UNL     1       1.377   2.134  18.472  0.00  0.00    +0.000 C 
BRANCH  15  16
ATOM     16  C   UNL     1       0.952   3.130  19.542  0.00  0.00    +0.000 C 
BRANCH  16  17
ATOM     17  C   UNL     1       1.805   3.013  20.808  0.00  0.00    +0.000 C 
BRANCH  17  18
ATOM     18  C   UNL     1       2.299   4.392  21.254  0.00  0.00    +0.000 C 
BRANCH  18  19
ATOM     19  C   UNL     1       1.429   5.510  20.679  0.00  0.00    +0.000 C 
ATOM     20  I   UNL     1       2.556   6.723  19.328  0.00  0.00    +0.000 I 
ENDBRANCH  18  19
ENDBRANCH  17  18
ENDBRANCH  16  17
ENDBRANCH  15  16
ENDBRANCH  14  15
ENDBRANCH  12  14
ENDBRANCH   1  12
TORSDOF 8
ENDMDL
MODEL 9
REMARK VINA RESULT:      -6.2      3.718      6.655
REMARK  Name = 
REMARK  8 active torsions:
REMARK  status: ('A' for Active; 'I' for Inactive)
REMARK    1  A    between atoms: C_2  and  C_3
REMARK    2  A    between atoms: C_2  and  O_9
REMARK    3  A    between atoms: C_3  and  C_4
REMARK    4  A    between atoms: C_4  and  C_5
REMARK    5  A    between atoms: C_5  and  C_6
REMARK    6  A    between atoms: C_6  and  C_7
REMARK    7  A    between atoms: O_9  and  C_10
REMARK    8  A    between atoms: C_10  and  N_11
REMARK                            x       y       z     vdW  Elec       q    Type
REMARK                         _______ _______ _______ _____ _____    ______ ____
ROOT
ATOM      1  C   UNL     1       4.598   6.515  17.547  0.00  0.00    +0.000 C 
ENDROOT
BRANCH   1   2
ATOM      2  N   UNL     1       3.611   5.472  17.716  0.00  0.00    +0.000 N 
ATOM      3  O   UNL     1       3.693   4.337  16.886  0.00  0.00    +0.000 OA
ATOM      4  C   UNL     1       2.780   3.404  17.361  0.00  0.00    +0.000 A 
ATOM      5  O   UNL     1       2.511   2.320  16.866  0.00  0.00    +0.000 OA
ATOM      6  C   UNL     1       2.215   3.975  18.592  0.00  0.00    +0.000 A 
ATOM      7  C   UNL     1       1.282   3.440  19.467  0.00  0.00    +0.000 A 
ATOM      8  C   UNL     1       0.947   4.202  20.585  0.00  0.00    +0.000 A 
ATOM      9  C   UNL     1       1.555   5.450  20.806  0.00  0.00    +0.000 A 
ATOM     10  C   UNL     1       2.489   5.965  19.899  0.00  0.00    +0.000 A 
ATOM     11  C   UNL     1       2.806   5.220  18.785  0.00  0.00    +0.000 A 
ENDBRANCH   1   2
BRANCH   1  12
ATOM     12  O   UNL     1       5.424   6.238  16.413  0.00  0.00    +0.000 OA
BRANCH  12  14
ATOM     13  O   UNL     1       7.637   5.935  15.882  0.00  0.00    +0.000 OA
ATOM     14  C   UNL     1       6.759   6.385  16.606  0.00  0.00    +0.000 C 
BRANCH  14  15
ATOM     15  C   UNL     1       7.028   7.291  17.784  0.00  0.00    +0.000 C 
BRANCH  15  16
ATOM     16  C   UNL     1       8.036   8.381  17.454  0.00  0.00    +0.000 C 
BRANCH  16  17
ATOM     17  C   UNL     1       8.680   8.970  18.712  0.00  0.00    +0.000 C 
BRANCH  17  18
ATOM     18  C   UNL     1       9.032  10.445  18.498  0.00  0.00    +0.000 C 
BRANCH  18  19
ATOM     19  C   UNL     1       9.704  11.044  19.733  0.00  0.00    +0.000 C 
ATOM     20  I   UNL     1      11.601  11.887  19.224  0.00  0.00    +0.000 I 
ENDBRANCH  18  19
ENDBRANCH  17  18
ENDBRANCH  16  17
ENDBRANCH  15  16
ENDBRANCH  14  15
ENDBRANCH  12  14
ENDBRANCH   1  12
TORSDOF 8
ENDMDL
