MODEL 1
REMARK VINA RESULT:      -8.7      0.000      0.000
REMARK  Name = 
REMARK  5 active torsions:
REMARK  status: ('A' for Active; 'I' for Inactive)
REMARK    1  A    between atoms: C_1  and  C_2
REMARK    2  A    between atoms: C_2  and  C_3
REMARK    3  A    between atoms: C_5  and  N_6
REMARK    4  A    between atoms: C_11  and  O_12
REMARK    5  A    between atoms: C_14  and  C_15
REMARK                            x       y       z     vdW  Elec       q    Type
REMARK                         _______ _______ _______ _____ _____    ______ ____
ROOT
ATOM      1  N   UNL     1       4.193   3.236  17.130  0.00  0.00    +0.000 N 
ATOM      2  C   UNL     1       4.497   2.037  17.919  0.00  0.00    +0.000 C 
ATOM      3  C   UNL     1       4.269   2.211  19.421  0.00  0.00    +0.000 C 
ATOM      4  O   UNL     1       2.868   2.335  19.735  0.00  0.00    +0.000 OA
ATOM      5  C   UNL     1       2.507   3.657  19.716  0.00  0.00    +0.000 A 
ATOM      6  C   UNL     1       2.085   4.218  20.919  0.00  0.00    +0.000 A 
ATOM      7  C   UNL     1       1.761   5.565  21.002  0.00  0.00    +0.000 A 
ATOM      8  C   UNL     1       1.852   6.395  19.871  0.00  0.00    +0.000 A 
ATOM      9  C   UNL     1       2.212   5.790  18.644  0.00  0.00    +0.000 A 
ATOM     10  C   UNL     1       2.535   4.421  18.548  0.00  0.00    +0.000 A 
ATOM     11  C   UNL     1       2.839   3.784  17.213  0.00  0.00    +0.000 C 
ENDROOT
BRANCH   8  12
ATOM     12  C   UNL     1       1.606   7.847  19.967  0.00  0.00    +0.000 A 
ATOM     13  C   UNL     1       1.691   8.690  18.853  0.00  0.00    +0.000 A 
ATOM     14  C   UNL     1       1.420  10.052  18.989  0.00  0.00    +0.000 A 
ATOM     15  C   UNL     1       1.071  10.549  20.235  0.00  0.00    +0.000 A 
ATOM     16 CL   UNL     1       0.716  12.212  20.446  0.00  0.00    +0.000 Cl
ATOM     17  C   UNL     1       1.004   9.659  21.297  0.00  0.00    +0.000 A 
ATOM     18  N   UNL     1       1.257   8.329  21.191  0.00  0.00    +0.000 NA
ENDBRANCH   8  12
BRANCH   1  21
ATOM     19  C   UNL     1       6.879   5.713  17.188  0.00  0.00    +0.000 A 
ATOM     20  C   UNL     1       5.859   4.892  17.632  0.00  0.00    +0.000 A 
ATOM     21  C   UNL     1       5.243   4.048  16.720  0.00  0.00    +0.000 A 
ATOM     22  N   UNL     1       5.611   4.060  15.428  0.00  0.00    +0.000 NA
ATOM     23  C   UNL     1       6.621   4.881  15.092  0.00  0.00    +0.000 A 
ATOM     24  N   UNL     1       7.287   5.711  15.908  0.00  0.00    +0.000 NA
BRANCH  19  26
ATOM     25  C   UNL     1       7.770   8.008  17.573  0.00  0.00    +0.000 C 
ATOM     26  C   UNL     1       7.601   6.613  18.155  0.00  0.00    +0.000 C 
ENDBRANCH  19  26
ENDBRANCH   1  21
BRANCH   6  27
ATOM     27  O   UNL     1       2.006   3.458  22.051  0.00  0.00    +0.000 OA
ATOM     28  H   UNL     1       2.373   4.016  22.763  0.00  0.00    +0.000 HD
ENDBRANCH   6  27
TORSDOF 4
ENDMDL
MODEL 2
REMARK VINA RESULT:      -8.5      0.897      1.925
REMARK  Name = 
REMARK  5 active torsions:
REMARK  status: ('A' for Active; 'I' for Inactive)
REMARK    1  A    between atoms: C_1  and  C_2
REMARK    2  A    between atoms: C_2  and  C_3
REMARK    3  A    between atoms: C_5  and  N_6
REMARK    4  A    between atoms: C_11  and  O_12
REMARK    5  A    between atoms: C_14  and  C_15
REMARK                            x       y       z     vdW  Elec       q    Type
REMARK                         _______ _______ _______ _____ _____    ______ ____
ROOT
ATOM      1  N   UNL     1       4.181   3.211  17.071  0.00  0.00    +0.000 N 
ATOM      2  C   UNL     1       4.505   2.080  17.948  0.00  0.00    +0.000 C 
ATOM      3  C   UNL     1       4.311   2.374  19.436  0.00  0.00    +0.000 C 
ATOM      4  O   UNL     1       2.917   2.524  19.771  0.00  0.00    +0.000 OA
ATOM      5  C   UNL     1       2.555   3.841  19.653  0.00  0.00    +0.000 A 
ATOM      6  C   UNL     1       2.159   4.498  20.816  0.00  0.00    +0.000 A 
ATOM      7  C   UNL     1       1.835   5.847  20.798  0.00  0.00    +0.000 A 
ATOM      8  C   UNL     1       1.900   6.583  19.602  0.00  0.00    +0.000 A 
ATOM      9  C   UNL     1       2.232   5.880  18.419  0.00  0.00    +0.000 A 
ATOM     10  C   UNL     1       2.555   4.508  18.427  0.00  0.00    +0.000 A 
ATOM     11  C   UNL     1       2.829   3.765  17.141  0.00  0.00    +0.000 C 
ENDROOT
BRANCH   8  12
ATOM     12  C   UNL     1       1.654   8.038  19.586  0.00  0.00    +0.000 A 
ATOM     13  C   UNL     1       1.824   8.808  18.429  0.00  0.00    +0.000 A 
ATOM     14  C   UNL     1       1.551  10.175  18.458  0.00  0.00    +0.000 A 
ATOM     15  C   UNL     1       1.113  10.752  19.640  0.00  0.00    +0.000 A 
ATOM     16 CL   UNL     1       0.752  12.425  19.717  0.00  0.00    +0.000 Cl
ATOM     17  C   UNL     1       0.965   9.931  20.749  0.00  0.00    +0.000 A 
ATOM     18  N   UNL     1       1.218   8.598  20.748  0.00  0.00    +0.000 NA
ENDBRANCH   8  12
BRANCH   1  21
ATOM     19  C   UNL     1       6.628   4.659  14.775  0.00  0.00    +0.000 A 
ATOM     20  C   UNL     1       5.567   3.900  15.234  0.00  0.00    +0.000 A 
ATOM     21  C   UNL     1       5.220   3.987  16.574  0.00  0.00    +0.000 A 
ATOM     22  N   UNL     1       5.927   4.767  17.409  0.00  0.00    +0.000 NA
ATOM     23  C   UNL     1       6.933   5.479  16.869  0.00  0.00    +0.000 A 
ATOM     24  N   UNL     1       7.321   5.475  15.586  0.00  0.00    +0.000 NA
BRANCH  19  26
ATOM     25  C   UNL     1       6.249   3.528  12.588  0.00  0.00    +0.000 C 
ATOM     26  C   UNL     1       7.008   4.625  13.318  0.00  0.00    +0.000 C 
ENDBRANCH  19  26
ENDBRANCH   1  21
BRANCH   6  27
ATOM     27  O   UNL     1       2.107   3.831  22.008  0.00  0.00    +0.000 OA
ATOM     28  H   UNL     1       3.022   3.838  22.347  0.00  0.00    +0.000 HD
ENDBRANCH   6  27
TORSDOF 4
ENDMDL
MODEL 3
REMARK VINA RESULT:      -8.2      4.495      8.990
REMARK  Name = 
REMARK  5 active torsions:
REMARK  status: ('A' for Active; 'I' for Inactive)
REMARK    1  A    between atoms: C_1  and  C_2
REMARK    2  A    between atoms: C_2  and  C_3
REMARK    3  A    between atoms: C_5  and  N_6
REMARK    4  A    between atoms: C_11  and  O_12
REMARK    5  A    between atoms: C_14  and  C_15
REMARK                            x       y       z     vdW  Elec       q    Type
REMARK                         _______ _______ _______ _____ _____    ______ ____
ROOT
ATOM      1  N   UNL     1      -1.796  12.538  20.164  0.00  0.00    +0.000 N 
ATOM      2  C   UNL     1      -2.348  12.853  21.487  0.00  0.00    +0.000 C 
ATOM      3  C   UNL     1      -2.053  11.792  22.548  0.00  0.00    +0.000 C 
ATOM      4  O   UNL     1      -0.654  11.759  22.893  0.00  0.00    +0.000 OA
ATOM      5  C   UNL     1      -0.002  10.864  22.084  0.00  0.00    +0.000 A 
ATOM      6  C   UNL     1       0.564   9.748  22.697  0.00  0.00    +0.000 A 
ATOM      7  C   UNL     1       1.187   8.762  21.947  0.00  0.00    +0.000 A 
ATOM      8  C   UNL     1       1.262   8.867  20.547  0.00  0.00    +0.000 A 
ATOM      9  C   UNL     1       0.747  10.043  19.951  0.00  0.00    +0.000 A 
ATOM     10  C   UNL     1       0.118  11.054  20.706  0.00  0.00    +0.000 A 
ATOM     11  C   UNL     1      -0.351  12.333  20.057  0.00  0.00    +0.000 C 
ENDROOT
BRANCH   8  12
ATOM     12  C   UNL     1       1.835   7.780  19.728  0.00  0.00    +0.000 A 
ATOM     13  C   UNL     1       2.348   8.007  18.446  0.00  0.00    +0.000 A 
ATOM     14  C   UNL     1       2.905   6.952  17.723  0.00  0.00    +0.000 A 
ATOM     15  C   UNL     1       2.939   5.688  18.292  0.00  0.00    +0.000 A 
ATOM     16 CL   UNL     1       3.627   4.366  17.446  0.00  0.00    +0.000 Cl
ATOM     17  C   UNL     1       2.414   5.533  19.567  0.00  0.00    +0.000 A 
ATOM     18  N   UNL     1       1.871   6.543  20.294  0.00  0.00    +0.000 NA
ENDBRANCH   8  12
BRANCH   1  21
ATOM     19  C   UNL     1      -2.976  10.899  17.118  0.00  0.00    +0.000 A 
ATOM     20  C   UNL     1      -2.109  11.387  18.079  0.00  0.00    +0.000 A 
ATOM     21  C   UNL     1      -2.642  12.008  19.198  0.00  0.00    +0.000 A 
ATOM     22  N   UNL     1      -3.971  12.162  19.321  0.00  0.00    +0.000 NA
ATOM     23  C   UNL     1      -4.736  11.644  18.344  0.00  0.00    +0.000 A 
ATOM     24  N   UNL     1      -4.309  11.008  17.243  0.00  0.00    +0.000 NA
BRANCH  19  26
ATOM     25  C   UNL     1      -3.409  10.282  14.743  0.00  0.00    +0.000 C 
ATOM     26  C   UNL     1      -2.439  10.180  15.910  0.00  0.00    +0.000 C 
ENDBRANCH  19  26
ENDBRANCH   1  21
BRANCH   6  27
ATOM     27  O   UNL     1       0.492   9.589  24.052  0.00  0.00    +0.000 OA
ATOM     28  H   UNL     1       1.361   9.879  24.392  0.00  0.00    +0.000 HD
ENDBRANCH   6  27
TORSDOF 4
ENDMDL
MODEL 4
REMARK VINA RESULT:      -8.0      1.447      2.053
REMARK  Name = 
REMARK  5 active torsions:
REMARK  status: ('A' for Active; 'I' for Inactive)
REMARK    1  A    between atoms: C_1  and  C_2
REMARK    2  A    between atoms: C_2  and  C_3
REMARK    3  A    between atoms: C_5  and  N_6
REMARK    4  A    between atoms: C_11  and  O_12
REMARK    5  A    between atoms: C_14  and  C_15
REMARK                            x       y       z     vdW  Elec       q    Type
REMARK                         _______ _______ _______ _____ _____    ______ ____
ROOT
ATOM      1  N   UNL     1       5.107   4.523  17.781  0.00  0.00    +0.000 N 
ATOM      2  C   UNL     1       5.060   3.114  18.191  0.00  0.00    +0.000 C 
ATOM      3  C   UNL     1       4.142   2.848  19.384  0.00  0.00    +0.000 C 
ATOM      4  O   UNL     1       2.754   3.026  19.037  0.00  0.00    +0.000 OA
ATOM      5  C   UNL     1       2.383   4.323  19.279  0.00  0.00    +0.000 A 
ATOM      6  C   UNL     1       1.416   4.536  20.259  0.00  0.00    +0.000 A 
ATOM      7  C   UNL     1       1.027   5.821  20.610  0.00  0.00    +0.000 A 
ATOM      8  C   UNL     1       1.602   6.940  19.982  0.00  0.00    +0.000 A 
ATOM      9  C   UNL     1       2.527   6.700  18.938  0.00  0.00    +0.000 A 
ATOM     10  C   UNL     1       2.922   5.398  18.570  0.00  0.00    +0.000 A 
ATOM     11  C   UNL     1       3.850   5.168  17.401  0.00  0.00    +0.000 C 
ENDROOT
BRANCH   8  12
ATOM     12  C   UNL     1       1.270   8.312  20.413  0.00  0.00    +0.000 A 
ATOM     13  C   UNL     1       1.061   8.639  21.758  0.00  0.00    +0.000 A 
ATOM     14  C   UNL     1       0.778   9.956  22.117  0.00  0.00    +0.000 A 
ATOM     15  C   UNL     1       0.707  10.926  21.128  0.00  0.00    +0.000 A 
ATOM     16 CL   UNL     1       0.376  12.559  21.527  0.00  0.00    +0.000 Cl
ATOM     17  C   UNL     1       0.925  10.534  19.815  0.00  0.00    +0.000 A 
ATOM     18  N   UNL     1       1.207   9.261  19.438  0.00  0.00    +0.000 NA
ENDBRANCH   8  12
BRANCH   1  21
ATOM     19  C   UNL     1       7.513   7.265  17.994  0.00  0.00    +0.000 A 
ATOM     20  C   UNL     1       6.413   6.531  17.592  0.00  0.00    +0.000 A 
ATOM     21  C   UNL     1       6.186   5.299  18.187  0.00  0.00    +0.000 A 
ATOM     22  N   UNL     1       7.042   4.820  19.105  0.00  0.00    +0.000 NA
ATOM     23  C   UNL     1       8.077   5.611  19.441  0.00  0.00    +0.000 A 
ATOM     24  N   UNL     1       8.359   6.821  18.938  0.00  0.00    +0.000 NA
BRANCH  19  26
ATOM     25  C   UNL     1       8.567   9.493  18.367  0.00  0.00    +0.000 C 
ATOM     26  C   UNL     1       7.770   8.627  17.403  0.00  0.00    +0.000 C 
ENDBRANCH  19  26
ENDBRANCH   1  21
BRANCH   6  27
ATOM     27  O   UNL     1       0.848   3.481  20.916  0.00  0.00    +0.000 OA
ATOM     28  H   UNL     1      -0.037   3.376  20.518  0.00  0.00    +0.000 HD
ENDBRANCH   6  27
TORSDOF 4
ENDMDL
MODEL 5
REMARK VINA RESULT:      -7.9      4.548      8.926
REMARK  Name = 
REMARK  5 active torsions:
REMARK  status: ('A' for Active; 'I' for Inactive)
REMARK    1  A    between atoms: C_1  and  C_2
REMARK    2  A    between atoms: C_2  and  C_3
REMARK    3  A    between atoms: C_5  and  N_6
REMARK    4  A    between atoms: C_11  and  O_12
REMARK    5  A    between atoms: C_14  and  C_15
REMARK                            x       y       z     vdW  Elec       q    Type
REMARK                         _______ _______ _______ _____ _____    ______ ____
ROOT
ATOM      1  N   UNL     1      -1.148  12.111  19.296  0.00  0.00    +0.000 N 
ATOM      2  C   UNL     1      -1.729  12.688  20.515  0.00  0.00    +0.000 C 
ATOM      3  C   UNL     1      -1.595  11.792  21.747  0.00  0.00    +0.000 C 
ATOM      4  O   UNL     1      -0.225  11.685  22.181  0.00  0.00    +0.000 OA
ATOM      5  C   UNL     1       0.370  10.614  21.568  0.00  0.00    +0.000 A 
ATOM      6  C   UNL     1       0.788   9.565  22.385  0.00  0.00    +0.000 A 
ATOM      7  C   UNL     1       1.344   8.416  21.840  0.00  0.00    +0.000 A 
ATOM      8  C   UNL     1       1.497   8.284  20.449  0.00  0.00    +0.000 A 
ATOM      9  C   UNL     1       1.134   9.389  19.644  0.00  0.00    +0.000 A 
ATOM     10  C   UNL     1       0.576  10.564  20.188  0.00  0.00    +0.000 A 
ATOM     11  C   UNL     1       0.272  11.758  19.316  0.00  0.00    +0.000 C 
ENDROOT
BRANCH   8  12
ATOM     12  C   UNL     1       1.995   7.030  19.851  0.00  0.00    +0.000 A 
ATOM     13  C   UNL     1       1.833   5.790  20.481  0.00  0.00    +0.000 A 
ATOM     14  C   UNL     1       2.295   4.629  19.862  0.00  0.00    +0.000 A 
ATOM     15  C   UNL     1       2.913   4.725  18.624  0.00  0.00    +0.000 A 
ATOM     16 CL   UNL     1       3.484   3.324  17.821  0.00  0.00    +0.000 Cl
ATOM     17  C   UNL     1       3.041   5.984  18.056  0.00  0.00    +0.000 A 
ATOM     18  N   UNL     1       2.596   7.129  18.634  0.00  0.00    +0.000 NA
ENDBRANCH   8  12
BRANCH   1  21
ATOM     19  C   UNL     1      -4.182  11.125  17.514  0.00  0.00    +0.000 A 
ATOM     20  C   UNL     1      -3.359  11.762  18.425  0.00  0.00    +0.000 A 
ATOM     21  C   UNL     1      -1.996  11.512  18.374  0.00  0.00    +0.000 A 
ATOM     22  N   UNL     1      -1.499  10.641  17.480  0.00  0.00    +0.000 NA
ATOM     23  C   UNL     1      -2.373  10.081  16.626  0.00  0.00    +0.000 A 
ATOM     24  N   UNL     1      -3.698  10.281  16.588  0.00  0.00    +0.000 NA
BRANCH  19  26
ATOM     25  C   UNL     1      -6.354  10.669  18.648  0.00  0.00    +0.000 C 
ATOM     26  C   UNL     1      -5.662  11.403  17.510  0.00  0.00    +0.000 C 
ENDBRANCH  19  26
ENDBRANCH   1  21
BRANCH   6  27
ATOM     27  O   UNL     1       0.636   9.637  23.740  0.00  0.00    +0.000 OA
ATOM     28  H   UNL     1       1.183  10.394  24.022  0.00  0.00    +0.000 HD
ENDBRANCH   6  27
TORSDOF 4
ENDMDL
MODEL 6
REMARK VINA RESULT:      -7.9      4.562      8.871
REMARK  Name = 
REMARK  5 active torsions:
REMARK  status: ('A' for Active; 'I' for Inactive)
REMARK    1  A    between atoms: C_1  and  C_2
REMARK    2  A    between atoms: C_2  and  C_3
REMARK    3  A    between atoms: C_5  and  N_6
REMARK    4  A    between atoms: C_11  and  O_12
REMARK    5  A    between atoms: C_14  and  C_15
REMARK                            x       y       z     vdW  Elec       q    Type
REMARK                         _______ _______ _______ _____ _____    ______ ____
ROOT
ATOM      1  N   UNL     1      -1.107  12.089  19.227  0.00  0.00    +0.000 N 
ATOM      2  C   UNL     1      -1.663  12.661  20.459  0.00  0.00    +0.000 C 
ATOM      3  C   UNL     1      -1.500  11.764  21.686  0.00  0.00    +0.000 C 
ATOM      4  O   UNL     1      -0.120  11.660  22.090  0.00  0.00    +0.000 OA
ATOM      5  C   UNL     1       0.464  10.592  21.462  0.00  0.00    +0.000 A 
ATOM      6  C   UNL     1       0.903   9.543  22.268  0.00  0.00    +0.000 A 
ATOM      7  C   UNL     1       1.450   8.396  21.709  0.00  0.00    +0.000 A 
ATOM      8  C   UNL     1       1.573   8.267  20.315  0.00  0.00    +0.000 A 
ATOM      9  C   UNL     1       1.190   9.373  19.520  0.00  0.00    +0.000 A 
ATOM     10  C   UNL     1       0.641  10.545  20.078  0.00  0.00    +0.000 A 
ATOM     11  C   UNL     1       0.314  11.740  19.215  0.00  0.00    +0.000 C 
ENDROOT
BRANCH   8  12
ATOM     12  C   UNL     1       2.061   7.015  19.704  0.00  0.00    +0.000 A 
ATOM     13  C   UNL     1       2.665   6.991  18.442  0.00  0.00    +0.000 A 
ATOM     14  C   UNL     1       3.137   5.786  17.919  0.00  0.00    +0.000 A 
ATOM     15  C   UNL     1       2.996   4.626  18.665  0.00  0.00    +0.000 A 
ATOM     16 CL   UNL     1       3.573   3.127  18.069  0.00  0.00    +0.000 Cl
ATOM     17  C   UNL     1       2.388   4.721  19.909  0.00  0.00    +0.000 A 
ATOM     18  N   UNL     1       1.926   5.880  20.443  0.00  0.00    +0.000 NA
ENDBRANCH   8  12
BRANCH   1  21
ATOM     19  C   UNL     1      -4.181  11.037  17.554  0.00  0.00    +0.000 A 
ATOM     20  C   UNL     1      -3.342  11.673  18.450  0.00  0.00    +0.000 A 
ATOM     21  C   UNL     1      -1.973  11.489  18.322  0.00  0.00    +0.000 A 
ATOM     22  N   UNL     1      -1.484  10.679  17.368  0.00  0.00    +0.000 NA
ATOM     23  C   UNL     1      -2.375  10.113  16.535  0.00  0.00    +0.000 A 
ATOM     24  N   UNL     1      -3.708  10.254  16.570  0.00  0.00    +0.000 NA
BRANCH  19  26
ATOM     25  C   UNL     1      -6.026  12.701  17.369  0.00  0.00    +0.000 C 
ATOM     26  C   UNL     1      -5.670  11.246  17.633  0.00  0.00    +0.000 C 
ENDBRANCH  19  26
ENDBRANCH   1  21
BRANCH   6  27
ATOM     27  O   UNL     1       0.780   9.611  23.626  0.00  0.00    +0.000 OA
ATOM     28  H   UNL     1       1.333   8.885  23.973  0.00  0.00    +0.000 HD
ENDBRANCH   6  27
TORSDOF 4
ENDMDL
MODEL 7
REMARK VINA RESULT:      -6.9      3.081      6.779
REMARK  Name = 
REMARK  5 active torsions:
REMARK  status: ('A' for Active; 'I' for Inactive)
REMARK    1  A    between atoms: C_1  and  C_2
REMARK    2  A    between atoms: C_2  and  C_3
REMARK    3  A    between atoms: C_5  and  N_6
REMARK    4  A    between atoms: C_11  and  O_12
REMARK    5  A    between atoms: C_14  and  C_15
REMARK                            x       y       z     vdW  Elec       q    Type
REMARK                         _______ _______ _______ _____ _____    ______ ____
ROOT
ATOM      1  N   UNL     1       2.413   6.255  20.333  0.00  0.00    +0.000 N 
ATOM      2  C   UNL     1       1.326   5.416  20.850  0.00  0.00    +0.000 C 
ATOM      3  C   UNL     1       1.018   4.196  19.981  0.00  0.00    +0.000 C 
ATOM      4  O   UNL     1       2.086   3.229  20.024  0.00  0.00    +0.000 OA
ATOM      5  C   UNL     1       2.982   3.487  19.020  0.00  0.00    +0.000 A 
ATOM      6  C   UNL     1       3.119   2.520  18.026  0.00  0.00    +0.000 A 
ATOM      7  C   UNL     1       3.957   2.727  16.940  0.00  0.00    +0.000 A 
ATOM      8  C   UNL     1       4.688   3.922  16.817  0.00  0.00    +0.000 A 
ATOM      9  C   UNL     1       4.591   4.859  17.873  0.00  0.00    +0.000 A 
ATOM     10  C   UNL     1       3.748   4.654  18.985  0.00  0.00    +0.000 A 
ATOM     11  C   UNL     1       3.722   5.632  20.134  0.00  0.00    +0.000 C 
ENDROOT
BRANCH   8  12
ATOM     12  C   UNL     1       5.507   4.197  15.621  0.00  0.00    +0.000 A 
ATOM     13  C   UNL     1       5.283   3.547  14.402  0.00  0.00    +0.000 A 
ATOM     14  C   UNL     1       6.066   3.862  13.291  0.00  0.00    +0.000 A 
ATOM     15  C   UNL     1       7.059   4.822  13.416  0.00  0.00    +0.000 A 
ATOM     16 CL   UNL     1       8.034   5.251  12.074  0.00  0.00    +0.000 Cl
ATOM     17  C   UNL     1       7.227   5.428  14.653  0.00  0.00    +0.000 A 
ATOM     18  N   UNL     1       6.477   5.144  15.748  0.00  0.00    +0.000 NA
ENDBRANCH   8  12
BRANCH   1  21
ATOM     19  C   UNL     1       1.020   9.540  19.546  0.00  0.00    +0.000 A 
ATOM     20  C   UNL     1       1.358   8.412  20.270  0.00  0.00    +0.000 A 
ATOM     21  C   UNL     1       2.088   7.415  19.641  0.00  0.00    +0.000 A 
ATOM     22  N   UNL     1       2.425   7.534  18.346  0.00  0.00    +0.000 NA
ATOM     23  C   UNL     1       2.065   8.672  17.727  0.00  0.00    +0.000 A 
ATOM     24  N   UNL     1       1.382   9.695  18.261  0.00  0.00    +0.000 NA
BRANCH  19  26
ATOM     25  C   UNL     1       0.020  10.361  21.675  0.00  0.00    +0.000 C 
ATOM     26  C   UNL     1       0.265  10.664  20.205  0.00  0.00    +0.000 C 
ENDBRANCH  19  26
ENDBRANCH   1  21
BRANCH   6  27
ATOM     27  O   UNL     1       2.409   1.354  18.088  0.00  0.00    +0.000 OA
ATOM     28  H   UNL     1       2.996   0.718  18.541  0.00  0.00    +0.000 HD
ENDBRANCH   6  27
TORSDOF 4
ENDMDL
MODEL 8
REMARK VINA RESULT:      -6.8      9.354     11.638
REMARK  Name = 
REMARK  5 active torsions:
REMARK  status: ('A' for Active; 'I' for Inactive)
REMARK    1  A    between atoms: C_1  and  C_2
REMARK    2  A    between atoms: C_2  and  C_3
REMARK    3  A    between atoms: C_5  and  N_6
REMARK    4  A    between atoms: C_11  and  O_12
REMARK    5  A    between atoms: C_14  and  C_15
REMARK                            x       y       z     vdW  Elec       q    Type
REMARK                         _______ _______ _______ _____ _____    ______ ____
ROOT
ATOM      1  N   UNL     1      -5.969  12.068  18.556  0.00  0.00    +0.000 N 
ATOM      2  C   UNL     1      -6.899  10.934  18.621  0.00  0.00    +0.000 C 
ATOM      3  C   UNL     1      -7.158  10.428  20.040  0.00  0.00    +0.000 C 
ATOM      4  O   UNL     1      -7.913  11.380  20.816  0.00  0.00    +0.000 OA
ATOM      5  C   UNL     1      -7.053  12.222  21.473  0.00  0.00    +0.000 A 
ATOM      6  C   UNL     1      -7.059  12.176  22.865  0.00  0.00    +0.000 A 
ATOM      7  C   UNL     1      -6.177  12.949  23.608  0.00  0.00    +0.000 A 
ATOM      8  C   UNL     1      -5.257  13.798  22.969  0.00  0.00    +0.000 A 
ATOM      9  C   UNL     1      -5.318  13.885  21.558  0.00  0.00    +0.000 A 
ATOM     10  C   UNL     1      -6.215  13.110  20.796  0.00  0.00    +0.000 A 
ATOM     11  C   UNL     1      -6.315  13.280  19.299  0.00  0.00    +0.000 C 
ENDROOT
BRANCH   8  12
ATOM     12  C   UNL     1      -4.249  14.551  23.741  0.00  0.00    +0.000 A 
ATOM     13  C   UNL     1      -2.934  14.097  23.888  0.00  0.00    +0.000 A 
ATOM     14  C   UNL     1      -2.010  14.859  24.604  0.00  0.00    +0.000 A 
ATOM     15  C   UNL     1      -2.416  16.062  25.162  0.00  0.00    +0.000 A 
ATOM     16 CL   UNL     1      -1.311  17.037  26.036  0.00  0.00    +0.000 Cl
ATOM     17  C   UNL     1      -3.734  16.454  24.978  0.00  0.00    +0.000 A 
ATOM     18  N   UNL     1      -4.651  15.734  24.282  0.00  0.00    +0.000 NA
ENDBRANCH   8  12
BRANCH   1  21
ATOM     19  C   UNL     1      -3.022  11.044  16.652  0.00  0.00    +0.000 A 
ATOM     20  C   UNL     1      -4.345  11.307  16.957  0.00  0.00    +0.000 A 
ATOM     21  C   UNL     1      -4.646  11.825  18.208  0.00  0.00    +0.000 A 
ATOM     22  N   UNL     1      -3.672  12.029  19.111  0.00  0.00    +0.000 NA
ATOM     23  C   UNL     1      -2.415  11.757  18.720  0.00  0.00    +0.000 A 
ATOM     24  N   UNL     1      -2.031  11.279  17.527  0.00  0.00    +0.000 NA
BRANCH  19  26
ATOM     25  C   UNL     1      -3.885  10.055  14.534  0.00  0.00    +0.000 C 
ATOM     26  C   UNL     1      -2.650  10.522  15.290  0.00  0.00    +0.000 C 
ENDBRANCH  19  26
ENDBRANCH   1  21
BRANCH   6  27
ATOM     27  O   UNL     1      -7.916  11.346  23.530  0.00  0.00    +0.000 OA
ATOM     28  H   UNL     1      -8.275  10.746  22.848  0.00  0.00    +0.000 HD
ENDBRANCH   6  27
TORSDOF 4
ENDMDL
MODEL 9
REMARK VINA RESULT:      -6.8      1.909      3.074
REMARK  Name = 
REMARK  5 active torsions:
REMARK  status: ('A' for Active; 'I' for Inactive)
REMARK    1  A    between atoms: C_1  and  C_2
REMARK    2  A    between atoms: C_2  and  C_3
REMARK    3  A    between atoms: C_5  and  N_6
REMARK    4  A    between atoms: C_11  and  O_12
REMARK    5  A    between atoms: C_14  and  C_15
REMARK                            x       y       z     vdW  Elec       q    Type
REMARK                         _______ _______ _______ _____ _____    ______ ____
ROOT
ATOM      1  N   UNL     1       6.207   6.131  16.731  0.00  0.00    +0.000 N 
ATOM      2  C   UNL     1       6.404   4.679  16.653  0.00  0.00    +0.000 C 
ATOM      3  C   UNL     1       5.462   3.877  17.551  0.00  0.00    +0.000 C 
ATOM      4  O   UNL     1       4.099   3.943  17.086  0.00  0.00    +0.000 OA
ATOM      5  C   UNL     1       3.461   5.002  17.677  0.00  0.00    +0.000 A 
ATOM      6  C   UNL     1       2.395   4.709  18.525  0.00  0.00    +0.000 A 
ATOM      7  C   UNL     1       1.733   5.717  19.212  0.00  0.00    +0.000 A 
ATOM      8  C   UNL     1       2.126   7.059  19.068  0.00  0.00    +0.000 A 
ATOM      9  C   UNL     1       3.162   7.342  18.147  0.00  0.00    +0.000 A 
ATOM     10  C   UNL     1       3.835   6.325  17.438  0.00  0.00    +0.000 A 
ATOM     11  C   UNL     1       4.883   6.660  16.404  0.00  0.00    +0.000 C 
ENDROOT
BRANCH   8  12
ATOM     12  C   UNL     1       1.497   8.129  19.867  0.00  0.00    +0.000 A 
ATOM     13  C   UNL     1       1.195   7.964  21.223  0.00  0.00    +0.000 A 
ATOM     14  C   UNL     1       0.626   9.015  21.942  0.00  0.00    +0.000 A 
ATOM     15  C   UNL     1       0.367  10.214  21.294  0.00  0.00    +0.000 A 
ATOM     16 CL   UNL     1      -0.317  11.537  22.142  0.00  0.00    +0.000 Cl
ATOM     17  C   UNL     1       0.692  10.311  19.949  0.00  0.00    +0.000 A 
ATOM     18  N   UNL     1       1.251   9.306  19.227  0.00  0.00    +0.000 NA
ENDBRANCH   8  12
BRANCH   1  21
ATOM     19  C   UNL     1       8.169   8.935  18.014  0.00  0.00    +0.000 A 
ATOM     20  C   UNL     1       7.274   8.224  17.236  0.00  0.00    +0.000 A 
ATOM     21  C   UNL     1       7.075   6.880  17.516  0.00  0.00    +0.000 A 
ATOM     22  N   UNL     1       7.768   6.281  18.499  0.00  0.00    +0.000 NA
ATOM     23  C   UNL     1       8.606   7.056  19.210  0.00  0.00    +0.000 A 
ATOM     24  N   UNL     1       8.842   8.362  19.026  0.00  0.00    +0.000 NA
BRANCH  19  26
ATOM     25  C   UNL     1       9.628  10.899  18.487  0.00  0.00    +0.000 C 
ATOM     26  C   UNL     1       8.381  10.405  17.770  0.00  0.00    +0.000 C 
ENDBRANCH  19  26
ENDBRANCH   1  21
BRANCH   6  27
ATOM     27  O   UNL     1       1.994   3.418  18.717  0.00  0.00    +0.000 OA
ATOM     28  H   UNL     1       1.977   3.018  17.827  0.00  0.00    +0.000 HD
ENDBRANCH   6  27
TORSDOF 4
ENDMDL
