MODEL 1
REMARK VINA RESULT:      -8.1      0.000      0.000
REMARK  Name = 
REMARK  5 active torsions:
REMARK  status: ('A' for Active; 'I' for Inactive)
REMARK    1  A    between atoms: C_1  and  C_2
REMARK    2  A    between atoms: C_6  and  C_7
REMARK    3  A    between atoms: C_10  and  O_11
REMARK    4  A    between atoms: O_11  and  C_12
REMARK    5  A    between atoms: C_20  and  O_21
REMARK                            x       y       z     vdW  Elec       q    Type
REMARK                         _______ _______ _______ _____ _____    ______ ____
ROOT
ATOM      1  C   UNL     1       8.116   8.575  18.232  0.00  0.00    +0.000 A 
ATOM      2  C   UNL     1       7.169   8.246  17.244  0.00  0.00    +0.000 A 
ATOM      3  C   UNL     1       6.636   6.957  17.133  0.00  0.00    +0.000 A 
ATOM      4  C   UNL     1       7.113   5.932  17.948  0.00  0.00    +0.000 A 
ATOM      5  C   UNL     1       8.017   6.246  18.961  0.00  0.00    +0.000 A 
ATOM      6  C   UNL     1       8.507   7.545  19.108  0.00  0.00    +0.000 A 
ENDROOT
BRANCH   1  12
ATOM      7  C   UNL     1      11.205  11.881  20.449  0.00  0.00    +0.000 C 
ATOM      8  C   UNL     1      10.164  11.583  19.411  0.00  0.00    +0.000 A 
ATOM      9  C   UNL     1       9.658  12.594  18.591  0.00  0.00    +0.000 A 
ATOM     10  C   UNL     1       8.671  12.303  17.658  0.00  0.00    +0.000 A 
ATOM     11  C   UNL     1       8.172  11.003  17.547  0.00  0.00    +0.000 A 
ATOM     12  C   UNL     1       8.657   9.953  18.350  0.00  0.00    +0.000 A 
ATOM     13  C   UNL     1       9.671  10.275  19.272  0.00  0.00    +0.000 A 
ENDBRANCH   1  12
BRANCH   5  14
ATOM     14  O   UNL     1       8.458   5.295  19.838  0.00  0.00    +0.000 OA
ATOM     15  H   UNL     1       8.196   4.432  19.468  0.00  0.00    +0.000 HD
ENDBRANCH   5  14
BRANCH   4  16
ATOM     16  O   UNL     1       6.737   4.609  17.830  0.00  0.00    +0.000 OA
BRANCH  16  17
ATOM     17  C   UNL     1       5.413   4.277  18.030  0.00  0.00    +0.000 A 
ATOM     18  C   UNL     1       4.842   4.232  19.312  0.00  0.00    +0.000 A 
ATOM     19  C   UNL     1       3.539   3.768  19.480  0.00  0.00    +0.000 A 
ATOM     20  C   UNL     1       2.782   3.413  18.366  0.00  0.00    +0.000 A 
ATOM     21 CL   UNL     1       1.190   2.799  18.582  0.00  0.00    +0.000 Cl
ATOM     22  C   UNL     1       3.303   3.551  17.079  0.00  0.00    +0.000 A 
ATOM     23  C   UNL     1       4.617   3.987  16.913  0.00  0.00    +0.000 A 
ATOM     24 CL   UNL     1       5.239   4.143  15.308  0.00  0.00    +0.000 Cl
ENDBRANCH  16  17
ENDBRANCH   4  16
TORSDOF 4
ENDMDL
MODEL 2
REMARK VINA RESULT:      -7.9      0.793      1.350
REMARK  Name = 
REMARK  5 active torsions:
REMARK  status: ('A' for Active; 'I' for Inactive)
REMARK    1  A    between atoms: C_1  and  C_2
REMARK    2  A    between atoms: C_6  and  C_7
REMARK    3  A    between atoms: C_10  and  O_11
REMARK    4  A    between atoms: O_11  and  C_12
REMARK    5  A    between atoms: C_20  and  O_21
REMARK                            x       y       z     vdW  Elec       q    Type
REMARK                         _______ _______ _______ _____ _____    ______ ____
ROOT
ATOM      1  C   UNL     1       8.497   8.769  18.565  0.00  0.00    +0.000 A 
ATOM      2  C   UNL     1       7.636   8.641  17.459  0.00  0.00    +0.000 A 
ATOM      3  C   UNL     1       7.001   7.431  17.154  0.00  0.00    +0.000 A 
ATOM      4  C   UNL     1       7.291   6.285  17.893  0.00  0.00    +0.000 A 
ATOM      5  C   UNL     1       8.106   6.401  19.017  0.00  0.00    +0.000 A 
ATOM      6  C   UNL     1       8.695   7.621  19.355  0.00  0.00    +0.000 A 
ENDROOT
BRANCH   1  12
ATOM      7  C   UNL     1      10.817  12.983  17.067  0.00  0.00    +0.000 C 
ATOM      8  C   UNL     1      10.275  12.134  18.179  0.00  0.00    +0.000 A 
ATOM      9  C   UNL     1      10.421  12.520  19.512  0.00  0.00    +0.000 A 
ATOM     10  C   UNL     1       9.938  11.702  20.528  0.00  0.00    +0.000 A 
ATOM     11  C   UNL     1       9.320  10.489  20.218  0.00  0.00    +0.000 A 
ATOM     12  C   UNL     1       9.147  10.065  18.887  0.00  0.00    +0.000 A 
ATOM     13  C   UNL     1       9.629  10.924  17.880  0.00  0.00    +0.000 A 
ENDBRANCH   1  12
BRANCH   5  14
ATOM     14  O   UNL     1       8.361   5.326  19.822  0.00  0.00    +0.000 OA
ATOM     15  H   UNL     1       7.980   5.536  20.695  0.00  0.00    +0.000 HD
ENDBRANCH   5  14
BRANCH   4  16
ATOM     16  O   UNL     1       6.810   5.027  17.593  0.00  0.00    +0.000 OA
BRANCH  16  17
ATOM     17  C   UNL     1       5.482   4.750  17.842  0.00  0.00    +0.000 A 
ATOM     18  C   UNL     1       4.910   4.923  19.113  0.00  0.00    +0.000 A 
ATOM     19  C   UNL     1       3.602   4.510  19.352  0.00  0.00    +0.000 A 
ATOM     20  C   UNL     1       2.840   3.988  18.309  0.00  0.00    +0.000 A 
ATOM     21 CL   UNL     1       1.239   3.438  18.621  0.00  0.00    +0.000 Cl
ATOM     22  C   UNL     1       3.362   3.907  17.019  0.00  0.00    +0.000 A 
ATOM     23  C   UNL     1       4.682   4.291  16.787  0.00  0.00    +0.000 A 
ATOM     24 CL   UNL     1       5.305   4.175  15.178  0.00  0.00    +0.000 Cl
ENDBRANCH  16  17
ENDBRANCH   4  16
TORSDOF 4
ENDMDL
MODEL 3
REMARK VINA RESULT:      -7.8      6.792      9.181
REMARK  Name = 
REMARK  5 active torsions:
REMARK  status: ('A' for Active; 'I' for Inactive)
REMARK    1  A    between atoms: C_1  and  C_2
REMARK    2  A    between atoms: C_6  and  C_7
REMARK    3  A    between atoms: C_10  and  O_11
REMARK    4  A    between atoms: O_11  and  C_12
REMARK    5  A    between atoms: C_20  and  O_21
REMARK                            x       y       z     vdW  Elec       q    Type
REMARK                         _______ _______ _______ _____ _____    ______ ____
ROOT
ATOM      1  C   UNL     1       2.231   7.073  19.427  0.00  0.00    +0.000 A 
ATOM      2  C   UNL     1       2.317   7.683  18.162  0.00  0.00    +0.000 A 
ATOM      3  C   UNL     1       1.826   8.973  17.929  0.00  0.00    +0.000 A 
ATOM      4  C   UNL     1       1.142   9.652  18.937  0.00  0.00    +0.000 A 
ATOM      5  C   UNL     1       1.084   9.084  20.207  0.00  0.00    +0.000 A 
ATOM      6  C   UNL     1       1.624   7.820  20.455  0.00  0.00    +0.000 A 
ENDROOT
BRANCH   1  12
ATOM      7  C   UNL     1       1.884   2.552  21.623  0.00  0.00    +0.000 C 
ATOM      8  C   UNL     1       2.622   3.493  20.717  0.00  0.00    +0.000 A 
ATOM      9  C   UNL     1       3.837   3.126  20.136  0.00  0.00    +0.000 A 
ATOM     10  C   UNL     1       4.519   4.026  19.325  0.00  0.00    +0.000 A 
ATOM     11  C   UNL     1       3.999   5.303  19.101  0.00  0.00    +0.000 A 
ATOM     12  C   UNL     1       2.774   5.711  19.663  0.00  0.00    +0.000 A 
ATOM     13  C   UNL     1       2.097   4.771  20.463  0.00  0.00    +0.000 A 
ENDBRANCH   1  12
BRANCH   5  14
ATOM     14  O   UNL     1       0.494   9.740  21.251  0.00  0.00    +0.000 OA
ATOM     15  H   UNL     1       0.431   9.099  21.982  0.00  0.00    +0.000 HD
ENDBRANCH   5  14
BRANCH   4  16
ATOM     16  O   UNL     1       0.521  10.872  18.765  0.00  0.00    +0.000 OA
BRANCH  16  17
ATOM     17  C   UNL     1      -0.827  10.893  18.472  0.00  0.00    +0.000 A 
ATOM     18  C   UNL     1      -1.392  10.050  17.502  0.00  0.00    +0.000 A 
ATOM     19  C   UNL     1      -2.731  10.193  17.147  0.00  0.00    +0.000 A 
ATOM     20  C   UNL     1      -3.526  11.128  17.806  0.00  0.00    +0.000 A 
ATOM     21 CL   UNL     1      -5.167  11.331  17.334  0.00  0.00    +0.000 Cl
ATOM     22  C   UNL     1      -3.002  11.900  18.843  0.00  0.00    +0.000 A 
ATOM     23  C   UNL     1      -1.654  11.778  19.177  0.00  0.00    +0.000 A 
ATOM     24 CL   UNL     1      -1.030  12.752  20.462  0.00  0.00    +0.000 Cl
ENDBRANCH  16  17
ENDBRANCH   4  16
TORSDOF 4
ENDMDL
MODEL 4
REMARK VINA RESULT:      -7.7      4.767      6.660
REMARK  Name = 
REMARK  5 active torsions:
REMARK  status: ('A' for Active; 'I' for Inactive)
REMARK    1  A    between atoms: C_1  and  C_2
REMARK    2  A    between atoms: C_6  and  C_7
REMARK    3  A    between atoms: C_10  and  O_11
REMARK    4  A    between atoms: O_11  and  C_12
REMARK    5  A    between atoms: C_20  and  O_21
REMARK                            x       y       z     vdW  Elec       q    Type
REMARK                         _______ _______ _______ _____ _____    ______ ____
ROOT
ATOM      1  C   UNL     1       2.237   7.523  19.374  0.00  0.00    +0.000 A 
ATOM      2  C   UNL     1       2.938   7.720  18.170  0.00  0.00    +0.000 A 
ATOM      3  C   UNL     1       3.759   6.728  17.623  0.00  0.00    +0.000 A 
ATOM      4  C   UNL     1       3.981   5.542  18.322  0.00  0.00    +0.000 A 
ATOM      5  C   UNL     1       3.264   5.310  19.493  0.00  0.00    +0.000 A 
ATOM      6  C   UNL     1       2.400   6.278  20.010  0.00  0.00    +0.000 A 
ENDROOT
BRANCH   1  12
ATOM      7  C   UNL     1      -0.231   9.545  23.274  0.00  0.00    +0.000 C 
ATOM      8  C   UNL     1       0.147   9.590  21.822  0.00  0.00    +0.000 A 
ATOM      9  C   UNL     1      -0.363  10.578  20.978  0.00  0.00    +0.000 A 
ATOM     10  C   UNL     1      -0.024  10.582  19.630  0.00  0.00    +0.000 A 
ATOM     11  C   UNL     1       0.814   9.590  19.114  0.00  0.00    +0.000 A 
ATOM     12  C   UNL     1       1.354   8.579  19.932  0.00  0.00    +0.000 A 
ATOM     13  C   UNL     1       1.008   8.614  21.296  0.00  0.00    +0.000 A 
ENDBRANCH   1  12
BRANCH   5  14
ATOM     14  O   UNL     1       3.384   4.133  20.178  0.00  0.00    +0.000 OA
ATOM     15  H   UNL     1       4.339   3.978  20.298  0.00  0.00    +0.000 HD
ENDBRANCH   5  14
BRANCH   4  16
ATOM     16  O   UNL     1       4.866   4.561  17.923  0.00  0.00    +0.000 OA
BRANCH  16  17
ATOM     17  C   UNL     1       5.456   4.668  16.680  0.00  0.00    +0.000 A 
ATOM     18  C   UNL     1       4.816   4.225  15.512  0.00  0.00    +0.000 A 
ATOM     19  C   UNL     1       5.498   4.233  14.297  0.00  0.00    +0.000 A 
ATOM     20  C   UNL     1       6.791   4.746  14.232  0.00  0.00    +0.000 A 
ATOM     21 CL   UNL     1       7.644   4.713  12.739  0.00  0.00    +0.000 Cl
ATOM     22  C   UNL     1       7.399   5.284  15.366  0.00  0.00    +0.000 A 
ATOM     23  C   UNL     1       6.729   5.248  16.588  0.00  0.00    +0.000 A 
ATOM     24 CL   UNL     1       7.508   5.916  17.979  0.00  0.00    +0.000 Cl
ENDBRANCH  16  17
ENDBRANCH   4  16
TORSDOF 4
ENDMDL
MODEL 5
REMARK VINA RESULT:      -7.6      6.766      8.968
REMARK  Name = 
REMARK  5 active torsions:
REMARK  status: ('A' for Active; 'I' for Inactive)
REMARK    1  A    between atoms: C_1  and  C_2
REMARK    2  A    between atoms: C_6  and  C_7
REMARK    3  A    between atoms: C_10  and  O_11
REMARK    4  A    between atoms: O_11  and  C_12
REMARK    5  A    between atoms: C_20  and  O_21
REMARK                            x       y       z     vdW  Elec       q    Type
REMARK                         _______ _______ _______ _____ _____    ______ ____
ROOT
ATOM      1  C   UNL     1       2.550   7.277  18.418  0.00  0.00    +0.000 A 
ATOM      2  C   UNL     1       2.419   8.420  17.606  0.00  0.00    +0.000 A 
ATOM      3  C   UNL     1       1.809   9.590  18.072  0.00  0.00    +0.000 A 
ATOM      4  C   UNL     1       1.221   9.615  19.336  0.00  0.00    +0.000 A 
ATOM      5  C   UNL     1       1.378   8.511  20.171  0.00  0.00    +0.000 A 
ATOM      6  C   UNL     1       2.037   7.363  19.726  0.00  0.00    +0.000 A 
ENDROOT
BRANCH   1  12
ATOM      7  C   UNL     1       2.595   2.280  17.777  0.00  0.00    +0.000 C 
ATOM      8  C   UNL     1       3.258   3.612  17.583  0.00  0.00    +0.000 A 
ATOM      9  C   UNL     1       4.516   3.707  16.986  0.00  0.00    +0.000 A 
ATOM     10  C   UNL     1       5.126   4.948  16.845  0.00  0.00    +0.000 A 
ATOM     11  C   UNL     1       4.489   6.100  17.312  0.00  0.00    +0.000 A 
ATOM     12  C   UNL     1       3.218   6.050  17.915  0.00  0.00    +0.000 A 
ATOM     13  C   UNL     1       2.617   4.781  18.026  0.00  0.00    +0.000 A 
ENDBRANCH   1  12
BRANCH   5  14
ATOM     14  O   UNL     1       0.890   8.511  21.448  0.00  0.00    +0.000 OA
ATOM     15  H   UNL     1       0.167   9.165  21.468  0.00  0.00    +0.000 HD
ENDBRANCH   5  14
BRANCH   4  16
ATOM     16  O   UNL     1       0.495  10.679  19.832  0.00  0.00    +0.000 OA
BRANCH  16  17
ATOM     17  C   UNL     1      -0.782  10.888  19.356  0.00  0.00    +0.000 A 
ATOM     18  C   UNL     1      -1.309  10.147  18.286  0.00  0.00    +0.000 A 
ATOM     19  C   UNL     1      -2.553  10.476  17.754  0.00  0.00    +0.000 A 
ATOM     20  C   UNL     1      -3.304  11.498  18.331  0.00  0.00    +0.000 A 
ATOM     21 CL   UNL     1      -4.820  11.931  17.643  0.00  0.00    +0.000 Cl
ATOM     22  C   UNL     1      -2.837  12.173  19.459  0.00  0.00    +0.000 A 
ATOM     23  C   UNL     1      -1.578  11.864  19.972  0.00  0.00    +0.000 A 
ATOM     24 CL   UNL     1      -1.021  12.720  21.367  0.00  0.00    +0.000 Cl
ENDBRANCH  16  17
ENDBRANCH   4  16
TORSDOF 4
ENDMDL
MODEL 6
REMARK VINA RESULT:      -7.6      7.135      9.538
REMARK  Name = 
REMARK  5 active torsions:
REMARK  status: ('A' for Active; 'I' for Inactive)
REMARK    1  A    between atoms: C_1  and  C_2
REMARK    2  A    between atoms: C_6  and  C_7
REMARK    3  A    between atoms: C_10  and  O_11
REMARK    4  A    between atoms: O_11  and  C_12
REMARK    5  A    between atoms: C_20  and  O_21
REMARK                            x       y       z     vdW  Elec       q    Type
REMARK                         _______ _______ _______ _____ _____    ______ ____
ROOT
ATOM      1  C   UNL     1       2.014   7.224  19.767  0.00  0.00    +0.000 A 
ATOM      2  C   UNL     1       1.313   7.799  20.844  0.00  0.00    +0.000 A 
ATOM      3  C   UNL     1       0.769   9.086  20.767  0.00  0.00    +0.000 A 
ATOM      4  C   UNL     1       0.997   9.875  19.641  0.00  0.00    +0.000 A 
ATOM      5  C   UNL     1       1.650   9.310  18.548  0.00  0.00    +0.000 A 
ATOM      6  C   UNL     1       2.145   8.006  18.603  0.00  0.00    +0.000 A 
ENDROOT
BRANCH   1  12
ATOM      7  C   UNL     1       1.844   2.559  21.661  0.00  0.00    +0.000 C 
ATOM      8  C   UNL     1       2.502   3.563  20.761  0.00  0.00    +0.000 A 
ATOM      9  C   UNL     1       3.660   3.240  20.051  0.00  0.00    +0.000 A 
ATOM     10  C   UNL     1       4.271   4.196  19.248  0.00  0.00    +0.000 A 
ATOM     11  C   UNL     1       3.738   5.485  19.161  0.00  0.00    +0.000 A 
ATOM     12  C   UNL     1       2.570   5.850  19.857  0.00  0.00    +0.000 A 
ATOM     13  C   UNL     1       1.963   4.855  20.646  0.00  0.00    +0.000 A 
ENDBRANCH   1  12
BRANCH   5  14
ATOM     14  O   UNL     1       1.833  10.013  17.390  0.00  0.00    +0.000 OA
ATOM     15  H   UNL     1       1.135  10.693  17.365  0.00  0.00    +0.000 HD
ENDBRANCH   5  14
BRANCH   4  16
ATOM     16  O   UNL     1       0.605  11.193  19.526  0.00  0.00    +0.000 OA
BRANCH  16  17
ATOM     17  C   UNL     1      -0.743  11.485  19.534  0.00  0.00    +0.000 A 
ATOM     18  C   UNL     1      -1.601  11.073  18.502  0.00  0.00    +0.000 A 
ATOM     19  C   UNL     1      -2.927  11.498  18.484  0.00  0.00    +0.000 A 
ATOM     20  C   UNL     1      -3.418  12.278  19.529  0.00  0.00    +0.000 A 
ATOM     21 CL   UNL     1      -5.044  12.837  19.480  0.00  0.00    +0.000 Cl
ATOM     22  C   UNL     1      -2.603  12.608  20.612  0.00  0.00    +0.000 A 
ATOM     23  C   UNL     1      -1.268  12.208  20.614  0.00  0.00    +0.000 A 
ATOM     24 CL   UNL     1      -0.279  12.636  21.966  0.00  0.00    +0.000 Cl
ENDBRANCH  16  17
ENDBRANCH   4  16
TORSDOF 4
ENDMDL
MODEL 7
REMARK VINA RESULT:      -7.6      6.681      8.640
REMARK  Name = 
REMARK  5 active torsions:
REMARK  status: ('A' for Active; 'I' for Inactive)
REMARK    1  A    between atoms: C_1  and  C_2
REMARK    2  A    between atoms: C_6  and  C_7
REMARK    3  A    between atoms: C_10  and  O_11
REMARK    4  A    between atoms: O_11  and  C_12
REMARK    5  A    between atoms: C_20  and  O_21
REMARK                            x       y       z     vdW  Elec       q    Type
REMARK                         _______ _______ _______ _____ _____    ______ ____
ROOT
ATOM      1  C   UNL     1       2.651   7.223  18.407  0.00  0.00    +0.000 A 
ATOM      2  C   UNL     1       2.532   8.347  17.568  0.00  0.00    +0.000 A 
ATOM      3  C   UNL     1       1.877   9.512  17.985  0.00  0.00    +0.000 A 
ATOM      4  C   UNL     1       1.235   9.548  19.221  0.00  0.00    +0.000 A 
ATOM      5  C   UNL     1       1.379   8.463  20.083  0.00  0.00    +0.000 A 
ATOM      6  C   UNL     1       2.080   7.321  19.690  0.00  0.00    +0.000 A 
ENDROOT
BRANCH   1  12
ATOM      7  C   UNL     1       6.861   4.962  16.809  0.00  0.00    +0.000 C 
ATOM      8  C   UNL     1       5.411   4.873  17.184  0.00  0.00    +0.000 A 
ATOM      9  C   UNL     1       4.711   3.671  17.065  0.00  0.00    +0.000 A 
ATOM     10  C   UNL     1       3.360   3.619  17.389  0.00  0.00    +0.000 A 
ATOM     11  C   UNL     1       2.696   4.770  17.819  0.00  0.00    +0.000 A 
ATOM     12  C   UNL     1       3.366   6.001  17.958  0.00  0.00    +0.000 A 
ATOM     13  C   UNL     1       4.738   6.018  17.642  0.00  0.00    +0.000 A 
ENDBRANCH   1  12
BRANCH   5  14
ATOM     14  O   UNL     1       0.835   8.477  21.338  0.00  0.00    +0.000 OA
ATOM     15  H   UNL     1       0.989   9.370  21.697  0.00  0.00    +0.000 HD
ENDBRANCH   5  14
BRANCH   4  16
ATOM     16  O   UNL     1       0.466  10.605  19.664  0.00  0.00    +0.000 OA
BRANCH  16  17
ATOM     17  C   UNL     1      -0.785  10.789  19.114  0.00  0.00    +0.000 A 
ATOM     18  C   UNL     1      -1.225  10.056  18.001  0.00  0.00    +0.000 A 
ATOM     19  C   UNL     1      -2.443  10.363  17.399  0.00  0.00    +0.000 A 
ATOM     20  C   UNL     1      -3.255  11.355  17.946  0.00  0.00    +0.000 A 
ATOM     21 CL   UNL     1      -4.737  11.761  17.173  0.00  0.00    +0.000 Cl
ATOM     22  C   UNL     1      -2.876  12.020  19.112  0.00  0.00    +0.000 A 
ATOM     23  C   UNL     1      -1.643  11.733  19.697  0.00  0.00    +0.000 A 
ATOM     24 CL   UNL     1      -1.196  12.576  21.138  0.00  0.00    +0.000 Cl
ENDBRANCH  16  17
ENDBRANCH   4  16
TORSDOF 4
ENDMDL
MODEL 8
REMARK VINA RESULT:      -7.5      5.438      7.018
REMARK  Name = 
REMARK  5 active torsions:
REMARK  status: ('A' for Active; 'I' for Inactive)
REMARK    1  A    between atoms: C_1  and  C_2
REMARK    2  A    between atoms: C_6  and  C_7
REMARK    3  A    between atoms: C_10  and  O_11
REMARK    4  A    between atoms: O_11  and  C_12
REMARK    5  A    between atoms: C_20  and  O_21
REMARK                            x       y       z     vdW  Elec       q    Type
REMARK                         _______ _______ _______ _____ _____    ______ ____
ROOT
ATOM      1  C   UNL     1       1.411   8.884  19.097  0.00  0.00    +0.000 A 
ATOM      2  C   UNL     1       2.215   8.658  17.964  0.00  0.00    +0.000 A 
ATOM      3  C   UNL     1       3.029   7.525  17.851  0.00  0.00    +0.000 A 
ATOM      4  C   UNL     1       3.136   6.634  18.918  0.00  0.00    +0.000 A 
ATOM      5  C   UNL     1       2.316   6.815  20.028  0.00  0.00    +0.000 A 
ATOM      6  C   UNL     1       1.462   7.916  20.118  0.00  0.00    +0.000 A 
ENDROOT
BRANCH   1  12
ATOM      7  C   UNL     1      -2.592  11.510  17.526  0.00  0.00    +0.000 C 
ATOM      8  C   UNL     1      -1.416  11.378  18.449  0.00  0.00    +0.000 A 
ATOM      9  C   UNL     1      -1.101  12.389  19.359  0.00  0.00    +0.000 A 
ATOM     10  C   UNL     1       0.011  12.259  20.183  0.00  0.00    +0.000 A 
ATOM     11  C   UNL     1       0.823  11.126  20.093  0.00  0.00    +0.000 A 
ATOM     12  C   UNL     1       0.538  10.081  19.193  0.00  0.00    +0.000 A 
ATOM     13  C   UNL     1      -0.606  10.233  18.386  0.00  0.00    +0.000 A 
ENDBRANCH   1  12
BRANCH   5  14
ATOM     14  O   UNL     1       2.324   5.928  21.069  0.00  0.00    +0.000 OA
ATOM     15  H   UNL     1       2.437   5.043  20.678  0.00  0.00    +0.000 HD
ENDBRANCH   5  14
BRANCH   4  16
ATOM     16  O   UNL     1       4.002   5.559  18.945  0.00  0.00    +0.000 OA
BRANCH  16  17
ATOM     17  C   UNL     1       4.829   5.347  17.861  0.00  0.00    +0.000 A 
ATOM     18  C   UNL     1       6.052   6.021  17.715  0.00  0.00    +0.000 A 
ATOM     19  C   UNL     1       6.794   5.875  16.545  0.00  0.00    +0.000 A 
ATOM     20  C   UNL     1       6.354   5.004  15.551  0.00  0.00    +0.000 A 
ATOM     21 CL   UNL     1       7.251   4.860  14.090  0.00  0.00    +0.000 Cl
ATOM     22  C   UNL     1       5.194   4.250  15.729  0.00  0.00    +0.000 A 
ATOM     23  C   UNL     1       4.435   4.421  16.886  0.00  0.00    +0.000 A 
ATOM     24 CL   UNL     1       2.999   3.478  17.078  0.00  0.00    +0.000 Cl
ENDBRANCH  16  17
ENDBRANCH   4  16
TORSDOF 4
ENDMDL
MODEL 9
REMARK VINA RESULT:      -7.5      5.263      6.803
REMARK  Name = 
REMARK  5 active torsions:
REMARK  status: ('A' for Active; 'I' for Inactive)
REMARK    1  A    between atoms: C_1  and  C_2
REMARK    2  A    between atoms: C_6  and  C_7
REMARK    3  A    between atoms: C_10  and  O_11
REMARK    4  A    between atoms: O_11  and  C_12
REMARK    5  A    between atoms: C_20  and  O_21
REMARK                            x       y       z     vdW  Elec       q    Type
REMARK                         _______ _______ _______ _____ _____    ______ ____
ROOT
ATOM      1  C   UNL     1       1.510   8.470  19.475  0.00  0.00    +0.000 A 
ATOM      2  C   UNL     1       2.266   8.338  18.295  0.00  0.00    +0.000 A 
ATOM      3  C   UNL     1       3.085   7.226  18.064  0.00  0.00    +0.000 A 
ATOM      4  C   UNL     1       3.247   6.261  19.057  0.00  0.00    +0.000 A 
ATOM      5  C   UNL     1       2.475   6.351  20.212  0.00  0.00    +0.000 A 
ATOM      6  C   UNL     1       1.615   7.431  20.419  0.00  0.00    +0.000 A 
ENDROOT
BRANCH   1  12
ATOM      7  C   UNL     1      -1.030  11.498  22.599  0.00  0.00    +0.000 C 
ATOM      8  C   UNL     1      -0.610  11.144  21.203  0.00  0.00    +0.000 A 
ATOM      9  C   UNL     1      -1.078  11.870  20.107  0.00  0.00    +0.000 A 
ATOM     10  C   UNL     1      -0.702  11.505  18.820  0.00  0.00    +0.000 A 
ATOM     11  C   UNL     1       0.132  10.403  18.619  0.00  0.00    +0.000 A 
ATOM     12  C   UNL     1       0.631   9.646  19.697  0.00  0.00    +0.000 A 
ATOM     13  C   UNL     1       0.248  10.053  20.989  0.00  0.00    +0.000 A 
ENDBRANCH   1  12
BRANCH   5  14
ATOM     14  O   UNL     1       2.537   5.390  21.184  0.00  0.00    +0.000 OA
ATOM     15  H   UNL     1       3.291   5.623  21.756  0.00  0.00    +0.000 HD
ENDBRANCH   5  14
BRANCH   4  16
ATOM     16  O   UNL     1       4.123   5.198  18.967  0.00  0.00    +0.000 OA
BRANCH  16  17
ATOM     17  C   UNL     1       4.917   5.086  17.845  0.00  0.00    +0.000 A 
ATOM     18  C   UNL     1       6.147   5.754  17.732  0.00  0.00    +0.000 A 
ATOM     19  C   UNL     1       6.854   5.718  16.533  0.00  0.00    +0.000 A 
ATOM     20  C   UNL     1       6.372   4.959  15.468  0.00  0.00    +0.000 A 
ATOM     21 CL   UNL     1       7.227   4.953  13.975  0.00  0.00    +0.000 Cl
ATOM     22  C   UNL     1       5.204   4.208  15.602  0.00  0.00    +0.000 A 
ATOM     23  C   UNL     1       4.480   4.270  16.792  0.00  0.00    +0.000 A 
ATOM     24 CL   UNL     1       3.034   3.333  16.929  0.00  0.00    +0.000 Cl
ENDBRANCH  16  17
ENDBRANCH   4  16
TORSDOF 4
ENDMDL
