MODEL 1
REMARK VINA RESULT:      -8.4      0.000      0.000
REMARK  Name = 
REMARK  7 active torsions:
REMARK  status: ('A' for Active; 'I' for Inactive)
REMARK    1  A    between atoms: C_1  and  C_2
REMARK    2  A    between atoms: C_2  and  N_3
REMARK    3  A    between atoms: C_4  and  C_5
REMARK    4  A    between atoms: C_10  and  C_11
REMARK    5  A    between atoms: N_16  and  C_17
REMARK    6  A    between atoms: C_19  and  C_20
REMARK    7  A    between atoms: C_23  and  C_24
REMARK                            x       y       z     vdW  Elec       q    Type
REMARK                         _______ _______ _______ _____ _____    ______ ____
ROOT
ATOM      1  C   UNL     1       1.987   5.986  20.207  0.00  0.00    +0.000 C 
ATOM      2  O   UNL     1       1.375   5.116  20.829  0.00  0.00    +0.000 OA
ATOM      3  N   UNL     1       1.672   7.335  20.389  0.00  0.00    +0.000 N 
ATOM      4  C   UNL     1       0.885   7.706  21.559  0.00  0.00    +0.000 C 
ATOM      5  C   UNL     1      -0.339   8.519  21.162  0.00  0.00    +0.000 C 
ATOM      6  C   UNL     1       0.002   9.724  20.277  0.00  0.00    +0.000 C 
ATOM      7  C   UNL     1       0.874   9.285  19.090  0.00  0.00    +0.000 C 
ATOM      8  C   UNL     1       2.077   8.445  19.529  0.00  0.00    +0.000 C 
ENDROOT
BRANCH   1  10
ATOM      9  N   UNL     1       2.872   4.838  18.155  0.00  0.00    +0.000 N 
ATOM     10  C   UNL     1       3.055   5.624  19.281  0.00  0.00    +0.000 A 
ATOM     11  C   UNL     1       4.421   5.865  19.397  0.00  0.00    +0.000 A 
ATOM     12  C   UNL     1       5.042   5.289  18.259  0.00  0.00    +0.000 A 
ATOM     13  S   UNL     1       6.619   5.135  17.566  0.00  0.00    +0.000 S 
ATOM     14  C   UNL     1       5.960   4.185  16.293  0.00  0.00    +0.000 A 
ATOM     15  C   UNL     1       4.595   4.002  16.373  0.00  0.00    +0.000 A 
ATOM     16  C   UNL     1       4.085   4.661  17.525  0.00  0.00    +0.000 A 
BRANCH   9  18
ATOM     17  C   UNL     1       1.437   2.835  18.230  0.00  0.00    +0.000 C 
ATOM     18  C   UNL     1       1.638   4.237  17.676  0.00  0.00    +0.000 C 
ENDBRANCH   9  18
ENDBRANCH   1  10
BRANCH   6  19
ATOM     19  C   UNL     1       0.703  10.849  21.043  0.00  0.00    +0.000 C 
ATOM     20  O   UNL     1       1.445  10.603  21.993  0.00  0.00    +0.000 OA
ATOM     21  N   UNL     1       0.572  12.134  20.552  0.00  0.00    +0.000 N 
ATOM     22  C   UNL     1       1.460  13.188  21.048  0.00  0.00    +0.000 C 
ATOM     23  C   UNL     1       2.049  14.030  19.895  0.00  0.00    +0.000 C 
ATOM     24  N   UNL     1       0.996  14.472  18.960  0.00  0.00    +0.000 N 
ATOM     25  C   UNL     1       0.124  13.386  18.471  0.00  0.00    +0.000 C 
ATOM     26  C   UNL     1      -0.486  12.634  19.664  0.00  0.00    +0.000 C 
BRANCH  24  27
ATOM     27  C   UNL     1       0.855  15.770  18.495  0.00  0.00    +0.000 A 
ATOM     28  C   UNL     1      -0.394  16.420  18.661  0.00  0.00    +0.000 A 
ATOM     29  C   UNL     1      -0.661  17.722  18.217  0.00  0.00    +0.000 A 
ATOM     30  C   UNL     1      -2.018  18.332  18.381  0.00  0.00    +0.000 C 
ATOM     31  C   UNL     1       0.363  18.440  17.619  0.00  0.00    +0.000 A 
ATOM     32  C   UNL     1       1.612  17.856  17.457  0.00  0.00    +0.000 A 
ATOM     33  C   UNL     1       1.871  16.524  17.859  0.00  0.00    +0.000 A 
ATOM     34  C   UNL     1       3.250  16.008  17.541  0.00  0.00    +0.000 C 
ENDBRANCH  24  27
ENDBRANCH   6  19
TORSDOF 4
ENDMDL
MODEL 2
REMARK VINA RESULT:      -8.2      0.869      1.651
REMARK  Name = 
REMARK  7 active torsions:
REMARK  status: ('A' for Active; 'I' for Inactive)
REMARK    1  A    between atoms: C_1  and  C_2
REMARK    2  A    between atoms: C_2  and  N_3
REMARK    3  A    between atoms: C_4  and  C_5
REMARK    4  A    between atoms: C_10  and  C_11
REMARK    5  A    between atoms: N_16  and  C_17
REMARK    6  A    between atoms: C_19  and  C_20
REMARK    7  A    between atoms: C_23  and  C_24
REMARK                            x       y       z     vdW  Elec       q    Type
REMARK                         _______ _______ _______ _____ _____    ______ ____
ROOT
ATOM      1  C   UNL     1       2.191   6.016  20.163  0.00  0.00    +0.000 C 
ATOM      2  O   UNL     1       1.626   5.145  20.826  0.00  0.00    +0.000 OA
ATOM      3  N   UNL     1       1.832   7.359  20.313  0.00  0.00    +0.000 N 
ATOM      4  C   UNL     1       1.062   7.737  21.492  0.00  0.00    +0.000 C 
ATOM      5  C   UNL     1      -0.200   8.496  21.103  0.00  0.00    +0.000 C 
ATOM      6  C   UNL     1       0.076   9.684  20.173  0.00  0.00    +0.000 C 
ATOM      7  C   UNL     1       0.934   9.240  18.978  0.00  0.00    +0.000 C 
ATOM      8  C   UNL     1       2.177   8.455  19.411  0.00  0.00    +0.000 C 
ENDROOT
BRANCH   1  10
ATOM      9  N   UNL     1       3.058   4.864  18.106  0.00  0.00    +0.000 N 
ATOM     10  C   UNL     1       3.248   5.664  19.221  0.00  0.00    +0.000 A 
ATOM     11  C   UNL     1       4.611   5.930  19.310  0.00  0.00    +0.000 A 
ATOM     12  C   UNL     1       5.222   5.353  18.166  0.00  0.00    +0.000 A 
ATOM     13  S   UNL     1       6.788   5.219  17.445  0.00  0.00    +0.000 S 
ATOM     14  C   UNL     1       6.122   4.246  16.194  0.00  0.00    +0.000 A 
ATOM     15  C   UNL     1       4.762   4.041  16.300  0.00  0.00    +0.000 A 
ATOM     16  C   UNL     1       4.262   4.701  17.455  0.00  0.00    +0.000 A 
BRANCH   9  18
ATOM     17  C   UNL     1       1.760   2.769  18.046  0.00  0.00    +0.000 C 
ATOM     18  C   UNL     1       1.826   4.237  17.656  0.00  0.00    +0.000 C 
ENDBRANCH   9  18
ENDBRANCH   1  10
BRANCH   6  19
ATOM     19  C   UNL     1       0.756  10.855  20.887  0.00  0.00    +0.000 C 
ATOM     20  O   UNL     1       1.736  10.676  21.610  0.00  0.00    +0.000 OA
ATOM     21  N   UNL     1       0.308  12.129  20.592  0.00  0.00    +0.000 N 
ATOM     22  C   UNL     1       1.112  13.285  20.994  0.00  0.00    +0.000 C 
ATOM     23  C   UNL     1       1.262  14.306  19.846  0.00  0.00    +0.000 C 
ATOM     24  N   UNL     1      -0.042  14.620  19.231  0.00  0.00    +0.000 N 
ATOM     25  C   UNL     1      -0.824  13.434  18.828  0.00  0.00    +0.000 C 
ATOM     26  C   UNL     1      -0.999  12.495  20.032  0.00  0.00    +0.000 C 
BRANCH  24  27
ATOM     27  C   UNL     1      -0.495  15.902  18.965  0.00  0.00    +0.000 A 
ATOM     28  C   UNL     1       0.072  16.613  17.878  0.00  0.00    +0.000 A 
ATOM     29  C   UNL     1      -0.292  17.919  17.524  0.00  0.00    +0.000 A 
ATOM     30  C   UNL     1       0.383  18.630  16.393  0.00  0.00    +0.000 C 
ATOM     31  C   UNL     1      -1.295  18.545  18.248  0.00  0.00    +0.000 A 
ATOM     32  C   UNL     1      -1.899  17.881  19.307  0.00  0.00    +0.000 A 
ATOM     33  C   UNL     1      -1.499  16.580  19.698  0.00  0.00    +0.000 A 
ATOM     34  C   UNL     1      -2.193  16.028  20.915  0.00  0.00    +0.000 C 
ENDBRANCH  24  27
ENDBRANCH   6  19
TORSDOF 4
ENDMDL
MODEL 3
REMARK VINA RESULT:      -8.1      2.973      4.046
REMARK  Name = 
REMARK  7 active torsions:
REMARK  status: ('A' for Active; 'I' for Inactive)
REMARK    1  A    between atoms: C_1  and  C_2
REMARK    2  A    between atoms: C_2  and  N_3
REMARK    3  A    between atoms: C_4  and  C_5
REMARK    4  A    between atoms: C_10  and  C_11
REMARK    5  A    between atoms: N_16  and  C_17
REMARK    6  A    between atoms: C_19  and  C_20
REMARK    7  A    between atoms: C_23  and  C_24
REMARK                            x       y       z     vdW  Elec       q    Type
REMARK                         _______ _______ _______ _____ _____    ______ ____
ROOT
ATOM      1  C   UNL     1       2.360   6.399  19.944  0.00  0.00    +0.000 C 
ATOM      2  O   UNL     1       1.882   5.682  20.824  0.00  0.00    +0.000 OA
ATOM      3  N   UNL     1       1.962   7.734  19.830  0.00  0.00    +0.000 N 
ATOM      4  C   UNL     1       1.273   8.345  20.960  0.00  0.00    +0.000 C 
ATOM      5  C   UNL     1      -0.044   8.974  20.525  0.00  0.00    +0.000 C 
ATOM      6  C   UNL     1       0.112   9.936  19.341  0.00  0.00    +0.000 C 
ATOM      7  C   UNL     1       0.890   9.259  18.201  0.00  0.00    +0.000 C 
ATOM      8  C   UNL     1       2.192   8.614  18.686  0.00  0.00    +0.000 C 
ENDROOT
BRANCH   1  10
ATOM      9  N   UNL     1       3.055   5.015  17.966  0.00  0.00    +0.000 N 
ATOM     10  C   UNL     1       3.352   5.871  19.014  0.00  0.00    +0.000 A 
ATOM     11  C   UNL     1       4.736   6.001  19.060  0.00  0.00    +0.000 A 
ATOM     12  C   UNL     1       5.258   5.281  17.953  0.00  0.00    +0.000 A 
ATOM     13  S   UNL     1       6.785   4.934  17.219  0.00  0.00    +0.000 S 
ATOM     14  C   UNL     1       5.993   3.945  16.056  0.00  0.00    +0.000 A 
ATOM     15  C   UNL     1       4.623   3.889  16.200  0.00  0.00    +0.000 A 
ATOM     16  C   UNL     1       4.220   4.681  17.310  0.00  0.00    +0.000 A 
BRANCH   9  18
ATOM     17  C   UNL     1       1.470   3.148  18.247  0.00  0.00    +0.000 C 
ATOM     18  C   UNL     1       1.755   4.487  17.585  0.00  0.00    +0.000 C 
ENDBRANCH   9  18
ENDBRANCH   1  10
BRANCH   6  19
ATOM     19  C   UNL     1       0.800  11.249  19.724  0.00  0.00    +0.000 C 
ATOM     20  O   UNL     1       1.761  11.673  19.083  0.00  0.00    +0.000 OA
ATOM     21  N   UNL     1       0.227  11.998  20.734  0.00  0.00    +0.000 N 
ATOM     22  C   UNL     1       0.648  13.388  20.926  0.00  0.00    +0.000 C 
ATOM     23  C   UNL     1      -0.559  14.335  21.094  0.00  0.00    +0.000 C 
ATOM     24  N   UNL     1      -1.517  13.816  22.090  0.00  0.00    +0.000 N 
ATOM     25  C   UNL     1      -1.929  12.417  21.863  0.00  0.00    +0.000 C 
ATOM     26  C   UNL     1      -0.687  11.517  21.778  0.00  0.00    +0.000 C 
BRANCH  24  27
ATOM     27  C   UNL     1      -2.064  14.568  23.117  0.00  0.00    +0.000 A 
ATOM     28  C   UNL     1      -1.247  14.904  24.225  0.00  0.00    +0.000 A 
ATOM     29  C   UNL     1      -1.693  15.643  25.329  0.00  0.00    +0.000 A 
ATOM     30  C   UNL     1      -0.790  15.920  26.490  0.00  0.00    +0.000 C 
ATOM     31  C   UNL     1      -2.996  16.115  25.325  0.00  0.00    +0.000 A 
ATOM     32  C   UNL     1      -3.829  15.835  24.250  0.00  0.00    +0.000 A 
ATOM     33  C   UNL     1      -3.397  15.046  23.157  0.00  0.00    +0.000 A 
ATOM     34  C   UNL     1      -4.441  14.763  22.110  0.00  0.00    +0.000 C 
ENDBRANCH  24  27
ENDBRANCH   6  19
TORSDOF 4
ENDMDL
MODEL 4
REMARK VINA RESULT:      -7.6      2.448      3.208
REMARK  Name = 
REMARK  7 active torsions:
REMARK  status: ('A' for Active; 'I' for Inactive)
REMARK    1  A    between atoms: C_1  and  C_2
REMARK    2  A    between atoms: C_2  and  N_3
REMARK    3  A    between atoms: C_4  and  C_5
REMARK    4  A    between atoms: C_10  and  C_11
REMARK    5  A    between atoms: N_16  and  C_17
REMARK    6  A    between atoms: C_19  and  C_20
REMARK    7  A    between atoms: C_23  and  C_24
REMARK                            x       y       z     vdW  Elec       q    Type
REMARK                         _______ _______ _______ _____ _____    ______ ____
ROOT
ATOM      1  C   UNL     1       2.330   6.510  19.859  0.00  0.00    +0.000 C 
ATOM      2  O   UNL     1       1.850   5.845  20.778  0.00  0.00    +0.000 OA
ATOM      3  N   UNL     1       1.943   7.840  19.676  0.00  0.00    +0.000 N 
ATOM      4  C   UNL     1       1.264   8.516  20.775  0.00  0.00    +0.000 C 
ATOM      5  C   UNL     1      -0.049   9.133  20.312  0.00  0.00    +0.000 C 
ATOM      6  C   UNL     1       0.111  10.030  19.078  0.00  0.00    +0.000 C 
ATOM      7  C   UNL     1       0.878   9.287  17.973  0.00  0.00    +0.000 C 
ATOM      8  C   UNL     1       2.177   8.657  18.486  0.00  0.00    +0.000 C 
ENDROOT
BRANCH   1  10
ATOM      9  N   UNL     1       3.005   5.014  17.956  0.00  0.00    +0.000 N 
ATOM     10  C   UNL     1       3.314   5.925  18.954  0.00  0.00    +0.000 A 
ATOM     11  C   UNL     1       4.699   6.047  18.987  0.00  0.00    +0.000 A 
ATOM     12  C   UNL     1       5.210   5.264  17.919  0.00  0.00    +0.000 A 
ATOM     13  S   UNL     1       6.731   4.866  17.197  0.00  0.00    +0.000 S 
ATOM     14  C   UNL     1       5.926   3.821  16.094  0.00  0.00    +0.000 A 
ATOM     15  C   UNL     1       4.557   3.782  16.247  0.00  0.00    +0.000 A 
ATOM     16  C   UNL     1       4.165   4.637  17.314  0.00  0.00    +0.000 A 
BRANCH   9  18
ATOM     17  C   UNL     1       1.416   3.169  18.335  0.00  0.00    +0.000 C 
ATOM     18  C   UNL     1       1.700   4.476  17.611  0.00  0.00    +0.000 C 
ENDBRANCH   9  18
ENDBRANCH   1  10
BRANCH   6  19
ATOM     19  C   UNL     1       0.811  11.355  19.389  0.00  0.00    +0.000 C 
ATOM     20  O   UNL     1       1.902  11.629  18.889  0.00  0.00    +0.000 OA
ATOM     21  N   UNL     1       0.120  12.280  20.148  0.00  0.00    +0.000 N 
ATOM     22  C   UNL     1       0.601  13.662  20.212  0.00  0.00    +0.000 C 
ATOM     23  C   UNL     1      -0.544  14.677  20.002  0.00  0.00    +0.000 C 
ATOM     24  N   UNL     1      -1.703  14.365  20.861  0.00  0.00    +0.000 N 
ATOM     25  C   UNL     1      -2.169  12.968  20.767  0.00  0.00    +0.000 C 
ATOM     26  C   UNL     1      -1.002  12.011  21.057  0.00  0.00    +0.000 C 
BRANCH  24  27
ATOM     27  C   UNL     1      -2.373  15.294  21.642  0.00  0.00    +0.000 A 
ATOM     28  C   UNL     1      -3.282  16.182  21.013  0.00  0.00    +0.000 A 
ATOM     29  C   UNL     1      -4.001  17.173  21.694  0.00  0.00    +0.000 A 
ATOM     30  C   UNL     1      -4.909  18.111  20.961  0.00  0.00    +0.000 C 
ATOM     31  C   UNL     1      -3.855  17.270  23.069  0.00  0.00    +0.000 A 
ATOM     32  C   UNL     1      -2.996  16.405  23.734  0.00  0.00    +0.000 A 
ATOM     33  C   UNL     1      -2.229  15.436  23.043  0.00  0.00    +0.000 A 
ATOM     34  C   UNL     1      -1.284  14.631  23.895  0.00  0.00    +0.000 C 
ENDBRANCH  24  27
ENDBRANCH   6  19
TORSDOF 4
ENDMDL
MODEL 5
REMARK VINA RESULT:      -7.6      4.026      6.867
REMARK  Name = 
REMARK  7 active torsions:
REMARK  status: ('A' for Active; 'I' for Inactive)
REMARK    1  A    between atoms: C_1  and  C_2
REMARK    2  A    between atoms: C_2  and  N_3
REMARK    3  A    between atoms: C_4  and  C_5
REMARK    4  A    between atoms: C_10  and  C_11
REMARK    5  A    between atoms: N_16  and  C_17
REMARK    6  A    between atoms: C_19  and  C_20
REMARK    7  A    between atoms: C_23  and  C_24
REMARK                            x       y       z     vdW  Elec       q    Type
REMARK                         _______ _______ _______ _____ _____    ______ ____
ROOT
ATOM      1  C   UNL     1       0.182  11.475  19.738  0.00  0.00    +0.000 C 
ATOM      2  O   UNL     1      -1.022  11.567  19.981  0.00  0.00    +0.000 OA
ATOM      3  N   UNL     1       0.978  12.622  19.676  0.00  0.00    +0.000 N 
ATOM      4  C   UNL     1       0.452  13.856  20.247  0.00  0.00    +0.000 C 
ATOM      5  C   UNL     1       0.506  14.995  19.238  0.00  0.00    +0.000 C 
ATOM      6  C   UNL     1       1.895  15.180  18.615  0.00  0.00    +0.000 C 
ATOM      7  C   UNL     1       2.422  13.840  18.077  0.00  0.00    +0.000 C 
ATOM      8  C   UNL     1       2.323  12.716  19.113  0.00  0.00    +0.000 C 
ENDROOT
BRANCH   1  10
ATOM      9  N   UNL     1       1.071   9.264  20.533  0.00  0.00    +0.000 N 
ATOM     10  C   UNL     1       0.798  10.170  19.521  0.00  0.00    +0.000 A 
ATOM     11  C   UNL     1       1.329   9.649  18.346  0.00  0.00    +0.000 A 
ATOM     12  C   UNL     1       1.840   8.362  18.657  0.00  0.00    +0.000 A 
ATOM     13  S   UNL     1       2.605   7.029  17.862  0.00  0.00    +0.000 S 
ATOM     14  C   UNL     1       2.732   6.212  19.370  0.00  0.00    +0.000 A 
ATOM     15  C   UNL     1       2.201   6.906  20.437  0.00  0.00    +0.000 A 
ATOM     16  C   UNL     1       1.683   8.154  19.992  0.00  0.00    +0.000 A 
BRANCH   9  18
ATOM     17  C   UNL     1      -0.567   8.898  22.338  0.00  0.00    +0.000 C 
ATOM     18  C   UNL     1       0.813   9.409  21.956  0.00  0.00    +0.000 C 
ENDBRANCH   9  18
ENDBRANCH   1  10
BRANCH   6  19
ATOM     19  C   UNL     1       2.912  15.779  19.590  0.00  0.00    +0.000 C 
ATOM     20  O   UNL     1       2.574  16.140  20.717  0.00  0.00    +0.000 OA
ATOM     21  N   UNL     1       4.239  15.784  19.206  0.00  0.00    +0.000 N 
ATOM     22  C   UNL     1       5.276  16.048  20.206  0.00  0.00    +0.000 C 
ATOM     23  C   UNL     1       6.436  15.033  20.111  0.00  0.00    +0.000 C 
ATOM     24  N   UNL     1       6.912  14.889  18.721  0.00  0.00    +0.000 N 
ATOM     25  C   UNL     1       5.844  14.614  17.740  0.00  0.00    +0.000 C 
ATOM     26  C   UNL     1       4.759  15.697  17.836  0.00  0.00    +0.000 C 
BRANCH  24  27
ATOM     27  C   UNL     1       8.244  14.924  18.342  0.00  0.00    +0.000 A 
ATOM     28  C   UNL     1       8.921  13.698  18.117  0.00  0.00    +0.000 A 
ATOM     29  C   UNL     1      10.269  13.607  17.748  0.00  0.00    +0.000 A 
ATOM     30  C   UNL     1      10.935  12.277  17.576  0.00  0.00    +0.000 C 
ATOM     31  C   UNL     1      10.981  14.779  17.546  0.00  0.00    +0.000 A 
ATOM     32  C   UNL     1      10.355  16.006  17.728  0.00  0.00    +0.000 A 
ATOM     33  C   UNL     1       9.007  16.101  18.150  0.00  0.00    +0.000 A 
ATOM     34  C   UNL     1       8.499  17.499  18.381  0.00  0.00    +0.000 C 
ENDBRANCH  24  27
ENDBRANCH   6  19
TORSDOF 4
ENDMDL
MODEL 6
REMARK VINA RESULT:      -7.6      3.124      3.928
REMARK  Name = 
REMARK  7 active torsions:
REMARK  status: ('A' for Active; 'I' for Inactive)
REMARK    1  A    between atoms: C_1  and  C_2
REMARK    2  A    between atoms: C_2  and  N_3
REMARK    3  A    between atoms: C_4  and  C_5
REMARK    4  A    between atoms: C_10  and  C_11
REMARK    5  A    between atoms: N_16  and  C_17
REMARK    6  A    between atoms: C_19  and  C_20
REMARK    7  A    between atoms: C_23  and  C_24
REMARK                            x       y       z     vdW  Elec       q    Type
REMARK                         _______ _______ _______ _____ _____    ______ ____
ROOT
ATOM      1  C   UNL     1       2.241   6.496  20.056  0.00  0.00    +0.000 C 
ATOM      2  O   UNL     1       1.848   5.695  20.905  0.00  0.00    +0.000 OA
ATOM      3  N   UNL     1       1.771   7.812  20.059  0.00  0.00    +0.000 N 
ATOM      4  C   UNL     1       1.113   8.305  21.263  0.00  0.00    +0.000 C 
ATOM      5  C   UNL     1      -0.256   8.890  20.941  0.00  0.00    +0.000 C 
ATOM      6  C   UNL     1      -0.212   9.939  19.823  0.00  0.00    +0.000 C 
ATOM      7  C   UNL     1       0.537   9.386  18.600  0.00  0.00    +0.000 C 
ATOM      8  C   UNL     1       1.894   8.781  18.972  0.00  0.00    +0.000 C 
ENDROOT
BRANCH   1  10
ATOM      9  N   UNL     1       2.928   5.201  18.016  0.00  0.00    +0.000 N 
ATOM     10  C   UNL     1       3.207   6.089  19.042  0.00  0.00    +0.000 A 
ATOM     11  C   UNL     1       4.565   6.383  18.973  0.00  0.00    +0.000 A 
ATOM     12  C   UNL     1       5.074   5.730  17.821  0.00  0.00    +0.000 A 
ATOM     13  S   UNL     1       6.564   5.566  16.959  0.00  0.00    +0.000 S 
ATOM     14  C   UNL     1       5.801   4.487  15.859  0.00  0.00    +0.000 A 
ATOM     15  C   UNL     1       4.465   4.268  16.116  0.00  0.00    +0.000 A 
ATOM     16  C   UNL     1       4.065   5.008  17.262  0.00  0.00    +0.000 A 
BRANCH   9  18
ATOM     17  C   UNL     1       1.648   3.117  18.326  0.00  0.00    +0.000 C 
ATOM     18  C   UNL     1       1.673   4.520  17.741  0.00  0.00    +0.000 C 
ENDBRANCH   9  18
ENDBRANCH   1  10
BRANCH   6  19
ATOM     19  C   UNL     1       0.428  11.257  20.266  0.00  0.00    +0.000 C 
ATOM     20  O   UNL     1       1.498  11.635  19.791  0.00  0.00    +0.000 OA
ATOM     21  N   UNL     1      -0.299  12.064  21.121  0.00  0.00    +0.000 N 
ATOM     22  C   UNL     1       0.116  13.454  21.325  0.00  0.00    +0.000 C 
ATOM     23  C   UNL     1      -1.079  14.428  21.230  0.00  0.00    +0.000 C 
ATOM     24  N   UNL     1      -2.212  13.973  22.059  0.00  0.00    +0.000 N 
ATOM     25  C   UNL     1      -2.611  12.571  21.823  0.00  0.00    +0.000 C 
ATOM     26  C   UNL     1      -1.396  11.648  22.004  0.00  0.00    +0.000 C 
BRANCH  24  27
ATOM     27  C   UNL     1      -2.916  14.782  22.936  0.00  0.00    +0.000 A 
ATOM     28  C   UNL     1      -4.247  15.143  22.609  0.00  0.00    +0.000 A 
ATOM     29  C   UNL     1      -5.050  15.969  23.407  0.00  0.00    +0.000 A 
ATOM     30  C   UNL     1      -6.432  16.351  22.977  0.00  0.00    +0.000 C 
ATOM     31  C   UNL     1      -4.536  16.429  24.609  0.00  0.00    +0.000 A 
ATOM     32  C   UNL     1      -3.246  16.082  24.986  0.00  0.00    +0.000 A 
ATOM     33  C   UNL     1      -2.414  15.290  24.159  0.00  0.00    +0.000 A 
ATOM     34  C   UNL     1      -1.015  15.069  24.669  0.00  0.00    +0.000 C 
ENDBRANCH  24  27
ENDBRANCH   6  19
TORSDOF 4
ENDMDL
MODEL 7
REMARK VINA RESULT:      -7.5      5.336      8.787
REMARK  Name = 
REMARK  7 active torsions:
REMARK  status: ('A' for Active; 'I' for Inactive)
REMARK    1  A    between atoms: C_1  and  C_2
REMARK    2  A    between atoms: C_2  and  N_3
REMARK    3  A    between atoms: C_4  and  C_5
REMARK    4  A    between atoms: C_10  and  C_11
REMARK    5  A    between atoms: N_16  and  C_17
REMARK    6  A    between atoms: C_19  and  C_20
REMARK    7  A    between atoms: C_23  and  C_24
REMARK                            x       y       z     vdW  Elec       q    Type
REMARK                         _______ _______ _______ _____ _____    ______ ____
ROOT
ATOM      1  C   UNL     1       0.197  13.934  19.855  0.00  0.00    +0.000 C 
ATOM      2  O   UNL     1      -0.813  14.574  19.557  0.00  0.00    +0.000 OA
ATOM      3  N   UNL     1       1.465  14.453  19.581  0.00  0.00    +0.000 N 
ATOM      4  C   UNL     1       1.577  15.875  19.282  0.00  0.00    +0.000 C 
ATOM      5  C   UNL     1       2.313  16.104  17.969  0.00  0.00    +0.000 C 
ATOM      6  C   UNL     1       3.664  15.381  17.904  0.00  0.00    +0.000 C 
ATOM      7  C   UNL     1       3.496  13.900  18.278  0.00  0.00    +0.000 C 
ATOM      8  C   UNL     1       2.726  13.713  19.589  0.00  0.00    +0.000 C 
ENDROOT
BRANCH   1  10
ATOM      9  N   UNL     1       0.139  11.423  19.834  0.00  0.00    +0.000 N 
ATOM     10  C   UNL     1       0.086  12.634  20.506  0.00  0.00    +0.000 A 
ATOM     11  C   UNL     1      -0.212  12.354  21.836  0.00  0.00    +0.000 A 
ATOM     12  C   UNL     1      -0.237  10.941  21.968  0.00  0.00    +0.000 A 
ATOM     13  S   UNL     1      -0.470   9.744  23.194  0.00  0.00    +0.000 S 
ATOM     14  C   UNL     1      -0.317   8.509  22.008  0.00  0.00    +0.000 A 
ATOM     15  C   UNL     1      -0.081   8.975  20.732  0.00  0.00    +0.000 A 
ATOM     16  C   UNL     1      -0.033  10.397  20.738  0.00  0.00    +0.000 A 
BRANCH   9  18
ATOM     17  C   UNL     1       1.638  10.526  18.095  0.00  0.00    +0.000 C 
ATOM     18  C   UNL     1       0.312  11.200  18.408  0.00  0.00    +0.000 C 
ENDBRANCH   9  18
ENDBRANCH   1  10
BRANCH   6  19
ATOM     19  C   UNL     1       4.728  16.021  18.799  0.00  0.00    +0.000 C 
ATOM     20  O   UNL     1       4.427  16.879  19.629  0.00  0.00    +0.000 OA
ATOM     21  N   UNL     1       6.011  15.513  18.729  0.00  0.00    +0.000 N 
ATOM     22  C   UNL     1       6.981  15.864  19.769  0.00  0.00    +0.000 C 
ATOM     23  C   UNL     1       7.743  14.623  20.285  0.00  0.00    +0.000 C 
ATOM     24  N   UNL     1       8.270  13.813  19.169  0.00  0.00    +0.000 N 
ATOM     25  C   UNL     1       7.265  13.469  18.144  0.00  0.00    +0.000 C 
ATOM     26  C   UNL     1       6.597  14.749  17.621  0.00  0.00    +0.000 C 
BRANCH  24  27
ATOM     27  C   UNL     1       9.567  13.332  19.094  0.00  0.00    +0.000 A 
ATOM     28  C   UNL     1      10.311  13.563  17.910  0.00  0.00    +0.000 A 
ATOM     29  C   UNL     1      11.622  13.111  17.711  0.00  0.00    +0.000 A 
ATOM     30  C   UNL     1      12.333  13.348  16.415  0.00  0.00    +0.000 C 
ATOM     31  C   UNL     1      12.253  12.435  18.744  0.00  0.00    +0.000 A 
ATOM     32  C   UNL     1      11.574  12.207  19.934  0.00  0.00    +0.000 A 
ATOM     33  C   UNL     1      10.232  12.618  20.120  0.00  0.00    +0.000 A 
ATOM     34  C   UNL     1       9.610  12.224  21.433  0.00  0.00    +0.000 C 
ENDBRANCH  24  27
ENDBRANCH   6  19
TORSDOF 4
ENDMDL
MODEL 8
REMARK VINA RESULT:      -7.5      4.763     10.892
REMARK  Name = 
REMARK  7 active torsions:
REMARK  status: ('A' for Active; 'I' for Inactive)
REMARK    1  A    between atoms: C_1  and  C_2
REMARK    2  A    between atoms: C_2  and  N_3
REMARK    3  A    between atoms: C_4  and  C_5
REMARK    4  A    between atoms: C_10  and  C_11
REMARK    5  A    between atoms: N_16  and  C_17
REMARK    6  A    between atoms: C_19  and  C_20
REMARK    7  A    between atoms: C_23  and  C_24
REMARK                            x       y       z     vdW  Elec       q    Type
REMARK                         _______ _______ _______ _____ _____    ______ ____
ROOT
ATOM      1  C   UNL     1      -2.549  14.867  20.672  0.00  0.00    +0.000 C 
ATOM      2  O   UNL     1      -2.014  15.934  20.368  0.00  0.00    +0.000 OA
ATOM      3  N   UNL     1      -1.850  13.665  20.536  0.00  0.00    +0.000 N 
ATOM      4  C   UNL     1      -0.401  13.725  20.382  0.00  0.00    +0.000 C 
ATOM      5  C   UNL     1       0.053  12.954  19.150  0.00  0.00    +0.000 C 
ATOM      6  C   UNL     1      -0.484  11.518  19.109  0.00  0.00    +0.000 C 
ATOM      7  C   UNL     1      -2.005  11.510  19.328  0.00  0.00    +0.000 C 
ATOM      8  C   UNL     1      -2.422  12.320  20.560  0.00  0.00    +0.000 C 
ENDROOT
BRANCH   1  10
ATOM      9  N   UNL     1      -4.235  14.656  22.522  0.00  0.00    +0.000 N 
ATOM     10  C   UNL     1      -3.914  14.841  21.187  0.00  0.00    +0.000 A 
ATOM     11  C   UNL     1      -5.108  14.862  20.475  0.00  0.00    +0.000 A 
ATOM     12  C   UNL     1      -6.160  14.784  21.424  0.00  0.00    +0.000 A 
ATOM     13  S   UNL     1      -7.889  14.787  21.467  0.00  0.00    +0.000 S 
ATOM     14  C   UNL     1      -7.840  14.570  23.172  0.00  0.00    +0.000 A 
ATOM     15  C   UNL     1      -6.567  14.515  23.700  0.00  0.00    +0.000 A 
ATOM     16  C   UNL     1      -5.606  14.648  22.660  0.00  0.00    +0.000 A 
BRANCH   9  18
ATOM     17  C   UNL     1      -3.274  13.006  24.081  0.00  0.00    +0.000 C 
ATOM     18  C   UNL     1      -3.328  14.460  23.641  0.00  0.00    +0.000 C 
ENDBRANCH   9  18
ENDBRANCH   1  10
BRANCH   6  19
ATOM     19  C   UNL     1       0.189  10.599  20.132  0.00  0.00    +0.000 C 
ATOM     20  O   UNL     1      -0.184  10.574  21.305  0.00  0.00    +0.000 OA
ATOM     21  N   UNL     1       1.141   9.713  19.665  0.00  0.00    +0.000 N 
ATOM     22  C   UNL     1       1.582   8.613  20.526  0.00  0.00    +0.000 C 
ATOM     23  C   UNL     1       1.609   7.268  19.767  0.00  0.00    +0.000 C 
ATOM     24  N   UNL     1       2.317   7.392  18.477  0.00  0.00    +0.000 N 
ATOM     25  C   UNL     1       1.843   8.504  17.630  0.00  0.00    +0.000 C 
ATOM     26  C   UNL     1       1.908   9.822  18.418  0.00  0.00    +0.000 C 
BRANCH  24  27
ATOM     27  C   UNL     1       3.291   6.514  18.031  0.00  0.00    +0.000 A 
ATOM     28  C   UNL     1       4.619   6.989  17.883  0.00  0.00    +0.000 A 
ATOM     29  C   UNL     1       5.683   6.202  17.424  0.00  0.00    +0.000 A 
ATOM     30  C   UNL     1       7.052   6.781  17.245  0.00  0.00    +0.000 C 
ATOM     31  C   UNL     1       5.442   4.868  17.136  0.00  0.00    +0.000 A 
ATOM     32  C   UNL     1       4.163   4.349  17.289  0.00  0.00    +0.000 A 
ATOM     33  C   UNL     1       3.076   5.154  17.704  0.00  0.00    +0.000 A 
ATOM     34  C   UNL     1       1.738   4.464  17.743  0.00  0.00    +0.000 C 
ENDBRANCH  24  27
ENDBRANCH   6  19
TORSDOF 4
ENDMDL
MODEL 9
REMARK VINA RESULT:      -7.4      4.103     10.619
REMARK  Name = 
REMARK  7 active torsions:
REMARK  status: ('A' for Active; 'I' for Inactive)
REMARK    1  A    between atoms: C_1  and  C_2
REMARK    2  A    between atoms: C_2  and  N_3
REMARK    3  A    between atoms: C_4  and  C_5
REMARK    4  A    between atoms: C_10  and  C_11
REMARK    5  A    between atoms: N_16  and  C_17
REMARK    6  A    between atoms: C_19  and  C_20
REMARK    7  A    between atoms: C_23  and  C_24
REMARK                            x       y       z     vdW  Elec       q    Type
REMARK                         _______ _______ _______ _____ _____    ______ ____
ROOT
ATOM      1  C   UNL     1      -1.315  13.114  20.514  0.00  0.00    +0.000 C 
ATOM      2  O   UNL     1      -0.712  14.185  20.419  0.00  0.00    +0.000 OA
ATOM      3  N   UNL     1      -0.668  11.913  20.212  0.00  0.00    +0.000 N 
ATOM      4  C   UNL     1       0.789  11.915  20.140  0.00  0.00    +0.000 C 
ATOM      5  C   UNL     1       1.274  11.333  18.820  0.00  0.00    +0.000 C 
ATOM      6  C   UNL     1       0.672   9.956  18.513  0.00  0.00    +0.000 C 
ATOM      7  C   UNL     1      -0.858   9.998  18.655  0.00  0.00    +0.000 C 
ATOM      8  C   UNL     1      -1.304  10.618  19.983  0.00  0.00    +0.000 C 
ENDROOT
BRANCH   1  10
ATOM      9  N   UNL     1      -3.104  13.143  22.278  0.00  0.00    +0.000 N 
ATOM     10  C   UNL     1      -2.706  13.082  20.952  0.00  0.00    +0.000 A 
ATOM     11  C   UNL     1      -3.848  12.860  20.189  0.00  0.00    +0.000 A 
ATOM     12  C   UNL     1      -4.954  12.890  21.078  0.00  0.00    +0.000 A 
ATOM     13  S   UNL     1      -6.678  12.761  21.029  0.00  0.00    +0.000 S 
ATOM     14  C   UNL     1      -6.730  12.897  22.743  0.00  0.00    +0.000 A 
ATOM     15  C   UNL     1      -5.495  13.053  23.335  0.00  0.00    +0.000 A 
ATOM     16  C   UNL     1      -4.477  13.052  22.342  0.00  0.00    +0.000 A 
BRANCH   9  18
ATOM     17  C   UNL     1      -2.108  14.694  23.915  0.00  0.00    +0.000 C 
ATOM     18  C   UNL     1      -2.263  13.252  23.458  0.00  0.00    +0.000 C 
ENDBRANCH   9  18
ENDBRANCH   1  10
BRANCH   6  19
ATOM     19  C   UNL     1       1.241   8.845  19.399  0.00  0.00    +0.000 C 
ATOM     20  O   UNL     1       0.681   8.518  20.446  0.00  0.00    +0.000 OA
ATOM     21  N   UNL     1       2.329   8.141  18.921  0.00  0.00    +0.000 N 
ATOM     22  C   UNL     1       2.714   6.884  19.567  0.00  0.00    +0.000 C 
ATOM     23  C   UNL     1       2.981   5.768  18.534  0.00  0.00    +0.000 C 
ATOM     24  N   UNL     1       3.880   6.233  17.460  0.00  0.00    +0.000 N 
ATOM     25  C   UNL     1       3.461   7.497  16.823  0.00  0.00    +0.000 C 
ATOM     26  C   UNL     1       3.282   8.583  17.895  0.00  0.00    +0.000 C 
BRANCH  24  27
ATOM     27  C   UNL     1       4.987   5.533  17.006  0.00  0.00    +0.000 A 
ATOM     28  C   UNL     1       5.005   5.086  15.662  0.00  0.00    +0.000 A 
ATOM     29  C   UNL     1       6.059   4.355  15.096  0.00  0.00    +0.000 A 
ATOM     30  C   UNL     1       5.992   3.870  13.682  0.00  0.00    +0.000 C 
ATOM     31  C   UNL     1       7.173   4.088  15.877  0.00  0.00    +0.000 A 
ATOM     32  C   UNL     1       7.213   4.528  17.194  0.00  0.00    +0.000 A 
ATOM     33  C   UNL     1       6.130   5.222  17.783  0.00  0.00    +0.000 A 
ATOM     34  C   UNL     1       6.293   5.559  19.241  0.00  0.00    +0.000 C 
ENDBRANCH  24  27
ENDBRANCH   6  19
TORSDOF 4
ENDMDL
