MODEL 1
REMARK VINA RESULT:      -6.9      0.000      0.000
REMARK  Name = 
REMARK  7 active torsions:
REMARK  status: ('A' for Active; 'I' for Inactive)
REMARK    1  A    between atoms: C_1  and  C_2
REMARK    2  A    between atoms: C_2  and  C_3
REMARK    3  A    between atoms: C_7  and  O_8
REMARK    4  A    between atoms: C_9  and  C_10
REMARK    5  A    between atoms: C_9  and  C_11
REMARK    6  A    between atoms: C_16  and  N_17
REMARK    7  A    between atoms: C_18  and  C_19
REMARK                            x       y       z     vdW  Elec       q    Type
REMARK                         _______ _______ _______ _____ _____    ______ ____
ROOT
ATOM      1  C   UNL     1       2.877   3.330  19.749  0.00  0.00    +0.000 C 
ATOM      2  O   UNL     1       3.750   4.449  19.479  0.00  0.00    +0.000 OA
ATOM      3  C   UNL     1       3.822   5.099  18.209  0.00  0.00    +0.000 C 
ATOM      4  C   UNL     1       3.530   4.214  16.991  0.00  0.00    +0.000 C 
ATOM      5  C   UNL     1       2.379   3.262  17.229  0.00  0.00    +0.000 C 
ATOM      6  C   UNL     1       2.575   2.431  18.511  0.00  0.00    +0.000 C 
ATOM      7  C   UNL     1       1.364   1.501  18.684  0.00  0.00    +0.000 C 
ATOM      8  C   UNL     1       3.802   1.497  18.305  0.00  0.00    +0.000 C 
ATOM      9  O   UNL     1       5.201   5.492  18.050  0.00  0.00    +0.000 OA
ATOM     10  C   UNL     1       5.292   6.693  17.430  0.00  0.00    +0.000 C 
ATOM     11  O   UNL     1       6.324   7.130  16.951  0.00  0.00    +0.000 OA
ATOM     12  C   UNL     1       3.981   7.400  17.423  0.00  0.00    +0.000 C 
ATOM     13  C   UNL     1       3.047   6.442  18.152  0.00  0.00    +0.000 C 
ENDROOT
BRANCH  13  14
ATOM     14  N   UNL     1       2.678   6.980  19.458  0.00  0.00    +0.000 N 
ATOM     15  C   UNL     1       1.855   8.089  19.569  0.00  0.00    +0.000 C 
ATOM     16  C   UNL     1       1.579   8.479  20.992  0.00  0.00    +0.000 C 
ATOM     17  O   UNL     1       1.386   8.678  18.605  0.00  0.00    +0.000 OA
ATOM     18  H   UNL     1       2.961   6.458  20.278  0.00  0.00    +0.000 HD
ENDBRANCH  13  14
BRANCH   1  20
ATOM     19  C   UNL     1       1.379   2.930  21.918  0.00  0.00    +0.000 C 
ATOM     20  C   UNL     1       1.783   3.814  20.738  0.00  0.00    +0.000 C 
ENDBRANCH   1  20
BRANCH   5  21
ATOM     21  O   UNL     1       1.168   4.005  17.280  0.00  0.00    +0.000 OA
ATOM     22  H   UNL     1       0.994   4.228  18.214  0.00  0.00    +0.000 HD
ENDBRANCH   5  21
TORSDOF 3
ENDMDL
MODEL 2
REMARK VINA RESULT:      -6.6      2.310      3.967
REMARK  Name = 
REMARK  7 active torsions:
REMARK  status: ('A' for Active; 'I' for Inactive)
REMARK    1  A    between atoms: C_1  and  C_2
REMARK    2  A    between atoms: C_2  and  C_3
REMARK    3  A    between atoms: C_7  and  O_8
REMARK    4  A    between atoms: C_9  and  C_10
REMARK    5  A    between atoms: C_9  and  C_11
REMARK    6  A    between atoms: C_16  and  N_17
REMARK    7  A    between atoms: C_18  and  C_19
REMARK                            x       y       z     vdW  Elec       q    Type
REMARK                         _______ _______ _______ _____ _____    ______ ____
ROOT
ATOM      1  C   UNL     1       2.769   5.281  19.302  0.00  0.00    +0.000 C 
ATOM      2  O   UNL     1       4.163   5.660  19.307  0.00  0.00    +0.000 OA
ATOM      3  C   UNL     1       5.230   4.727  19.133  0.00  0.00    +0.000 C 
ATOM      4  C   UNL     1       4.958   3.304  19.635  0.00  0.00    +0.000 C 
ATOM      5  C   UNL     1       3.556   2.835  19.317  0.00  0.00    +0.000 C 
ATOM      6  C   UNL     1       2.490   3.833  19.808  0.00  0.00    +0.000 C 
ATOM      7  C   UNL     1       1.100   3.289  19.440  0.00  0.00    +0.000 C 
ATOM      8  C   UNL     1       2.534   3.867  21.364  0.00  0.00    +0.000 C 
ATOM      9  O   UNL     1       6.307   5.206  19.964  0.00  0.00    +0.000 OA
ATOM     10  C   UNL     1       7.506   5.002  19.368  0.00  0.00    +0.000 C 
ATOM     11  O   UNL     1       8.573   5.078  19.952  0.00  0.00    +0.000 OA
ATOM     12  C   UNL     1       7.344   4.687  17.922  0.00  0.00    +0.000 C 
ATOM     13  C   UNL     1       5.836   4.734  17.705  0.00  0.00    +0.000 C 
ENDROOT
BRANCH  13  14
ATOM     14  N   UNL     1       5.471   5.897  16.902  0.00  0.00    +0.000 N 
ATOM     15  C   UNL     1       5.287   5.792  15.532  0.00  0.00    +0.000 C 
ATOM     16  C   UNL     1       4.900   7.092  14.888  0.00  0.00    +0.000 C 
ATOM     17  O   UNL     1       5.408   4.743  14.915  0.00  0.00    +0.000 OA
ATOM     18  H   UNL     1       5.259   6.758  17.390  0.00  0.00    +0.000 HD
ENDBRANCH  13  14
BRANCH   1  20
ATOM     19  C   UNL     1       2.254   7.370  17.727  0.00  0.00    +0.000 C 
ATOM     20  C   UNL     1       2.124   5.875  18.022  0.00  0.00    +0.000 C 
ENDBRANCH   1  20
BRANCH   5  21
ATOM     21  O   UNL     1       3.447   2.618  17.916  0.00  0.00    +0.000 OA
ATOM     22  H   UNL     1       2.716   1.989  17.768  0.00  0.00    +0.000 HD
ENDBRANCH   5  21
TORSDOF 3
ENDMDL
MODEL 3
REMARK VINA RESULT:      -6.6      2.370      4.561
REMARK  Name = 
REMARK  7 active torsions:
REMARK  status: ('A' for Active; 'I' for Inactive)
REMARK    1  A    between atoms: C_1  and  C_2
REMARK    2  A    between atoms: C_2  and  C_3
REMARK    3  A    between atoms: C_7  and  O_8
REMARK    4  A    between atoms: C_9  and  C_10
REMARK    5  A    between atoms: C_9  and  C_11
REMARK    6  A    between atoms: C_16  and  N_17
REMARK    7  A    between atoms: C_18  and  C_19
REMARK                            x       y       z     vdW  Elec       q    Type
REMARK                         _______ _______ _______ _____ _____    ______ ____
ROOT
ATOM      1  C   UNL     1       2.797   4.494  17.987  0.00  0.00    +0.000 C 
ATOM      2  O   UNL     1       3.770   5.352  17.351  0.00  0.00    +0.000 OA
ATOM      3  C   UNL     1       5.091   5.549  17.857  0.00  0.00    +0.000 C 
ATOM      4  C   UNL     1       5.244   5.435  19.379  0.00  0.00    +0.000 C 
ATOM      5  C   UNL     1       4.432   4.299  19.960  0.00  0.00    +0.000 C 
ATOM      6  C   UNL     1       2.954   4.372  19.534  0.00  0.00    +0.000 C 
ATOM      7  C   UNL     1       2.203   3.183  20.156  0.00  0.00    +0.000 C 
ATOM      8  C   UNL     1       2.325   5.648  20.166  0.00  0.00    +0.000 C 
ATOM      9  O   UNL     1       5.420   6.922  17.561  0.00  0.00    +0.000 OA
ATOM     10  C   UNL     1       6.725   7.043  17.219  0.00  0.00    +0.000 C 
ATOM     11  O   UNL     1       7.316   8.108  17.170  0.00  0.00    +0.000 OA
ATOM     12  C   UNL     1       7.327   5.717  16.905  0.00  0.00    +0.000 C 
ATOM     13  C   UNL     1       6.176   4.739  17.101  0.00  0.00    +0.000 C 
ENDROOT
BRANCH  13  14
ATOM     14  N   UNL     1       5.738   4.199  15.817  0.00  0.00    +0.000 N 
ATOM     15  C   UNL     1       6.466   4.424  14.660  0.00  0.00    +0.000 C 
ATOM     16  C   UNL     1       5.863   3.775  13.448  0.00  0.00    +0.000 C 
ATOM     17  O   UNL     1       7.505   5.069  14.633  0.00  0.00    +0.000 OA
ATOM     18  H   UNL     1       4.942   3.574  15.817  0.00  0.00    +0.000 HD
ENDBRANCH  13  14
BRANCH   1  20
ATOM     19  C   UNL     1       3.235   1.936  17.371  0.00  0.00    +0.000 C 
ATOM     20  C   UNL     1       2.565   3.274  17.056  0.00  0.00    +0.000 C 
ENDBRANCH   1  20
BRANCH   5  21
ATOM     21  O   UNL     1       5.018   3.064  19.568  0.00  0.00    +0.000 OA
ATOM     22  H   UNL     1       4.410   2.349  19.834  0.00  0.00    +0.000 HD
ENDBRANCH   5  21
TORSDOF 3
ENDMDL
MODEL 4
REMARK VINA RESULT:      -6.5      0.956      1.095
REMARK  Name = 
REMARK  7 active torsions:
REMARK  status: ('A' for Active; 'I' for Inactive)
REMARK    1  A    between atoms: C_1  and  C_2
REMARK    2  A    between atoms: C_2  and  C_3
REMARK    3  A    between atoms: C_7  and  O_8
REMARK    4  A    between atoms: C_9  and  C_10
REMARK    5  A    between atoms: C_9  and  C_11
REMARK    6  A    between atoms: C_16  and  N_17
REMARK    7  A    between atoms: C_18  and  C_19
REMARK                            x       y       z     vdW  Elec       q    Type
REMARK                         _______ _______ _______ _____ _____    ______ ____
ROOT
ATOM      1  C   UNL     1       2.786   3.927  19.903  0.00  0.00    +0.000 C 
ATOM      2  O   UNL     1       3.714   4.974  19.543  0.00  0.00    +0.000 OA
ATOM      3  C   UNL     1       4.071   5.275  18.194  0.00  0.00    +0.000 C 
ATOM      4  C   UNL     1       4.037   4.093  17.217  0.00  0.00    +0.000 C 
ATOM      5  C   UNL     1       2.848   3.187  17.443  0.00  0.00    +0.000 C 
ATOM      6  C   UNL     1       2.746   2.726  18.909  0.00  0.00    +0.000 C 
ATOM      7  C   UNL     1       1.512   1.821  19.057  0.00  0.00    +0.000 C 
ATOM      8  C   UNL     1       3.975   1.823  19.223  0.00  0.00    +0.000 C 
ATOM      9  O   UNL     1       5.457   5.672  18.236  0.00  0.00    +0.000 OA
ATOM     10  C   UNL     1       5.700   6.674  17.358  0.00  0.00    +0.000 C 
ATOM     11  O   UNL     1       6.818   7.016  17.014  0.00  0.00    +0.000 OA
ATOM     12  C   UNL     1       4.433   7.299  16.886  0.00  0.00    +0.000 C 
ATOM     13  C   UNL     1       3.348   6.523  17.622  0.00  0.00    +0.000 C 
ENDROOT
BRANCH  13  14
ATOM     14  N   UNL     1       2.711   7.364  18.631  0.00  0.00    +0.000 N 
ATOM     15  C   UNL     1       2.067   8.540  18.280  0.00  0.00    +0.000 C 
ATOM     16  C   UNL     1       1.463   9.255  19.454  0.00  0.00    +0.000 C 
ATOM     17  O   UNL     1       1.982   8.943  17.128  0.00  0.00    +0.000 OA
ATOM     18  H   UNL     1       2.670   7.012  19.579  0.00  0.00    +0.000 HD
ENDBRANCH  13  14
BRANCH   1  20
ATOM     19  C   UNL     1       1.596   6.006  21.074  0.00  0.00    +0.000 C 
ATOM     20  C   UNL     1       1.511   4.603  20.473  0.00  0.00    +0.000 C 
ENDBRANCH   1  20
BRANCH   5  21
ATOM     21  O   UNL     1       1.666   3.866  17.037  0.00  0.00    +0.000 OA
ATOM     22  H   UNL     1       1.593   3.783  16.068  0.00  0.00    +0.000 HD
ENDBRANCH   5  21
TORSDOF 3
ENDMDL
MODEL 5
REMARK VINA RESULT:      -6.5      1.661      2.439
REMARK  Name = 
REMARK  7 active torsions:
REMARK  status: ('A' for Active; 'I' for Inactive)
REMARK    1  A    between atoms: C_1  and  C_2
REMARK    2  A    between atoms: C_2  and  C_3
REMARK    3  A    between atoms: C_7  and  O_8
REMARK    4  A    between atoms: C_9  and  C_10
REMARK    5  A    between atoms: C_9  and  C_11
REMARK    6  A    between atoms: C_16  and  N_17
REMARK    7  A    between atoms: C_18  and  C_19
REMARK                            x       y       z     vdW  Elec       q    Type
REMARK                         _______ _______ _______ _____ _____    ______ ____
ROOT
ATOM      1  C   UNL     1       2.571   4.874  20.561  0.00  0.00    +0.000 C 
ATOM      2  O   UNL     1       3.885   5.224  20.073  0.00  0.00    +0.000 OA
ATOM      3  C   UNL     1       4.501   4.587  18.954  0.00  0.00    +0.000 C 
ATOM      4  C   UNL     1       4.107   3.122  18.722  0.00  0.00    +0.000 C 
ATOM      5  C   UNL     1       2.633   2.876  18.947  0.00  0.00    +0.000 C 
ATOM      6  C   UNL     1       2.166   3.386  20.323  0.00  0.00    +0.000 C 
ATOM      7  C   UNL     1       0.662   3.108  20.468  0.00  0.00    +0.000 C 
ATOM      8  C   UNL     1       2.864   2.533  21.422  0.00  0.00    +0.000 C 
ATOM      9  O   UNL     1       5.910   4.540  19.258  0.00  0.00    +0.000 OA
ATOM     10  C   UNL     1       6.652   4.746  18.144  0.00  0.00    +0.000 C 
ATOM     11  O   UNL     1       7.845   4.509  18.073  0.00  0.00    +0.000 OA
ATOM     12  C   UNL     1       5.825   5.303  17.038  0.00  0.00    +0.000 C 
ATOM     13  C   UNL     1       4.433   5.421  17.648  0.00  0.00    +0.000 C 
ENDROOT
BRANCH  13  14
ATOM     14  N   UNL     1       4.078   6.822  17.846  0.00  0.00    +0.000 N 
ATOM     15  C   UNL     1       2.780   7.267  17.652  0.00  0.00    +0.000 C 
ATOM     16  C   UNL     1       2.612   8.735  17.922  0.00  0.00    +0.000 C 
ATOM     17  O   UNL     1       1.861   6.534  17.315  0.00  0.00    +0.000 OA
ATOM     18  H   UNL     1       4.787   7.438  18.226  0.00  0.00    +0.000 HD
ENDBRANCH  13  14
BRANCH   1  20
ATOM     19  C   UNL     1       1.636   7.289  21.194  0.00  0.00    +0.000 C 
ATOM     20  C   UNL     1       1.626   6.070  20.272  0.00  0.00    +0.000 C 
ENDBRANCH   1  20
BRANCH   5  21
ATOM     21  O   UNL     1       1.896   3.490  17.897  0.00  0.00    +0.000 OA
ATOM     22  H   UNL     1       2.202   4.413  17.819  0.00  0.00    +0.000 HD
ENDBRANCH   5  21
TORSDOF 3
ENDMDL
MODEL 6
REMARK VINA RESULT:      -6.4      1.424      1.539
REMARK  Name = 
REMARK  7 active torsions:
REMARK  status: ('A' for Active; 'I' for Inactive)
REMARK    1  A    between atoms: C_1  and  C_2
REMARK    2  A    between atoms: C_2  and  C_3
REMARK    3  A    between atoms: C_7  and  O_8
REMARK    4  A    between atoms: C_9  and  C_10
REMARK    5  A    between atoms: C_9  and  C_11
REMARK    6  A    between atoms: C_16  and  N_17
REMARK    7  A    between atoms: C_18  and  C_19
REMARK                            x       y       z     vdW  Elec       q    Type
REMARK                         _______ _______ _______ _____ _____    ______ ____
ROOT
ATOM      1  C   UNL     1       3.489   4.169  19.906  0.00  0.00    +0.000 C 
ATOM      2  O   UNL     1       4.485   4.999  19.270  0.00  0.00    +0.000 OA
ATOM      3  C   UNL     1       4.764   4.957  17.870  0.00  0.00    +0.000 C 
ATOM      4  C   UNL     1       4.537   3.602  17.188  0.00  0.00    +0.000 C 
ATOM      5  C   UNL     1       3.285   2.909  17.676  0.00  0.00    +0.000 C 
ATOM      6  C   UNL     1       3.253   2.793  19.211  0.00  0.00    +0.000 C 
ATOM      7  C   UNL     1       1.950   2.089  19.625  0.00  0.00    +0.000 C 
ATOM      8  C   UNL     1       4.406   1.846  19.654  0.00  0.00    +0.000 C 
ATOM      9  O   UNL     1       6.181   5.192  17.747  0.00  0.00    +0.000 OA
ATOM     10  C   UNL     1       6.453   5.944  16.654  0.00  0.00    +0.000 C 
ATOM     11  O   UNL     1       7.570   6.073  16.182  0.00  0.00    +0.000 OA
ATOM     12  C   UNL     1       5.222   6.592  16.123  0.00  0.00    +0.000 C 
ATOM     13  C   UNL     1       4.126   6.124  17.072  0.00  0.00    +0.000 C 
ENDROOT
BRANCH  13  14
ATOM     14  N   UNL     1       3.657   7.232  17.898  0.00  0.00    +0.000 N 
ATOM     15  C   UNL     1       2.304   7.476  18.069  0.00  0.00    +0.000 C 
ATOM     16  C   UNL     1       2.024   8.648  18.966  0.00  0.00    +0.000 C 
ATOM     17  O   UNL     1       1.427   6.793  17.558  0.00  0.00    +0.000 OA
ATOM     18  H   UNL     1       4.349   7.755  18.422  0.00  0.00    +0.000 HD
ENDBRANCH  13  14
BRANCH   1  20
ATOM     19  C   UNL     1       0.902   4.564  20.418  0.00  0.00    +0.000 C 
ATOM     20  C   UNL     1       2.335   5.094  20.377  0.00  0.00    +0.000 C 
ENDBRANCH   1  20
BRANCH   5  21
ATOM     21  O   UNL     1       2.148   3.613  17.192  0.00  0.00    +0.000 OA
ATOM     22  H   UNL     1       1.681   3.030  16.564  0.00  0.00    +0.000 HD
ENDBRANCH   5  21
TORSDOF 3
ENDMDL
MODEL 7
REMARK VINA RESULT:      -6.2      2.757      4.119
REMARK  Name = 
REMARK  7 active torsions:
REMARK  status: ('A' for Active; 'I' for Inactive)
REMARK    1  A    between atoms: C_1  and  C_2
REMARK    2  A    between atoms: C_2  and  C_3
REMARK    3  A    between atoms: C_7  and  O_8
REMARK    4  A    between atoms: C_9  and  C_10
REMARK    5  A    between atoms: C_9  and  C_11
REMARK    6  A    between atoms: C_16  and  N_17
REMARK    7  A    between atoms: C_18  and  C_19
REMARK                            x       y       z     vdW  Elec       q    Type
REMARK                         _______ _______ _______ _____ _____    ______ ____
ROOT
ATOM      1  C   UNL     1       5.481   4.101  18.863  0.00  0.00    +0.000 C 
ATOM      2  O   UNL     1       6.095   4.024  17.558  0.00  0.00    +0.000 OA
ATOM      3  C   UNL     1       5.379   4.241  16.341  0.00  0.00    +0.000 C 
ATOM      4  C   UNL     1       3.893   3.862  16.367  0.00  0.00    +0.000 C 
ATOM      5  C   UNL     1       3.216   4.257  17.660  0.00  0.00    +0.000 C 
ATOM      6  C   UNL     1       3.969   3.721  18.892  0.00  0.00    +0.000 C 
ATOM      7  C   UNL     1       3.226   4.172  20.159  0.00  0.00    +0.000 C 
ATOM      8  C   UNL     1       3.881   2.167  18.879  0.00  0.00    +0.000 C 
ATOM      9  O   UNL     1       5.966   3.342  15.378  0.00  0.00    +0.000 OA
ATOM     10  C   UNL     1       6.023   3.917  14.153  0.00  0.00    +0.000 C 
ATOM     11  O   UNL     1       6.234   3.297  13.125  0.00  0.00    +0.000 OA
ATOM     12  C   UNL     1       5.807   5.388  14.235  0.00  0.00    +0.000 C 
ATOM     13  C   UNL     1       5.611   5.645  15.724  0.00  0.00    +0.000 C 
ENDROOT
BRANCH  13  14
ATOM     14  N   UNL     1       6.755   6.363  16.275  0.00  0.00    +0.000 N 
ATOM     15  C   UNL     1       6.581   7.462  17.102  0.00  0.00    +0.000 C 
ATOM     16  C   UNL     1       7.876   8.053  17.579  0.00  0.00    +0.000 C 
ATOM     17  O   UNL     1       5.482   7.893  17.426  0.00  0.00    +0.000 OA
ATOM     18  H   UNL     1       7.676   5.974  16.115  0.00  0.00    +0.000 HD
ENDBRANCH  13  14
BRANCH   1  20
ATOM     19  C   UNL     1       7.566   5.462  19.817  0.00  0.00    +0.000 C 
ATOM     20  C   UNL     1       6.059   5.348  19.583  0.00  0.00    +0.000 C 
ENDBRANCH   1  20
BRANCH   5  21
ATOM     21  O   UNL     1       3.102   5.674  17.708  0.00  0.00    +0.000 OA
ATOM     22  H   UNL     1       2.431   5.941  17.051  0.00  0.00    +0.000 HD
ENDBRANCH   5  21
TORSDOF 3
ENDMDL
MODEL 8
REMARK VINA RESULT:      -6.0      1.808      4.061
REMARK  Name = 
REMARK  7 active torsions:
REMARK  status: ('A' for Active; 'I' for Inactive)
REMARK    1  A    between atoms: C_1  and  C_2
REMARK    2  A    between atoms: C_2  and  C_3
REMARK    3  A    between atoms: C_7  and  O_8
REMARK    4  A    between atoms: C_9  and  C_10
REMARK    5  A    between atoms: C_9  and  C_11
REMARK    6  A    between atoms: C_16  and  N_17
REMARK    7  A    between atoms: C_18  and  C_19
REMARK                            x       y       z     vdW  Elec       q    Type
REMARK                         _______ _______ _______ _____ _____    ______ ____
ROOT
ATOM      1  C   UNL     1       1.950   3.328  18.274  0.00  0.00    +0.000 C 
ATOM      2  O   UNL     1       2.082   4.620  17.640  0.00  0.00    +0.000 OA
ATOM      3  C   UNL     1       2.764   5.722  18.239  0.00  0.00    +0.000 C 
ATOM      4  C   UNL     1       2.733   5.768  19.772  0.00  0.00    +0.000 C 
ATOM      5  C   UNL     1       2.918   4.404  20.397  0.00  0.00    +0.000 C 
ATOM      6  C   UNL     1       1.924   3.372  19.833  0.00  0.00    +0.000 C 
ATOM      7  C   UNL     1       2.183   2.017  20.510  0.00  0.00    +0.000 C 
ATOM      8  C   UNL     1       0.488   3.793  20.262  0.00  0.00    +0.000 C 
ATOM      9  O   UNL     1       2.040   6.899  17.826  0.00  0.00    +0.000 OA
ATOM     10  C   UNL     1       2.887   7.930  17.593  0.00  0.00    +0.000 C 
ATOM     11  O   UNL     1       2.527   9.089  17.482  0.00  0.00    +0.000 OA
ATOM     12  C   UNL     1       4.296   7.458  17.482  0.00  0.00    +0.000 C 
ATOM     13  C   UNL     1       4.192   5.951  17.678  0.00  0.00    +0.000 C 
ENDROOT
BRANCH  13  14
ATOM     14  N   UNL     1       4.466   5.252  16.427  0.00  0.00    +0.000 N 
ATOM     15  C   UNL     1       5.649   4.555  16.240  0.00  0.00    +0.000 C 
ATOM     16  C   UNL     1       5.737   3.891  14.896  0.00  0.00    +0.000 C 
ATOM     17  O   UNL     1       6.523   4.472  17.092  0.00  0.00    +0.000 OA
ATOM     18  H   UNL     1       3.724   5.209  15.739  0.00  0.00    +0.000 HD
ENDBRANCH  13  14
BRANCH   1  20
ATOM     19  C   UNL     1       3.833   1.443  18.182  0.00  0.00    +0.000 C 
ATOM     20  C   UNL     1       2.803   2.316  17.465  0.00  0.00    +0.000 C 
ENDBRANCH   1  20
BRANCH   5  21
ATOM     21  O   UNL     1       4.261   3.982  20.198  0.00  0.00    +0.000 OA
ATOM     22  H   UNL     1       4.242   3.182  19.639  0.00  0.00    +0.000 HD
ENDBRANCH   5  21
TORSDOF 3
ENDMDL
MODEL 9
REMARK VINA RESULT:      -5.9      2.208      3.556
REMARK  Name = 
REMARK  7 active torsions:
REMARK  status: ('A' for Active; 'I' for Inactive)
REMARK    1  A    between atoms: C_1  and  C_2
REMARK    2  A    between atoms: C_2  and  C_3
REMARK    3  A    between atoms: C_7  and  O_8
REMARK    4  A    between atoms: C_9  and  C_10
REMARK    5  A    between atoms: C_9  and  C_11
REMARK    6  A    between atoms: C_16  and  N_17
REMARK    7  A    between atoms: C_18  and  C_19
REMARK                            x       y       z     vdW  Elec       q    Type
REMARK                         _______ _______ _______ _____ _____    ______ ____
ROOT
ATOM      1  C   UNL     1       3.511   2.864  19.430  0.00  0.00    +0.000 C 
ATOM      2  O   UNL     1       4.330   3.471  18.407  0.00  0.00    +0.000 OA
ATOM      3  C   UNL     1       4.152   4.814  17.954  0.00  0.00    +0.000 C 
ATOM      4  C   UNL     1       2.718   5.354  18.022  0.00  0.00    +0.000 C 
ATOM      5  C   UNL     1       2.002   4.940  19.287  0.00  0.00    +0.000 C 
ATOM      6  C   UNL     1       2.054   3.416  19.505  0.00  0.00    +0.000 C 
ATOM      7  C   UNL     1       1.315   3.079  20.810  0.00  0.00    +0.000 C 
ATOM      8  C   UNL     1       1.239   2.732  18.368  0.00  0.00    +0.000 C 
ATOM      9  O   UNL     1       4.466   4.795  16.546  0.00  0.00    +0.000 OA
ATOM     10  C   UNL     1       5.110   5.929  16.180  0.00  0.00    +0.000 C 
ATOM     11  O   UNL     1       5.259   6.277  15.021  0.00  0.00    +0.000 OA
ATOM     12  C   UNL     1       5.611   6.675  17.367  0.00  0.00    +0.000 C 
ATOM     13  C   UNL     1       5.180   5.813  18.547  0.00  0.00    +0.000 C 
ENDROOT
BRANCH  13  14
ATOM     14  N   UNL     1       6.338   5.184  19.173  0.00  0.00    +0.000 N 
ATOM     15  C   UNL     1       7.579   5.800  19.166  0.00  0.00    +0.000 C 
ATOM     16  C   UNL     1       8.638   5.004  19.872  0.00  0.00    +0.000 C 
ATOM     17  O   UNL     1       7.786   6.892  18.653  0.00  0.00    +0.000 OA
ATOM     18  H   UNL     1       6.185   4.331  19.698  0.00  0.00    +0.000 HD
ENDBRANCH  13  14
BRANCH   1  20
ATOM     19  C   UNL     1       5.138   1.317  20.868  0.00  0.00    +0.000 C 
ATOM     20  C   UNL     1       4.403   2.645  20.680  0.00  0.00    +0.000 C 
ENDBRANCH   1  20
BRANCH   5  21
ATOM     21  O   UNL     1       2.572   5.634  20.390  0.00  0.00    +0.000 OA
ATOM     22  H   UNL     1       3.162   5.014  20.859  0.00  0.00    +0.000 HD
ENDBRANCH   5  21
TORSDOF 3
ENDMDL
