MODEL 1
REMARK VINA RESULT:      -7.2      0.000      0.000
REMARK  Name = 
REMARK  1 active torsions:
REMARK  status: ('A' for Active; 'I' for Inactive)
REMARK    1  A    between atoms: N_1  and  C_2
REMARK                            x       y       z     vdW  Elec       q    Type
REMARK                         _______ _______ _______ _____ _____    ______ ____
ROOT
ATOM      1  C   UNL     1       2.540   4.239  18.253  0.00  0.00    +0.000 C 
ATOM      2  C   UNL     1       2.673   2.843  18.950  0.00  0.00    +0.000 C 
ATOM      3  C   UNL     1       3.212   2.965  20.373  0.00  0.00    +0.000 C 
ATOM      4  C   UNL     1       2.209   3.733  21.250  0.00  0.00    +0.000 C 
ATOM      5  C   UNL     1       1.524   4.900  20.508  0.00  0.00    +0.000 C 
ATOM      6  C   UNL     1       2.430   5.341  19.359  0.00  0.00    +0.000 C 
ATOM      7  C   UNL     1       2.144   6.695  18.729  0.00  0.00    +0.000 C 
ATOM      8  C   UNL     1       3.408   7.114  17.961  0.00  0.00    +0.000 C 
ATOM      9  C   UNL     1       4.144   5.978  17.269  0.00  0.00    +0.000 A 
ATOM     10  C   UNL     1       5.321   6.289  16.567  0.00  0.00    +0.000 A 
ATOM     11  C   UNL     1       6.040   5.292  15.909  0.00  0.00    +0.000 A 
ATOM     12  C   UNL     1       5.566   3.989  15.896  0.00  0.00    +0.000 A 
ATOM     13  C   UNL     1       4.406   3.664  16.597  0.00  0.00    +0.000 A 
ATOM     14  C   UNL     1       3.720   4.631  17.357  0.00  0.00    +0.000 A 
ENDROOT
BRANCH   1  15
ATOM     15  N   UNL     1       1.334   4.190  17.409  0.00  0.00    +0.000 NA
ATOM     16  H   UNL     1       1.537   3.713  16.533  0.00  0.00    +0.000 HD
ATOM     17  H   UNL     1       1.054   5.139  17.165  0.00  0.00    +0.000 HD
ENDBRANCH   1  15
TORSDOF 1
ENDMDL
MODEL 2
REMARK VINA RESULT:      -7.0      1.761      4.358
REMARK  Name = 
REMARK  1 active torsions:
REMARK  status: ('A' for Active; 'I' for Inactive)
REMARK    1  A    between atoms: N_1  and  C_2
REMARK                            x       y       z     vdW  Elec       q    Type
REMARK                         _______ _______ _______ _____ _____    ______ ____
ROOT
ATOM      1  C   UNL     1       4.846   4.639  17.737  0.00  0.00    +0.000 C 
ATOM      2  C   UNL     1       5.791   3.853  16.767  0.00  0.00    +0.000 C 
ATOM      3  C   UNL     1       5.504   4.178  15.303  0.00  0.00    +0.000 C 
ATOM      4  C   UNL     1       5.818   5.657  15.022  0.00  0.00    +0.000 C 
ATOM      5  C   UNL     1       5.420   6.591  16.184  0.00  0.00    +0.000 C 
ATOM      6  C   UNL     1       4.318   5.913  16.996  0.00  0.00    +0.000 C 
ATOM      7  C   UNL     1       3.520   6.787  17.951  0.00  0.00    +0.000 C 
ATOM      8  C   UNL     1       2.223   6.029  18.283  0.00  0.00    +0.000 C 
ATOM      9  C   UNL     1       2.378   4.522  18.415  0.00  0.00    +0.000 A 
ATOM     10  C   UNL     1       1.227   3.767  18.696  0.00  0.00    +0.000 A 
ATOM     11  C   UNL     1       1.302   2.382  18.832  0.00  0.00    +0.000 A 
ATOM     12  C   UNL     1       2.530   1.742  18.745  0.00  0.00    +0.000 A 
ATOM     13  C   UNL     1       3.677   2.477  18.456  0.00  0.00    +0.000 A 
ATOM     14  C   UNL     1       3.612   3.862  18.210  0.00  0.00    +0.000 A 
ENDROOT
BRANCH   1  15
ATOM     15  N   UNL     1       5.638   4.989  18.928  0.00  0.00    +0.000 NA
ATOM     16  H   UNL     1       5.649   5.998  19.059  0.00  0.00    +0.000 HD
ATOM     17  H   UNL     1       6.606   4.704  18.785  0.00  0.00    +0.000 HD
ENDBRANCH   1  15
TORSDOF 1
ENDMDL
MODEL 3
REMARK VINA RESULT:      -6.9      2.057      4.641
REMARK  Name = 
REMARK  1 active torsions:
REMARK  status: ('A' for Active; 'I' for Inactive)
REMARK    1  A    between atoms: N_1  and  C_2
REMARK                            x       y       z     vdW  Elec       q    Type
REMARK                         _______ _______ _______ _____ _____    ______ ____
ROOT
ATOM      1  C   UNL     1       5.533   4.316  16.979  0.00  0.00    +0.000 C 
ATOM      2  C   UNL     1       6.011   3.274  15.913  0.00  0.00    +0.000 C 
ATOM      3  C   UNL     1       5.904   3.821  14.492  0.00  0.00    +0.000 C 
ATOM      4  C   UNL     1       6.862   5.010  14.314  0.00  0.00    +0.000 C 
ATOM      5  C   UNL     1       6.940   5.917  15.561  0.00  0.00    +0.000 C 
ATOM      6  C   UNL     1       5.650   5.750  16.363  0.00  0.00    +0.000 C 
ATOM      7  C   UNL     1       5.344   6.805  17.414  0.00  0.00    +0.000 C 
ATOM      8  C   UNL     1       3.845   6.699  17.740  0.00  0.00    +0.000 C 
ATOM      9  C   UNL     1       3.289   5.283  17.748  0.00  0.00    +0.000 A 
ATOM     10  C   UNL     1       1.920   5.118  18.017  0.00  0.00    +0.000 A 
ATOM     11  C   UNL     1       1.350   3.846  18.042  0.00  0.00    +0.000 A 
ATOM     12  C   UNL     1       2.146   2.725  17.855  0.00  0.00    +0.000 A 
ATOM     13  C   UNL     1       3.503   2.876  17.577  0.00  0.00    +0.000 A 
ATOM     14  C   UNL     1       4.082   4.152  17.442  0.00  0.00    +0.000 A 
ENDROOT
BRANCH   1  15
ATOM     15  N   UNL     1       6.400   4.158  18.160  0.00  0.00    +0.000 NA
ATOM     16  H   UNL     1       5.872   3.756  18.932  0.00  0.00    +0.000 HD
ATOM     17  H   UNL     1       6.717   5.075  18.471  0.00  0.00    +0.000 HD
ENDBRANCH   1  15
TORSDOF 1
ENDMDL
MODEL 4
REMARK VINA RESULT:      -6.6      1.756      2.326
REMARK  Name = 
REMARK  1 active torsions:
REMARK  status: ('A' for Active; 'I' for Inactive)
REMARK    1  A    between atoms: N_1  and  C_2
REMARK                            x       y       z     vdW  Elec       q    Type
REMARK                         _______ _______ _______ _____ _____    ______ ____
ROOT
ATOM      1  C   UNL     1       3.702   4.447  17.629  0.00  0.00    +0.000 C 
ATOM      2  C   UNL     1       2.626   3.390  17.212  0.00  0.00    +0.000 C 
ATOM      3  C   UNL     1       2.844   2.049  17.907  0.00  0.00    +0.000 C 
ATOM      4  C   UNL     1       2.651   2.207  19.425  0.00  0.00    +0.000 C 
ATOM      5  C   UNL     1       3.209   3.538  19.971  0.00  0.00    +0.000 C 
ATOM      6  C   UNL     1       4.295   4.035  19.018  0.00  0.00    +0.000 C 
ATOM      7  C   UNL     1       5.232   5.115  19.535  0.00  0.00    +0.000 C 
ATOM      8  C   UNL     1       6.472   5.114  18.626  0.00  0.00    +0.000 C 
ATOM      9  C   UNL     1       6.188   4.847  17.156  0.00  0.00    +0.000 A 
ATOM     10  C   UNL     1       7.280   4.810  16.273  0.00  0.00    +0.000 A 
ATOM     11  C   UNL     1       7.087   4.573  14.913  0.00  0.00    +0.000 A 
ATOM     12  C   UNL     1       5.802   4.426  14.411  0.00  0.00    +0.000 A 
ATOM     13  C   UNL     1       4.711   4.449  15.276  0.00  0.00    +0.000 A 
ATOM     14  C   UNL     1       4.887   4.582  16.667  0.00  0.00    +0.000 A 
ENDROOT
BRANCH   1  15
ATOM     15  N   UNL     1       3.026   5.755  17.692  0.00  0.00    +0.000 NA
ATOM     16  H   UNL     1       3.594   6.420  18.211  0.00  0.00    +0.000 HD
ATOM     17  H   UNL     1       2.150   5.658  18.204  0.00  0.00    +0.000 HD
ENDBRANCH   1  15
TORSDOF 1
ENDMDL
MODEL 5
REMARK VINA RESULT:      -6.6      1.671      1.950
REMARK  Name = 
REMARK  1 active torsions:
REMARK  status: ('A' for Active; 'I' for Inactive)
REMARK    1  A    between atoms: N_1  and  C_2
REMARK                            x       y       z     vdW  Elec       q    Type
REMARK                         _______ _______ _______ _____ _____    ______ ____
ROOT
ATOM      1  C   UNL     1       3.195   3.125  18.920  0.00  0.00    +0.000 C 
ATOM      2  C   UNL     1       3.559   2.362  20.238  0.00  0.00    +0.000 C 
ATOM      3  C   UNL     1       2.844   2.948  21.452  0.00  0.00    +0.000 C 
ATOM      4  C   UNL     1       1.324   2.755  21.310  0.00  0.00    +0.000 C 
ATOM      5  C   UNL     1       0.822   2.950  19.864  0.00  0.00    +0.000 C 
ATOM      6  C   UNL     1       1.817   3.840  19.121  0.00  0.00    +0.000 C 
ATOM      7  C   UNL     1       1.350   4.465  17.816  0.00  0.00    +0.000 C 
ATOM      8  C   UNL     1       2.297   5.638  17.511  0.00  0.00    +0.000 C 
ATOM      9  C   UNL     1       3.752   5.401  17.884  0.00  0.00    +0.000 A 
ATOM     10  C   UNL     1       4.666   6.442  17.652  0.00  0.00    +0.000 A 
ATOM     11  C   UNL     1       6.014   6.287  17.969  0.00  0.00    +0.000 A 
ATOM     12  C   UNL     1       6.475   5.077  18.468  0.00  0.00    +0.000 A 
ATOM     13  C   UNL     1       5.577   4.040  18.713  0.00  0.00    +0.000 A 
ATOM     14  C   UNL     1       4.195   4.208  18.500  0.00  0.00    +0.000 A 
ENDROOT
BRANCH   1  15
ATOM     15  N   UNL     1       3.139   2.125  17.840  0.00  0.00    +0.000 NA
ATOM     16  H   UNL     1       2.401   2.362  17.180  0.00  0.00    +0.000 HD
ATOM     17  H   UNL     1       2.897   1.217  18.233  0.00  0.00    +0.000 HD
ENDBRANCH   1  15
TORSDOF 1
ENDMDL
MODEL 6
REMARK VINA RESULT:      -6.6      1.754      3.959
REMARK  Name = 
REMARK  1 active torsions:
REMARK  status: ('A' for Active; 'I' for Inactive)
REMARK    1  A    between atoms: N_1  and  C_2
REMARK                            x       y       z     vdW  Elec       q    Type
REMARK                         _______ _______ _______ _____ _____    ______ ____
ROOT
ATOM      1  C   UNL     1       3.161   5.261  19.171  0.00  0.00    +0.000 C 
ATOM      2  C   UNL     1       2.184   4.227  19.827  0.00  0.00    +0.000 C 
ATOM      3  C   UNL     1       1.351   3.488  18.783  0.00  0.00    +0.000 C 
ATOM      4  C   UNL     1       2.266   2.632  17.891  0.00  0.00    +0.000 C 
ATOM      5  C   UNL     1       3.608   3.320  17.562  0.00  0.00    +0.000 C 
ATOM      6  C   UNL     1       3.421   4.832  17.688  0.00  0.00    +0.000 C 
ATOM      7  C   UNL     1       4.484   5.718  17.059  0.00  0.00    +0.000 C 
ATOM      8  C   UNL     1       3.871   7.120  16.902  0.00  0.00    +0.000 C 
ATOM      9  C   UNL     1       2.948   7.546  18.033  0.00  0.00    +0.000 A 
ATOM     10  C   UNL     1       2.336   8.808  17.940  0.00  0.00    +0.000 A 
ATOM     11  C   UNL     1       1.482   9.258  18.946  0.00  0.00    +0.000 A 
ATOM     12  C   UNL     1       1.272   8.483  20.077  0.00  0.00    +0.000 A 
ATOM     13  C   UNL     1       1.863   7.225  20.177  0.00  0.00    +0.000 A 
ATOM     14  C   UNL     1       2.645   6.703  19.128  0.00  0.00    +0.000 A 
ENDROOT
BRANCH   1  15
ATOM     15  N   UNL     1       4.401   5.252  19.967  0.00  0.00    +0.000 NA
ATOM     16  H   UNL     1       5.212   5.283  19.353  0.00  0.00    +0.000 HD
ATOM     17  H   UNL     1       4.462   4.378  20.487  0.00  0.00    +0.000 HD
ENDBRANCH   1  15
TORSDOF 1
ENDMDL
MODEL 7
REMARK VINA RESULT:      -6.5      2.049      2.982
REMARK  Name = 
REMARK  1 active torsions:
REMARK  status: ('A' for Active; 'I' for Inactive)
REMARK    1  A    between atoms: N_1  and  C_2
REMARK                            x       y       z     vdW  Elec       q    Type
REMARK                         _______ _______ _______ _____ _____    ______ ____
ROOT
ATOM      1  C   UNL     1       4.401   3.908  19.000  0.00  0.00    +0.000 C 
ATOM      2  C   UNL     1       3.764   4.430  20.332  0.00  0.00    +0.000 C 
ATOM      3  C   UNL     1       2.523   5.281  20.075  0.00  0.00    +0.000 C 
ATOM      4  C   UNL     1       1.419   4.421  19.438  0.00  0.00    +0.000 C 
ATOM      5  C   UNL     1       1.961   3.397  18.419  0.00  0.00    +0.000 C 
ATOM      6  C   UNL     1       3.301   3.905  17.887  0.00  0.00    +0.000 C 
ATOM      7  C   UNL     1       3.834   3.260  16.617  0.00  0.00    +0.000 C 
ATOM      8  C   UNL     1       4.896   4.210  16.038  0.00  0.00    +0.000 C 
ATOM      9  C   UNL     1       5.754   4.919  17.074  0.00  0.00    +0.000 A 
ATOM     10  C   UNL     1       6.730   5.819  16.613  0.00  0.00    +0.000 A 
ATOM     11  C   UNL     1       7.551   6.498  17.511  0.00  0.00    +0.000 A 
ATOM     12  C   UNL     1       7.447   6.248  18.871  0.00  0.00    +0.000 A 
ATOM     13  C   UNL     1       6.476   5.367  19.344  0.00  0.00    +0.000 A 
ATOM     14  C   UNL     1       5.566   4.749  18.466  0.00  0.00    +0.000 A 
ENDROOT
BRANCH   1  15
ATOM     15  N   UNL     1       4.913   2.552  19.265  0.00  0.00    +0.000 NA
ATOM     16  H   UNL     1       5.895   2.490  19.006  0.00  0.00    +0.000 HD
ATOM     17  H   UNL     1       4.415   1.883  18.679  0.00  0.00    +0.000 HD
ENDBRANCH   1  15
TORSDOF 1
ENDMDL
MODEL 8
REMARK VINA RESULT:      -6.5      1.532      4.759
REMARK  Name = 
REMARK  1 active torsions:
REMARK  status: ('A' for Active; 'I' for Inactive)
REMARK    1  A    between atoms: N_1  and  C_2
REMARK                            x       y       z     vdW  Elec       q    Type
REMARK                         _______ _______ _______ _____ _____    ______ ____
ROOT
ATOM      1  C   UNL     1       3.698   4.962  18.450  0.00  0.00    +0.000 C 
ATOM      2  C   UNL     1       4.935   5.701  19.063  0.00  0.00    +0.000 C 
ATOM      3  C   UNL     1       6.220   4.893  18.904  0.00  0.00    +0.000 C 
ATOM      4  C   UNL     1       6.567   4.745  17.413  0.00  0.00    +0.000 C 
ATOM      5  C   UNL     1       5.325   4.535  16.520  0.00  0.00    +0.000 C 
ATOM      6  C   UNL     1       4.207   3.942  17.377  0.00  0.00    +0.000 C 
ATOM      7  C   UNL     1       3.032   3.312  16.646  0.00  0.00    +0.000 C 
ATOM      8  C   UNL     1       2.305   2.406  17.653  0.00  0.00    +0.000 C 
ATOM      9  C   UNL     1       2.252   2.941  19.076  0.00  0.00    +0.000 A 
ATOM     10  C   UNL     1       1.621   2.151  20.051  0.00  0.00    +0.000 A 
ATOM     11  C   UNL     1       1.537   2.587  21.372  0.00  0.00    +0.000 A 
ATOM     12  C   UNL     1       2.029   3.835  21.724  0.00  0.00    +0.000 A 
ATOM     13  C   UNL     1       2.667   4.625  20.769  0.00  0.00    +0.000 A 
ATOM     14  C   UNL     1       2.859   4.163  19.453  0.00  0.00    +0.000 A 
ENDROOT
BRANCH   1  15
ATOM     15  N   UNL     1       2.827   5.990  17.856  0.00  0.00    +0.000 NA
ATOM     16  H   UNL     1       2.806   5.891  16.843  0.00  0.00    +0.000 HD
ATOM     17  H   UNL     1       3.212   6.913  18.050  0.00  0.00    +0.000 HD
ENDBRANCH   1  15
TORSDOF 1
ENDMDL
MODEL 9
REMARK VINA RESULT:      -6.3      1.812      2.787
REMARK  Name = 
REMARK  1 active torsions:
REMARK  status: ('A' for Active; 'I' for Inactive)
REMARK    1  A    between atoms: N_1  and  C_2
REMARK                            x       y       z     vdW  Elec       q    Type
REMARK                         _______ _______ _______ _____ _____    ______ ____
ROOT
ATOM      1  C   UNL     1       3.776   3.580  19.436  0.00  0.00    +0.000 C 
ATOM      2  C   UNL     1       3.338   4.365  20.718  0.00  0.00    +0.000 C 
ATOM      3  C   UNL     1       1.910   4.893  20.604  0.00  0.00    +0.000 C 
ATOM      4  C   UNL     1       0.921   3.718  20.522  0.00  0.00    +0.000 C 
ATOM      5  C   UNL     1       1.451   2.537  19.681  0.00  0.00    +0.000 C 
ATOM      6  C   UNL     1       2.493   3.071  18.698  0.00  0.00    +0.000 C 
ATOM      7  C   UNL     1       2.874   2.172  17.533  0.00  0.00    +0.000 C 
ATOM      8  C   UNL     1       3.541   3.064  16.472  0.00  0.00    +0.000 C 
ATOM      9  C   UNL     1       4.417   4.176  17.028  0.00  0.00    +0.000 A 
ATOM     10  C   UNL     1       5.039   5.041  16.113  0.00  0.00    +0.000 A 
ATOM     11  C   UNL     1       5.857   6.078  16.559  0.00  0.00    +0.000 A 
ATOM     12  C   UNL     1       6.107   6.230  17.915  0.00  0.00    +0.000 A 
ATOM     13  C   UNL     1       5.488   5.386  18.834  0.00  0.00    +0.000 A 
ATOM     14  C   UNL     1       4.576   4.398  18.417  0.00  0.00    +0.000 A 
ENDROOT
BRANCH   1  15
ATOM     15  N   UNL     1       4.629   2.463  19.880  0.00  0.00    +0.000 NA
ATOM     16  H   UNL     1       5.524   2.815  20.214  0.00  0.00    +0.000 HD
ATOM     17  H   UNL     1       4.832   1.857  19.087  0.00  0.00    +0.000 HD
ENDBRANCH   1  15
TORSDOF 1
ENDMDL
