MODEL 1
REMARK VINA RESULT:      -7.4      0.000      0.000
REMARK  Name = 
REMARK  6 active torsions:
REMARK  status: ('A' for Active; 'I' for Inactive)
REMARK    1  A    between atoms: C_1  and  C_2
REMARK    2  A    between atoms: C_2  and  C_3
REMARK    3  A    between atoms: C_3  and  N_4
REMARK    4  A    between atoms: C_5  and  O_7
REMARK    5  A    between atoms: O_7  and  C_8
REMARK    6  A    between atoms: C_12  and  C_13
REMARK                            x       y       z     vdW  Elec       q    Type
REMARK                         _______ _______ _______ _____ _____    ______ ____
ROOT
ATOM      1  C   UNL     1       5.661   4.878  16.518  0.00  0.00    +0.000 A 
ATOM      2  C   UNL     1       5.575   6.264  16.615  0.00  0.00    +0.000 A 
ATOM      3  C   UNL     1       4.495   6.837  17.293  0.00  0.00    +0.000 A 
ATOM      4  C   UNL     1       3.514   6.020  17.869  0.00  0.00    +0.000 A 
ATOM      5  C   UNL     1       3.618   4.627  17.775  0.00  0.00    +0.000 A 
ATOM      6  C   UNL     1       4.707   4.058  17.118  0.00  0.00    +0.000 A 
ENDROOT
BRANCH   5   7
ATOM      7  C   UNL     1       2.578   3.759  18.343  0.00  0.00    +0.000 C 
ATOM      8  N   UNL     1       2.483   2.474  18.202  0.00  0.00    +0.000 NA
ATOM      9  C   UNL     1       1.272   2.137  18.963  0.00  0.00    +0.000 C 
ATOM     10  C   UNL     1       0.867   3.406  19.679  0.00  0.00    +0.000 C 
ATOM     11  O   UNL     1       1.658   4.418  19.087  0.00  0.00    +0.000 OA
ENDBRANCH   5   7
BRANCH   1  12
ATOM     12  O   UNL     1       6.790   4.304  15.918  0.00  0.00    +0.000 OA
BRANCH  12  14
ATOM     13  N   UNL     1       6.336   3.670  13.813  0.00  0.00    +0.000 N 
ATOM     14  C   UNL     1       6.975   4.608  14.574  0.00  0.00    +0.000 C 
ATOM     15  O   UNL     1       7.588   5.567  14.129  0.00  0.00    +0.000 OA
ATOM     16  H   UNL     1       5.864   2.928  14.312  0.00  0.00    +0.000 HD
BRANCH  13  17
ATOM     17  C   UNL     1       6.447   3.623  12.375  0.00  0.00    +0.000 C 
BRANCH  17  19
ATOM     18  C   UNL     1       4.151   3.295  11.355  0.00  0.00    +0.000 C 
ATOM     19  C   UNL     1       5.456   2.630  11.773  0.00  0.00    +0.000 C 
ENDBRANCH  17  19
ENDBRANCH  13  17
ENDBRANCH  12  14
ENDBRANCH   1  12
TORSDOF 5
ENDMDL
MODEL 2
REMARK VINA RESULT:      -6.9      1.704      6.588
REMARK  Name = 
REMARK  6 active torsions:
REMARK  status: ('A' for Active; 'I' for Inactive)
REMARK    1  A    between atoms: C_1  and  C_2
REMARK    2  A    between atoms: C_2  and  C_3
REMARK    3  A    between atoms: C_3  and  N_4
REMARK    4  A    between atoms: C_5  and  O_7
REMARK    5  A    between atoms: O_7  and  C_8
REMARK    6  A    between atoms: C_12  and  C_13
REMARK                            x       y       z     vdW  Elec       q    Type
REMARK                         _______ _______ _______ _____ _____    ______ ____
ROOT
ATOM      1  C   UNL     1       4.088   5.377  17.953  0.00  0.00    +0.000 A 
ATOM      2  C   UNL     1       4.941   5.331  19.053  0.00  0.00    +0.000 A 
ATOM      3  C   UNL     1       6.310   5.135  18.850  0.00  0.00    +0.000 A 
ATOM      4  C   UNL     1       6.814   4.991  17.551  0.00  0.00    +0.000 A 
ATOM      5  C   UNL     1       5.948   5.051  16.452  0.00  0.00    +0.000 A 
ATOM      6  C   UNL     1       4.586   5.268  16.656  0.00  0.00    +0.000 A 
ENDROOT
BRANCH   5   7
ATOM      7  C   UNL     1       6.457   4.865  15.087  0.00  0.00    +0.000 C 
ATOM      8  N   UNL     1       7.524   5.400  14.581  0.00  0.00    +0.000 NA
ATOM      9  C   UNL     1       7.544   4.882  13.206  0.00  0.00    +0.000 C 
ATOM     10  C   UNL     1       6.442   3.850  13.136  0.00  0.00    +0.000 C 
ATOM     11  O   UNL     1       5.702   4.035  14.328  0.00  0.00    +0.000 OA
ENDBRANCH   5   7
BRANCH   1  12
ATOM     12  O   UNL     1       2.731   5.664  18.152  0.00  0.00    +0.000 OA
BRANCH  12  14
ATOM     13  N   UNL     1       1.525   4.417  19.577  0.00  0.00    +0.000 N 
ATOM     14  C   UNL     1       1.896   4.559  18.270  0.00  0.00    +0.000 C 
ATOM     15  O   UNL     1       1.526   3.833  17.358  0.00  0.00    +0.000 OA
ATOM     16  H   UNL     1       1.902   5.090  20.230  0.00  0.00    +0.000 HD
BRANCH  13  17
ATOM     17  C   UNL     1       0.767   3.286  20.057  0.00  0.00    +0.000 C 
BRANCH  17  19
ATOM     18  C   UNL     1       2.864   2.707  21.355  0.00  0.00    +0.000 C 
ATOM     19  C   UNL     1       1.341   2.747  21.364  0.00  0.00    +0.000 C 
ENDBRANCH  17  19
ENDBRANCH  13  17
ENDBRANCH  12  14
ENDBRANCH   1  12
TORSDOF 5
ENDMDL
MODEL 3
REMARK VINA RESULT:      -6.8      1.957      6.409
REMARK  Name = 
REMARK  6 active torsions:
REMARK  status: ('A' for Active; 'I' for Inactive)
REMARK    1  A    between atoms: C_1  and  C_2
REMARK    2  A    between atoms: C_2  and  C_3
REMARK    3  A    between atoms: C_3  and  N_4
REMARK    4  A    between atoms: C_5  and  O_7
REMARK    5  A    between atoms: O_7  and  C_8
REMARK    6  A    between atoms: C_12  and  C_13
REMARK                            x       y       z     vdW  Elec       q    Type
REMARK                         _______ _______ _______ _____ _____    ______ ____
ROOT
ATOM      1  C   UNL     1       6.248   4.593  18.504  0.00  0.00    +0.000 A 
ATOM      2  C   UNL     1       6.802   5.788  18.958  0.00  0.00    +0.000 A 
ATOM      3  C   UNL     1       7.385   6.664  18.038  0.00  0.00    +0.000 A 
ATOM      4  C   UNL     1       7.409   6.339  16.676  0.00  0.00    +0.000 A 
ATOM      5  C   UNL     1       6.838   5.141  16.231  0.00  0.00    +0.000 A 
ATOM      6  C   UNL     1       6.237   4.279  17.147  0.00  0.00    +0.000 A 
ENDROOT
BRANCH   5   7
ATOM      7  C   UNL     1       6.887   4.771  14.810  0.00  0.00    +0.000 C 
ATOM      8  N   UNL     1       6.142   3.893  14.214  0.00  0.00    +0.000 NA
ATOM      9  C   UNL     1       6.620   3.929  12.825  0.00  0.00    +0.000 C 
ATOM     10  C   UNL     1       7.584   5.090  12.749  0.00  0.00    +0.000 C 
ATOM     11  O   UNL     1       7.814   5.453  14.097  0.00  0.00    +0.000 OA
ENDBRANCH   5   7
BRANCH   1  12
ATOM     12  O   UNL     1       5.583   3.760  19.414  0.00  0.00    +0.000 OA
BRANCH  12  14
ATOM     13  N   UNL     1       3.475   4.527  19.331  0.00  0.00    +0.000 N 
ATOM     14  C   UNL     1       4.270   3.442  19.086  0.00  0.00    +0.000 C 
ATOM     15  O   UNL     1       3.876   2.378  18.631  0.00  0.00    +0.000 OA
ATOM     16  H   UNL     1       3.932   5.346  19.706  0.00  0.00    +0.000 HD
BRANCH  13  17
ATOM     17  C   UNL     1       2.036   4.481  19.222  0.00  0.00    +0.000 C 
BRANCH  17  19
ATOM     18  C   UNL     1       1.191   2.938  21.045  0.00  0.00    +0.000 C 
ATOM     19  C   UNL     1       1.378   4.382  20.595  0.00  0.00    +0.000 C 
ENDBRANCH  17  19
ENDBRANCH  13  17
ENDBRANCH  12  14
ENDBRANCH   1  12
TORSDOF 5
ENDMDL
MODEL 4
REMARK VINA RESULT:      -6.8      1.842      6.259
REMARK  Name = 
REMARK  6 active torsions:
REMARK  status: ('A' for Active; 'I' for Inactive)
REMARK    1  A    between atoms: C_1  and  C_2
REMARK    2  A    between atoms: C_2  and  C_3
REMARK    3  A    between atoms: C_3  and  N_4
REMARK    4  A    between atoms: C_5  and  O_7
REMARK    5  A    between atoms: O_7  and  C_8
REMARK    6  A    between atoms: C_12  and  C_13
REMARK                            x       y       z     vdW  Elec       q    Type
REMARK                         _______ _______ _______ _____ _____    ______ ____
ROOT
ATOM      1  C   UNL     1       5.235   4.561  18.356  0.00  0.00    +0.000 A 
ATOM      2  C   UNL     1       4.515   5.734  18.571  0.00  0.00    +0.000 A 
ATOM      3  C   UNL     1       4.371   6.650  17.525  0.00  0.00    +0.000 A 
ATOM      4  C   UNL     1       4.946   6.385  16.275  0.00  0.00    +0.000 A 
ATOM      5  C   UNL     1       5.657   5.197  16.067  0.00  0.00    +0.000 A 
ATOM      6  C   UNL     1       5.780   4.276  17.105  0.00  0.00    +0.000 A 
ENDROOT
BRANCH   5   7
ATOM      7  C   UNL     1       6.295   4.923  14.773  0.00  0.00    +0.000 C 
ATOM      8  N   UNL     1       7.434   5.386  14.360  0.00  0.00    +0.000 NA
ATOM      9  C   UNL     1       7.571   4.802  13.019  0.00  0.00    +0.000 C 
ATOM     10  C   UNL     1       6.434   3.816  12.878  0.00  0.00    +0.000 C 
ATOM     11  O   UNL     1       5.585   4.091  13.976  0.00  0.00    +0.000 OA
ENDBRANCH   5   7
BRANCH   1  12
ATOM     12  O   UNL     1       5.301   3.603  19.376  0.00  0.00    +0.000 OA
BRANCH  12  14
ATOM     13  N   UNL     1       3.328   3.324  20.411  0.00  0.00    +0.000 N 
ATOM     14  C   UNL     1       4.187   2.780  19.497  0.00  0.00    +0.000 C 
ATOM     15  O   UNL     1       3.983   1.745  18.879  0.00  0.00    +0.000 OA
ATOM     16  H   UNL     1       3.620   4.187  20.847  0.00  0.00    +0.000 HD
BRANCH  13  17
ATOM     17  C   UNL     1       2.138   2.644  20.865  0.00  0.00    +0.000 C 
BRANCH  17  19
ATOM     18  C   UNL     1       0.599   2.545  18.855  0.00  0.00    +0.000 C 
ATOM     19  C   UNL     1       0.887   3.208  20.196  0.00  0.00    +0.000 C 
ENDBRANCH  17  19
ENDBRANCH  13  17
ENDBRANCH  12  14
ENDBRANCH   1  12
TORSDOF 5
ENDMDL
MODEL 5
REMARK VINA RESULT:      -6.7      3.332      5.854
REMARK  Name = 
REMARK  6 active torsions:
REMARK  status: ('A' for Active; 'I' for Inactive)
REMARK    1  A    between atoms: C_1  and  C_2
REMARK    2  A    between atoms: C_2  and  C_3
REMARK    3  A    between atoms: C_3  and  N_4
REMARK    4  A    between atoms: C_5  and  O_7
REMARK    5  A    between atoms: O_7  and  C_8
REMARK    6  A    between atoms: C_12  and  C_13
REMARK                            x       y       z     vdW  Elec       q    Type
REMARK                         _______ _______ _______ _____ _____    ______ ____
ROOT
ATOM      1  C   UNL     1       4.166   4.338  17.391  0.00  0.00    +0.000 A 
ATOM      2  C   UNL     1       5.164   4.642  16.468  0.00  0.00    +0.000 A 
ATOM      3  C   UNL     1       5.361   5.972  16.086  0.00  0.00    +0.000 A 
ATOM      4  C   UNL     1       4.561   6.985  16.630  0.00  0.00    +0.000 A 
ATOM      5  C   UNL     1       3.569   6.669  17.566  0.00  0.00    +0.000 A 
ATOM      6  C   UNL     1       3.390   5.345  17.962  0.00  0.00    +0.000 A 
ENDROOT
BRANCH   5   7
ATOM      7  C   UNL     1       2.700   7.716  18.118  0.00  0.00    +0.000 C 
ATOM      8  N   UNL     1       2.169   7.736  19.300  0.00  0.00    +0.000 NA
ATOM      9  C   UNL     1       1.405   8.991  19.309  0.00  0.00    +0.000 C 
ATOM     10  C   UNL     1       1.777   9.711  18.033  0.00  0.00    +0.000 C 
ATOM     11  O   UNL     1       2.471   8.744  17.267  0.00  0.00    +0.000 OA
ENDBRANCH   5   7
BRANCH   1  12
ATOM     12  O   UNL     1       4.031   3.018  17.842  0.00  0.00    +0.000 OA
BRANCH  12  14
ATOM     13  N   UNL     1       2.966   2.497  19.748  0.00  0.00    +0.000 N 
ATOM     14  C   UNL     1       4.177   2.835  19.212  0.00  0.00    +0.000 C 
ATOM     15  O   UNL     1       5.217   2.935  19.847  0.00  0.00    +0.000 OA
ATOM     16  H   UNL     1       2.186   2.448  19.107  0.00  0.00    +0.000 HD
BRANCH  13  17
ATOM     17  C   UNL     1       2.749   2.370  21.170  0.00  0.00    +0.000 C 
BRANCH  17  19
ATOM     18  C   UNL     1       0.934   3.999  20.483  0.00  0.00    +0.000 C 
ATOM     19  C   UNL     1       1.578   3.233  21.632  0.00  0.00    +0.000 C 
ENDBRANCH  17  19
ENDBRANCH  13  17
ENDBRANCH  12  14
ENDBRANCH   1  12
TORSDOF 5
ENDMDL
MODEL 6
REMARK VINA RESULT:      -6.7      1.631      6.473
REMARK  Name = 
REMARK  6 active torsions:
REMARK  status: ('A' for Active; 'I' for Inactive)
REMARK    1  A    between atoms: C_1  and  C_2
REMARK    2  A    between atoms: C_2  and  C_3
REMARK    3  A    between atoms: C_3  and  N_4
REMARK    4  A    between atoms: C_5  and  O_7
REMARK    5  A    between atoms: O_7  and  C_8
REMARK    6  A    between atoms: C_12  and  C_13
REMARK                            x       y       z     vdW  Elec       q    Type
REMARK                         _______ _______ _______ _____ _____    ______ ____
ROOT
ATOM      1  C   UNL     1       5.879   4.500  18.320  0.00  0.00    +0.000 A 
ATOM      2  C   UNL     1       6.519   5.611  18.863  0.00  0.00    +0.000 A 
ATOM      3  C   UNL     1       7.276   6.440  18.030  0.00  0.00    +0.000 A 
ATOM      4  C   UNL     1       7.385   6.152  16.663  0.00  0.00    +0.000 A 
ATOM      5  C   UNL     1       6.727   5.038  16.127  0.00  0.00    +0.000 A 
ATOM      6  C   UNL     1       5.955   4.226  16.955  0.00  0.00    +0.000 A 
ENDROOT
BRANCH   5   7
ATOM      7  C   UNL     1       6.861   4.704  14.703  0.00  0.00    +0.000 C 
ATOM      8  N   UNL     1       6.190   3.805  14.053  0.00  0.00    +0.000 NA
ATOM      9  C   UNL     1       6.731   3.896  12.690  0.00  0.00    +0.000 C 
ATOM     10  C   UNL     1       7.639   5.104  12.684  0.00  0.00    +0.000 C 
ATOM     11  O   UNL     1       7.786   5.447  14.050  0.00  0.00    +0.000 OA
ENDBRANCH   5   7
BRANCH   1  12
ATOM     12  O   UNL     1       5.047   3.723  19.137  0.00  0.00    +0.000 OA
BRANCH  12  14
ATOM     13  N   UNL     1       2.972   2.872  19.226  0.00  0.00    +0.000 N 
ATOM     14  C   UNL     1       3.691   4.023  19.070  0.00  0.00    +0.000 C 
ATOM     15  O   UNL     1       3.205   5.134  18.917  0.00  0.00    +0.000 OA
ATOM     16  H   UNL     1       3.502   2.020  19.347  0.00  0.00    +0.000 HD
BRANCH  13  17
ATOM     17  C   UNL     1       1.537   2.820  19.072  0.00  0.00    +0.000 C 
BRANCH  17  19
ATOM     18  C   UNL     1       1.552   2.605  21.596  0.00  0.00    +0.000 C 
ATOM     19  C   UNL     1       0.826   3.162  20.378  0.00  0.00    +0.000 C 
ENDBRANCH  17  19
ENDBRANCH  13  17
ENDBRANCH  12  14
ENDBRANCH   1  12
TORSDOF 5
ENDMDL
MODEL 7
REMARK VINA RESULT:      -6.7      1.782      2.175
REMARK  Name = 
REMARK  6 active torsions:
REMARK  status: ('A' for Active; 'I' for Inactive)
REMARK    1  A    between atoms: C_1  and  C_2
REMARK    2  A    between atoms: C_2  and  C_3
REMARK    3  A    between atoms: C_3  and  N_4
REMARK    4  A    between atoms: C_5  and  O_7
REMARK    5  A    between atoms: O_7  and  C_8
REMARK    6  A    between atoms: C_12  and  C_13
REMARK                            x       y       z     vdW  Elec       q    Type
REMARK                         _______ _______ _______ _____ _____    ______ ____
ROOT
ATOM      1  C   UNL     1       5.420   6.122  17.986  0.00  0.00    +0.000 A 
ATOM      2  C   UNL     1       4.717   7.140  17.345  0.00  0.00    +0.000 A 
ATOM      3  C   UNL     1       3.330   7.217  17.501  0.00  0.00    +0.000 A 
ATOM      4  C   UNL     1       2.659   6.279  18.296  0.00  0.00    +0.000 A 
ATOM      5  C   UNL     1       3.378   5.268  18.945  0.00  0.00    +0.000 A 
ATOM      6  C   UNL     1       4.763   5.206  18.806  0.00  0.00    +0.000 A 
ENDROOT
BRANCH   5   7
ATOM      7  C   UNL     1       2.684   4.256  19.753  0.00  0.00    +0.000 C 
ATOM      8  N   UNL     1       2.177   3.142  19.327  0.00  0.00    +0.000 NA
ATOM      9  C   UNL     1       1.612   2.539  20.542  0.00  0.00    +0.000 C 
ATOM     10  C   UNL     1       2.073   3.409  21.689  0.00  0.00    +0.000 C 
ATOM     11  O   UNL     1       2.604   4.565  21.069  0.00  0.00    +0.000 OA
ENDBRANCH   5   7
BRANCH   1  12
ATOM     12  O   UNL     1       6.819   6.100  17.903  0.00  0.00    +0.000 OA
BRANCH  12  14
ATOM     13  N   UNL     1       7.035   5.627  15.719  0.00  0.00    +0.000 N 
ATOM     14  C   UNL     1       7.350   5.206  16.980  0.00  0.00    +0.000 C 
ATOM     15  O   UNL     1       8.013   4.212  17.238  0.00  0.00    +0.000 OA
ATOM     16  H   UNL     1       6.481   6.470  15.649  0.00  0.00    +0.000 HD
BRANCH  13  17
ATOM     17  C   UNL     1       7.324   4.846  14.539  0.00  0.00    +0.000 C 
BRANCH  17  19
ATOM     18  C   UNL     1       5.918   3.648  12.806  0.00  0.00    +0.000 C 
ATOM     19  C   UNL     1       6.242   3.800  14.287  0.00  0.00    +0.000 C 
ENDBRANCH  17  19
ENDBRANCH  13  17
ENDBRANCH  12  14
ENDBRANCH   1  12
TORSDOF 5
ENDMDL
MODEL 8
REMARK VINA RESULT:      -6.6      1.750      6.283
REMARK  Name = 
REMARK  6 active torsions:
REMARK  status: ('A' for Active; 'I' for Inactive)
REMARK    1  A    between atoms: C_1  and  C_2
REMARK    2  A    between atoms: C_2  and  C_3
REMARK    3  A    between atoms: C_3  and  N_4
REMARK    4  A    between atoms: C_5  and  O_7
REMARK    5  A    between atoms: O_7  and  C_8
REMARK    6  A    between atoms: C_12  and  C_13
REMARK                            x       y       z     vdW  Elec       q    Type
REMARK                         _______ _______ _______ _____ _____    ______ ____
ROOT
ATOM      1  C   UNL     1       5.365   4.853  18.296  0.00  0.00    +0.000 A 
ATOM      2  C   UNL     1       4.675   6.057  18.411  0.00  0.00    +0.000 A 
ATOM      3  C   UNL     1       4.499   6.855  17.277  0.00  0.00    +0.000 A 
ATOM      4  C   UNL     1       5.013   6.443  16.041  0.00  0.00    +0.000 A 
ATOM      5  C   UNL     1       5.695   5.224  15.936  0.00  0.00    +0.000 A 
ATOM      6  C   UNL     1       5.849   4.420  17.063  0.00  0.00    +0.000 A 
ENDROOT
BRANCH   5   7
ATOM      7  C   UNL     1       6.270   4.796  14.654  0.00  0.00    +0.000 C 
ATOM      8  N   UNL     1       5.744   3.963  13.811  0.00  0.00    +0.000 NA
ATOM      9  C   UNL     1       6.736   3.903  12.729  0.00  0.00    +0.000 C 
ATOM     10  C   UNL     1       7.756   4.973  13.043  0.00  0.00    +0.000 C 
ATOM     11  O   UNL     1       7.464   5.367  14.370  0.00  0.00    +0.000 OA
ENDBRANCH   5   7
BRANCH   1  12
ATOM     12  O   UNL     1       5.461   4.011  19.413  0.00  0.00    +0.000 OA
BRANCH  12  14
ATOM     13  N   UNL     1       3.314   3.460  19.055  0.00  0.00    +0.000 N 
ATOM     14  C   UNL     1       4.525   2.984  19.471  0.00  0.00    +0.000 C 
ATOM     15  O   UNL     1       4.740   1.831  19.816  0.00  0.00    +0.000 OA
ATOM     16  H   UNL     1       3.278   4.436  18.795  0.00  0.00    +0.000 HD
BRANCH  13  17
ATOM     17  C   UNL     1       2.102   2.680  19.125  0.00  0.00    +0.000 C 
BRANCH  17  19
ATOM     18  C   UNL     1       1.560   2.740  21.599  0.00  0.00    +0.000 C 
ATOM     19  C   UNL     1       1.162   3.209  20.205  0.00  0.00    +0.000 C 
ENDBRANCH  17  19
ENDBRANCH  13  17
ENDBRANCH  12  14
ENDBRANCH   1  12
TORSDOF 5
ENDMDL
MODEL 9
REMARK VINA RESULT:      -6.6      1.311      1.460
REMARK  Name = 
REMARK  6 active torsions:
REMARK  status: ('A' for Active; 'I' for Inactive)
REMARK    1  A    between atoms: C_1  and  C_2
REMARK    2  A    between atoms: C_2  and  C_3
REMARK    3  A    between atoms: C_3  and  N_4
REMARK    4  A    between atoms: C_5  and  O_7
REMARK    5  A    between atoms: O_7  and  C_8
REMARK    6  A    between atoms: C_12  and  C_13
REMARK                            x       y       z     vdW  Elec       q    Type
REMARK                         _______ _______ _______ _____ _____    ______ ____
ROOT
ATOM      1  C   UNL     1       5.245   5.625  16.864  0.00  0.00    +0.000 A 
ATOM      2  C   UNL     1       6.195   5.872  17.852  0.00  0.00    +0.000 A 
ATOM      3  C   UNL     1       6.002   5.349  19.133  0.00  0.00    +0.000 A 
ATOM      4  C   UNL     1       4.863   4.583  19.415  0.00  0.00    +0.000 A 
ATOM      5  C   UNL     1       3.921   4.331  18.410  0.00  0.00    +0.000 A 
ATOM      6  C   UNL     1       4.128   4.835  17.128  0.00  0.00    +0.000 A 
ENDROOT
BRANCH   5   7
ATOM      7  C   UNL     1       2.706   3.560  18.700  0.00  0.00    +0.000 C 
ATOM      8  N   UNL     1       1.812   3.175  17.844  0.00  0.00    +0.000 NA
ATOM      9  C   UNL     1       0.832   2.460  18.673  0.00  0.00    +0.000 C 
ATOM     10  C   UNL     1       1.448   2.361  20.050  0.00  0.00    +0.000 C 
ATOM     11  O   UNL     1       2.560   3.237  20.007  0.00  0.00    +0.000 OA
ENDBRANCH   5   7
BRANCH   1  12
ATOM     12  O   UNL     1       5.486   6.072  15.557  0.00  0.00    +0.000 OA
BRANCH  12  14
ATOM     13  N   UNL     1       5.659   4.549  13.918  0.00  0.00    +0.000 N 
ATOM     14  C   UNL     1       6.369   5.299  14.812  0.00  0.00    +0.000 C 
ATOM     15  O   UNL     1       7.587   5.295  14.914  0.00  0.00    +0.000 OA
ATOM     16  H   UNL     1       4.654   4.651  13.939  0.00  0.00    +0.000 HD
BRANCH  13  17
ATOM     17  C   UNL     1       6.270   3.539  13.086  0.00  0.00    +0.000 C 
BRANCH  17  19
ATOM     18  C   UNL     1       5.766   1.771  11.343  0.00  0.00    +0.000 C 
ATOM     19  C   UNL     1       5.321   3.081  11.982  0.00  0.00    +0.000 C 
ENDBRANCH  17  19
ENDBRANCH  13  17
ENDBRANCH  12  14
ENDBRANCH   1  12
TORSDOF 5
ENDMDL
