MODEL 1
REMARK VINA RESULT:      -7.1      0.000      0.000
REMARK  Name = 
REMARK  5 active torsions:
REMARK  status: ('A' for Active; 'I' for Inactive)
REMARK    1  A    between atoms: O_1  and  C_2
REMARK    2  A    between atoms: N_5  and  C_6
REMARK    3  A    between atoms: C_6  and  C_7
REMARK    4  A    between atoms: C_15  and  N_16
REMARK    5  A    between atoms: C_19  and  C_20
REMARK                            x       y       z     vdW  Elec       q    Type
REMARK                         _______ _______ _______ _____ _____    ______ ____
ROOT
ATOM      1  C   UNL     1       2.618   3.200  20.565  0.00  0.00    +0.000 C 
ATOM      2  C   UNL     1       3.881   2.369  20.586  0.00  0.00    +0.000 C 
ATOM      3  C   UNL     1       4.700   2.633  19.343  0.00  0.00    +0.000 C 
ATOM      4  N   UNL     1       5.208   4.008  19.347  0.00  0.00    +0.000 NA
ATOM      5  C   UNL     1       4.115   4.998  19.411  0.00  0.00    +0.000 C 
ATOM      6  C   UNL     1       2.883   4.708  20.331  0.00  0.00    +0.000 C 
ENDROOT
BRANCH   6   7
ATOM      7  N   UNL     1       1.704   5.515  19.897  0.00  0.00    +0.000 NA
ATOM      8  C   UNL     1       1.866   6.206  18.615  0.00  0.00    +0.000 C 
ATOM      9  C   UNL     1       2.465   7.616  18.680  0.00  0.00    +0.000 C 
ATOM     10  C   UNL     1       1.975   8.491  19.841  0.00  0.00    +0.000 C 
ATOM     11  C   UNL     1       1.647   7.726  21.127  0.00  0.00    +0.000 C 
ATOM     12  C   UNL     1       1.022   6.360  20.880  0.00  0.00    +0.000 C 
BRANCH  10  13
ATOM     13  C   UNL     1       0.815   9.374  19.407  0.00  0.00    +0.000 A 
ATOM     14  C   UNL     1       0.132  10.191  20.313  0.00  0.00    +0.000 A 
ATOM     15  C   UNL     1      -0.943  10.970  19.893  0.00  0.00    +0.000 A 
ATOM     16  C   UNL     1      -1.336  10.948  18.559  0.00  0.00    +0.000 A 
ATOM     17  C   UNL     1      -0.658  10.148  17.645  0.00  0.00    +0.000 A 
ATOM     18  C   UNL     1       0.415   9.363  18.064  0.00  0.00    +0.000 A 
ENDBRANCH  10  13
ENDBRANCH   6   7
BRANCH   1  19
ATOM     19  O   UNL     1       1.971   2.982  21.825  0.00  0.00    +0.000 OA
ATOM     20  H   UNL     1       1.653   2.062  21.827  0.00  0.00    +0.000 HD
ENDBRANCH   1  19
BRANCH   4  21
ATOM     21  C   UNL     1       6.019   4.283  18.128  0.00  0.00    +0.000 C 
BRANCH  21  22
ATOM     22  C   UNL     1       6.644   5.660  18.141  0.00  0.00    +0.000 A 
ATOM     23  C   UNL     1       7.651   5.907  19.091  0.00  0.00    +0.000 A 
ATOM     24  C   UNL     1       8.416   7.069  19.035  0.00  0.00    +0.000 A 
ATOM     25  C   UNL     1       8.184   8.004  18.032  0.00  0.00    +0.000 A 
ATOM     26  C   UNL     1       7.153   7.802  17.115  0.00  0.00    +0.000 A 
ATOM     27  C   UNL     1       6.372   6.645  17.177  0.00  0.00    +0.000 A 
ATOM     28 BR   UNL     1       4.979   6.487  15.893  0.00  0.00    +0.000 Br
ENDBRANCH  21  22
ENDBRANCH   4  21
TORSDOF 5
ENDMDL
MODEL 2
REMARK VINA RESULT:      -7.0      3.719      6.465
REMARK  Name = 
REMARK  5 active torsions:
REMARK  status: ('A' for Active; 'I' for Inactive)
REMARK    1  A    between atoms: O_1  and  C_2
REMARK    2  A    between atoms: N_5  and  C_6
REMARK    3  A    between atoms: C_6  and  C_7
REMARK    4  A    between atoms: C_15  and  N_16
REMARK    5  A    between atoms: C_19  and  C_20
REMARK                            x       y       z     vdW  Elec       q    Type
REMARK                         _______ _______ _______ _____ _____    ______ ____
ROOT
ATOM      1  C   UNL     1       1.229  10.338  18.682  0.00  0.00    +0.000 C 
ATOM      2  C   UNL     1       1.443   9.212  17.697  0.00  0.00    +0.000 C 
ATOM      3  C   UNL     1       2.386   8.182  18.278  0.00  0.00    +0.000 C 
ATOM      4  N   UNL     1       1.765   7.509  19.421  0.00  0.00    +0.000 NA
ATOM      5  C   UNL     1       1.392   8.461  20.486  0.00  0.00    +0.000 C 
ATOM      6  C   UNL     1       0.790   9.848  20.084  0.00  0.00    +0.000 C 
ENDROOT
BRANCH   6   7
ATOM      7  N   UNL     1       0.952  10.831  21.196  0.00  0.00    +0.000 NA
ATOM      8  C   UNL     1      -0.118  10.814  22.197  0.00  0.00    +0.000 C 
ATOM      9  C   UNL     1      -1.314  11.733  21.922  0.00  0.00    +0.000 C 
ATOM     10  C   UNL     1      -0.969  13.116  21.351  0.00  0.00    +0.000 C 
ATOM     11  C   UNL     1       0.260  13.144  20.438  0.00  0.00    +0.000 C 
ATOM     12  C   UNL     1       1.369  12.199  20.879  0.00  0.00    +0.000 C 
BRANCH  10  13
ATOM     13  C   UNL     1      -0.865  14.152  22.459  0.00  0.00    +0.000 A 
ATOM     14  C   UNL     1      -1.537  14.001  23.675  0.00  0.00    +0.000 A 
ATOM     15  C   UNL     1      -1.443  14.977  24.663  0.00  0.00    +0.000 A 
ATOM     16  C   UNL     1      -0.666  16.110  24.447  0.00  0.00    +0.000 A 
ATOM     17  C   UNL     1       0.017  16.268  23.245  0.00  0.00    +0.000 A 
ATOM     18  C   UNL     1      -0.079  15.294  22.253  0.00  0.00    +0.000 A 
ENDBRANCH  10  13
ENDBRANCH   6   7
BRANCH   1  19
ATOM     19  O   UNL     1       0.237  11.196  18.104  0.00  0.00    +0.000 OA
ATOM     20  H   UNL     1       0.100  10.897  17.188  0.00  0.00    +0.000 HD
ENDBRANCH   1  19
BRANCH   4  21
ATOM     21  C   UNL     1       2.682   6.490  20.004  0.00  0.00    +0.000 C 
BRANCH  21  22
ATOM     22  C   UNL     1       2.245   5.072  19.706  0.00  0.00    +0.000 A 
ATOM     23  C   UNL     1       1.298   4.490  20.566  0.00  0.00    +0.000 A 
ATOM     24  C   UNL     1       0.693   3.277  20.247  0.00  0.00    +0.000 A 
ATOM     25  C   UNL     1       1.028   2.626  19.064  0.00  0.00    +0.000 A 
ATOM     26  C   UNL     1       2.007   3.160  18.227  0.00  0.00    +0.000 A 
ATOM     27  C   UNL     1       2.628   4.369  18.551  0.00  0.00    +0.000 A 
ATOM     28 BR   UNL     1       3.964   4.991  17.350  0.00  0.00    +0.000 Br
ENDBRANCH  21  22
ENDBRANCH   4  21
TORSDOF 5
ENDMDL
MODEL 3
REMARK VINA RESULT:      -6.9      3.963      6.782
REMARK  Name = 
REMARK  5 active torsions:
REMARK  status: ('A' for Active; 'I' for Inactive)
REMARK    1  A    between atoms: O_1  and  C_2
REMARK    2  A    between atoms: N_5  and  C_6
REMARK    3  A    between atoms: C_6  and  C_7
REMARK    4  A    between atoms: C_15  and  N_16
REMARK    5  A    between atoms: C_19  and  C_20
REMARK                            x       y       z     vdW  Elec       q    Type
REMARK                         _______ _______ _______ _____ _____    ______ ____
ROOT
ATOM      1  C   UNL     1       0.748  10.772  18.933  0.00  0.00    +0.000 C 
ATOM      2  C   UNL     1       1.034   9.681  17.927  0.00  0.00    +0.000 C 
ATOM      3  C   UNL     1       2.046   8.707  18.487  0.00  0.00    +0.000 C 
ATOM      4  N   UNL     1       1.476   7.972  19.620  0.00  0.00    +0.000 NA
ATOM      5  C   UNL     1       1.044   8.878  20.702  0.00  0.00    +0.000 C 
ATOM      6  C   UNL     1       0.347  10.228  20.327  0.00  0.00    +0.000 C 
ENDROOT
BRANCH   6   7
ATOM      7  N   UNL     1       0.446  11.200  21.457  0.00  0.00    +0.000 NA
ATOM      8  C   UNL     1      -0.355  10.860  22.635  0.00  0.00    +0.000 C 
ATOM      9  C   UNL     1      -1.790  11.399  22.654  0.00  0.00    +0.000 C 
ATOM     10  C   UNL     1      -1.967  12.831  22.129  0.00  0.00    +0.000 C 
ATOM     11  C   UNL     1      -1.002  13.226  21.007  0.00  0.00    +0.000 C 
ATOM     12  C   UNL     1       0.391  12.634  21.165  0.00  0.00    +0.000 C 
BRANCH  10  13
ATOM     13  C   UNL     1      -1.938  13.837  23.269  0.00  0.00    +0.000 A 
ATOM     14  C   UNL     1      -0.897  14.759  23.411  0.00  0.00    +0.000 A 
ATOM     15  C   UNL     1      -0.883  15.653  24.478  0.00  0.00    +0.000 A 
ATOM     16  C   UNL     1      -1.917  15.639  25.408  0.00  0.00    +0.000 A 
ATOM     17  C   UNL     1      -2.964  14.733  25.273  0.00  0.00    +0.000 A 
ATOM     18  C   UNL     1      -2.978  13.835  24.207  0.00  0.00    +0.000 A 
ENDBRANCH  10  13
ENDBRANCH   6   7
BRANCH   1  19
ATOM     19  O   UNL     1      -0.302  11.571  18.373  0.00  0.00    +0.000 OA
ATOM     20  H   UNL     1      -0.603  12.177  19.072  0.00  0.00    +0.000 HD
ENDBRANCH   1  19
BRANCH   4  21
ATOM     21  C   UNL     1       2.462   7.008  20.182  0.00  0.00    +0.000 C 
BRANCH  21  22
ATOM     22  C   UNL     1       2.193   5.581  19.754  0.00  0.00    +0.000 A 
ATOM     23  C   UNL     1       1.275   4.838  20.517  0.00  0.00    +0.000 A 
ATOM     24  C   UNL     1       0.818   3.599  20.074  0.00  0.00    +0.000 A 
ATOM     25  C   UNL     1       1.274   3.083  18.865  0.00  0.00    +0.000 A 
ATOM     26  C   UNL     1       2.226   3.781  18.124  0.00  0.00    +0.000 A 
ATOM     27  C   UNL     1       2.700   5.017  18.571  0.00  0.00    +0.000 A 
ATOM     28 BR   UNL     1       4.014   5.868  17.493  0.00  0.00    +0.000 Br
ENDBRANCH  21  22
ENDBRANCH   4  21
TORSDOF 5
ENDMDL
MODEL 4
REMARK VINA RESULT:      -6.6      1.196      1.273
REMARK  Name = 
REMARK  5 active torsions:
REMARK  status: ('A' for Active; 'I' for Inactive)
REMARK    1  A    between atoms: O_1  and  C_2
REMARK    2  A    between atoms: N_5  and  C_6
REMARK    3  A    between atoms: C_6  and  C_7
REMARK    4  A    between atoms: C_15  and  N_16
REMARK    5  A    between atoms: C_19  and  C_20
REMARK                            x       y       z     vdW  Elec       q    Type
REMARK                         _______ _______ _______ _____ _____    ______ ____
ROOT
ATOM      1  C   UNL     1       2.194   2.388  18.717  0.00  0.00    +0.000 C 
ATOM      2  C   UNL     1       3.362   1.484  18.397  0.00  0.00    +0.000 C 
ATOM      3  C   UNL     1       4.267   2.142  17.380  0.00  0.00    +0.000 C 
ATOM      4  N   UNL     1       4.912   3.324  17.959  0.00  0.00    +0.000 NA
ATOM      5  C   UNL     1       3.925   4.317  18.425  0.00  0.00    +0.000 C 
ATOM      6  C   UNL     1       2.624   3.816  19.135  0.00  0.00    +0.000 C 
ENDROOT
BRANCH   6   7
ATOM      7  N   UNL     1       1.558   4.860  19.072  0.00  0.00    +0.000 NA
ATOM      8  C   UNL     1       1.714   5.839  17.994  0.00  0.00    +0.000 C 
ATOM      9  C   UNL     1       2.538   7.088  18.331  0.00  0.00    +0.000 C 
ATOM     10  C   UNL     1       2.303   7.679  19.727  0.00  0.00    +0.000 C 
ATOM     11  C   UNL     1       1.972   6.650  20.812  0.00  0.00    +0.000 C 
ATOM     12  C   UNL     1       1.113   5.496  20.315  0.00  0.00    +0.000 C 
BRANCH  10  13
ATOM     13  C   UNL     1       1.269   8.793  19.681  0.00  0.00    +0.000 A 
ATOM     14  C   UNL     1       0.541   9.170  20.813  0.00  0.00    +0.000 A 
ATOM     15  C   UNL     1      -0.418  10.177  20.737  0.00  0.00    +0.000 A 
ATOM     16  C   UNL     1      -0.650  10.823  19.527  0.00  0.00    +0.000 A 
ATOM     17  C   UNL     1       0.074  10.464  18.394  0.00  0.00    +0.000 A 
ATOM     18  C   UNL     1       1.032   9.453  18.468  0.00  0.00    +0.000 A 
ENDBRANCH  10  13
ENDBRANCH   6   7
BRANCH   1  19
ATOM     19  O   UNL     1       1.463   1.743  19.769  0.00  0.00    +0.000 OA
ATOM     20  H   UNL     1       0.614   1.454  19.391  0.00  0.00    +0.000 HD
ENDBRANCH   1  19
BRANCH   4  21
ATOM     21  C   UNL     1       5.809   3.983  16.969  0.00  0.00    +0.000 C 
BRANCH  21  22
ATOM     22  C   UNL     1       6.449   5.243  17.509  0.00  0.00    +0.000 A 
ATOM     23  C   UNL     1       7.345   5.106  18.584  0.00  0.00    +0.000 A 
ATOM     24  C   UNL     1       8.128   6.180  19.001  0.00  0.00    +0.000 A 
ATOM     25  C   UNL     1       8.025   7.407  18.354  0.00  0.00    +0.000 A 
ATOM     26  C   UNL     1       7.101   7.576  17.323  0.00  0.00    +0.000 A 
ATOM     27  C   UNL     1       6.301   6.506  16.912  0.00  0.00    +0.000 A 
ATOM     28 BR   UNL     1       5.060   6.857  15.515  0.00  0.00    +0.000 Br
ENDBRANCH  21  22
ENDBRANCH   4  21
TORSDOF 5
ENDMDL
MODEL 5
REMARK VINA RESULT:      -6.6      4.639      6.660
REMARK  Name = 
REMARK  5 active torsions:
REMARK  status: ('A' for Active; 'I' for Inactive)
REMARK    1  A    between atoms: O_1  and  C_2
REMARK    2  A    between atoms: N_5  and  C_6
REMARK    3  A    between atoms: C_6  and  C_7
REMARK    4  A    between atoms: C_15  and  N_16
REMARK    5  A    between atoms: C_19  and  C_20
REMARK                            x       y       z     vdW  Elec       q    Type
REMARK                         _______ _______ _______ _____ _____    ______ ____
ROOT
ATOM      1  C   UNL     1       0.528  11.157  20.592  0.00  0.00    +0.000 C 
ATOM      2  C   UNL     1       0.744   9.814  21.251  0.00  0.00    +0.000 C 
ATOM      3  C   UNL     1       0.680   8.710  20.220  0.00  0.00    +0.000 C 
ATOM      4  N   UNL     1       1.810   8.809  19.293  0.00  0.00    +0.000 NA
ATOM      5  C   UNL     1       1.835  10.108  18.593  0.00  0.00    +0.000 C 
ATOM      6  C   UNL     1       1.472  11.405  19.389  0.00  0.00    +0.000 C 
ENDROOT
BRANCH   6   7
ATOM      7  N   UNL     1       1.060  12.495  18.455  0.00  0.00    +0.000 NA
ATOM      8  C   UNL     1       2.146  13.376  18.017  0.00  0.00    +0.000 C 
ATOM      9  C   UNL     1       2.415  14.603  18.897  0.00  0.00    +0.000 C 
ATOM     10  C   UNL     1       1.169  15.315  19.441  0.00  0.00    +0.000 C 
ATOM     11  C   UNL     1      -0.019  14.393  19.734  0.00  0.00    +0.000 C 
ATOM     12  C   UNL     1      -0.163  13.250  18.739  0.00  0.00    +0.000 C 
BRANCH  10  13
ATOM     13  C   UNL     1       0.767  16.474  18.542  0.00  0.00    +0.000 A 
ATOM     14  C   UNL     1       1.703  17.160  17.763  0.00  0.00    +0.000 A 
ATOM     15  C   UNL     1       1.312  18.234  16.968  0.00  0.00    +0.000 A 
ATOM     16  C   UNL     1      -0.024  18.623  16.937  0.00  0.00    +0.000 A 
ATOM     17  C   UNL     1      -0.967  17.942  17.699  0.00  0.00    +0.000 A 
ATOM     18  C   UNL     1      -0.576  16.870  18.499  0.00  0.00    +0.000 A 
ENDBRANCH  10  13
ENDBRANCH   6   7
BRANCH   1  19
ATOM     19  O   UNL     1       0.727  12.143  21.613  0.00  0.00    +0.000 OA
ATOM     20  H   UNL     1      -0.122  12.603  21.734  0.00  0.00    +0.000 HD
ENDBRANCH   1  19
BRANCH   4  21
ATOM     21  C   UNL     1       1.761   7.727  18.271  0.00  0.00    +0.000 C 
BRANCH  21  22
ATOM     22  C   UNL     1       3.007   6.868  18.269  0.00  0.00    +0.000 A 
ATOM     23  C   UNL     1       4.030   7.212  17.368  0.00  0.00    +0.000 A 
ATOM     24  C   UNL     1       5.282   6.607  17.445  0.00  0.00    +0.000 A 
ATOM     25  C   UNL     1       5.529   5.647  18.421  0.00  0.00    +0.000 A 
ATOM     26  C   UNL     1       4.510   5.254  19.287  0.00  0.00    +0.000 A 
ATOM     27  C   UNL     1       3.247   5.846  19.203  0.00  0.00    +0.000 A 
ATOM     28 BR   UNL     1       1.926   5.215  20.416  0.00  0.00    +0.000 Br
ENDBRANCH  21  22
ENDBRANCH   4  21
TORSDOF 5
ENDMDL
MODEL 6
REMARK VINA RESULT:      -6.5      4.710      9.243
REMARK  Name = 
REMARK  5 active torsions:
REMARK  status: ('A' for Active; 'I' for Inactive)
REMARK    1  A    between atoms: O_1  and  C_2
REMARK    2  A    between atoms: N_5  and  C_6
REMARK    3  A    between atoms: C_6  and  C_7
REMARK    4  A    between atoms: C_15  and  N_16
REMARK    5  A    between atoms: C_19  and  C_20
REMARK                            x       y       z     vdW  Elec       q    Type
REMARK                         _______ _______ _______ _____ _____    ______ ____
ROOT
ATOM      1  C   UNL     1       1.466  12.026  18.122  0.00  0.00    +0.000 C 
ATOM      2  C   UNL     1       1.532  13.511  18.396  0.00  0.00    +0.000 C 
ATOM      3  C   UNL     1       0.231  13.988  19.002  0.00  0.00    +0.000 C 
ATOM      4  N   UNL     1       0.047  13.413  20.337  0.00  0.00    +0.000 NA
ATOM      5  C   UNL     1       0.040  11.937  20.305  0.00  0.00    +0.000 C 
ATOM      6  C   UNL     1       1.041  11.195  19.359  0.00  0.00    +0.000 C 
ENDROOT
BRANCH   6   7
ATOM      7  N   UNL     1       0.566   9.808  19.077  0.00  0.00    +0.000 NA
ATOM      8  C   UNL     1       0.350   8.976  20.263  0.00  0.00    +0.000 C 
ATOM      9  C   UNL     1       1.561   8.170  20.751  0.00  0.00    +0.000 C 
ATOM     10  C   UNL     1       2.422   7.536  19.650  0.00  0.00    +0.000 C 
ATOM     11  C   UNL     1       2.497   8.343  18.350  0.00  0.00    +0.000 C 
ATOM     12  C   UNL     1       1.196   9.048  17.995  0.00  0.00    +0.000 C 
BRANCH  10  13
ATOM     13  C   UNL     1       2.002   6.098  19.390  0.00  0.00    +0.000 A 
ATOM     14  C   UNL     1       1.445   5.300  20.393  0.00  0.00    +0.000 A 
ATOM     15  C   UNL     1       1.092   3.978  20.134  0.00  0.00    +0.000 A 
ATOM     16  C   UNL     1       1.283   3.446  18.863  0.00  0.00    +0.000 A 
ATOM     17  C   UNL     1       1.826   4.233  17.852  0.00  0.00    +0.000 A 
ATOM     18  C   UNL     1       2.185   5.555  18.111  0.00  0.00    +0.000 A 
ENDBRANCH  10  13
ENDBRANCH   6   7
BRANCH   1  19
ATOM     19  O   UNL     1       2.771  11.642  17.670  0.00  0.00    +0.000 OA
ATOM     20  H   UNL     1       3.074  10.922  18.251  0.00  0.00    +0.000 HD
ENDBRANCH   1  19
BRANCH   4  21
ATOM     21  C   UNL     1      -1.230  13.875  20.947  0.00  0.00    +0.000 C 
BRANCH  21  22
ATOM     22  C   UNL     1      -1.041  14.451  22.333  0.00  0.00    +0.000 A 
ATOM     23  C   UNL     1      -0.181  15.556  22.464  0.00  0.00    +0.000 A 
ATOM     24  C   UNL     1      -0.113  16.270  23.658  0.00  0.00    +0.000 A 
ATOM     25  C   UNL     1      -0.900  15.889  24.740  0.00  0.00    +0.000 A 
ATOM     26  C   UNL     1      -1.716  14.763  24.646  0.00  0.00    +0.000 A 
ATOM     27  C   UNL     1      -1.776  14.033  23.455  0.00  0.00    +0.000 A 
ATOM     28 BR   UNL     1      -2.902  12.502  23.448  0.00  0.00    +0.000 Br
ENDBRANCH  21  22
ENDBRANCH   4  21
TORSDOF 5
ENDMDL
MODEL 7
REMARK VINA RESULT:      -6.4      4.642      9.296
REMARK  Name = 
REMARK  5 active torsions:
REMARK  status: ('A' for Active; 'I' for Inactive)
REMARK    1  A    between atoms: O_1  and  C_2
REMARK    2  A    between atoms: N_5  and  C_6
REMARK    3  A    between atoms: C_6  and  C_7
REMARK    4  A    between atoms: C_15  and  N_16
REMARK    5  A    between atoms: C_19  and  C_20
REMARK                            x       y       z     vdW  Elec       q    Type
REMARK                         _______ _______ _______ _____ _____    ______ ____
ROOT
ATOM      1  C   UNL     1       1.156  11.971  18.691  0.00  0.00    +0.000 C 
ATOM      2  C   UNL     1       1.290  13.400  19.165  0.00  0.00    +0.000 C 
ATOM      3  C   UNL     1       0.231  13.709  20.198  0.00  0.00    +0.000 C 
ATOM      4  N   UNL     1       0.465  12.932  21.419  0.00  0.00    +0.000 NA
ATOM      5  C   UNL     1       0.459  11.480  21.157  0.00  0.00    +0.000 C 
ATOM      6  C   UNL     1       1.132  10.943  19.850  0.00  0.00    +0.000 C 
ENDROOT
BRANCH   6   7
ATOM      7  N   UNL     1       0.605   9.589  19.507  0.00  0.00    +0.000 NA
ATOM      8  C   UNL     1       0.471   8.672  20.641  0.00  0.00    +0.000 C 
ATOM      9  C   UNL     1       1.700   7.813  20.963  0.00  0.00    +0.000 C 
ATOM     10  C   UNL     1       2.452   7.252  19.749  0.00  0.00    +0.000 C 
ATOM     11  C   UNL     1       2.436   8.154  18.511  0.00  0.00    +0.000 C 
ATOM     12  C   UNL     1       1.126   8.904  18.321  0.00  0.00    +0.000 C 
BRANCH  10  13
ATOM     13  C   UNL     1       1.980   5.844  19.418  0.00  0.00    +0.000 A 
ATOM     14  C   UNL     1       1.399   5.017  20.383  0.00  0.00    +0.000 A 
ATOM     15  C   UNL     1       0.998   3.723  20.059  0.00  0.00    +0.000 A 
ATOM     16  C   UNL     1       1.166   3.250  18.762  0.00  0.00    +0.000 A 
ATOM     17  C   UNL     1       1.734   4.067  17.789  0.00  0.00    +0.000 A 
ATOM     18  C   UNL     1       2.140   5.361  18.113  0.00  0.00    +0.000 A 
ENDBRANCH  10  13
ENDBRANCH   6   7
BRANCH   1  19
ATOM     19  O   UNL     1       2.265  11.731  17.815  0.00  0.00    +0.000 OA
ATOM     20  H   UNL     1       2.926  12.423  17.996  0.00  0.00    +0.000 HD
ENDBRANCH   1  19
BRANCH   4  21
ATOM     21  C   UNL     1      -0.571  13.226  22.448  0.00  0.00    +0.000 C 
BRANCH  21  22
ATOM     22  C   UNL     1      -1.894  13.642  21.842  0.00  0.00    +0.000 A 
ATOM     23  C   UNL     1      -2.751  12.622  21.394  0.00  0.00    +0.000 A 
ATOM     24  C   UNL     1      -4.062  12.904  21.018  0.00  0.00    +0.000 A 
ATOM     25  C   UNL     1      -4.535  14.211  21.082  0.00  0.00    +0.000 A 
ATOM     26  C   UNL     1      -3.683  15.243  21.471  0.00  0.00    +0.000 A 
ATOM     27  C   UNL     1      -2.361  14.967  21.833  0.00  0.00    +0.000 A 
ATOM     28 BR   UNL     1      -1.282  16.453  22.323  0.00  0.00    +0.000 Br
ENDBRANCH  21  22
ENDBRANCH   4  21
TORSDOF 5
ENDMDL
MODEL 8
REMARK VINA RESULT:      -6.4      3.841      6.165
REMARK  Name = 
REMARK  5 active torsions:
REMARK  status: ('A' for Active; 'I' for Inactive)
REMARK    1  A    between atoms: O_1  and  C_2
REMARK    2  A    between atoms: N_5  and  C_6
REMARK    3  A    between atoms: C_6  and  C_7
REMARK    4  A    between atoms: C_15  and  N_16
REMARK    5  A    between atoms: C_19  and  C_20
REMARK                            x       y       z     vdW  Elec       q    Type
REMARK                         _______ _______ _______ _____ _____    ______ ____
ROOT
ATOM      1  C   UNL     1       0.974  10.316  18.640  0.00  0.00    +0.000 C 
ATOM      2  C   UNL     1       1.219   9.250  17.596  0.00  0.00    +0.000 C 
ATOM      3  C   UNL     1       2.325   8.323  18.047  0.00  0.00    +0.000 C 
ATOM      4  N   UNL     1       1.899   7.549  19.216  0.00  0.00    +0.000 NA
ATOM      5  C   UNL     1       1.524   8.420  20.346  0.00  0.00    +0.000 C 
ATOM      6  C   UNL     1       0.731   9.737  20.057  0.00  0.00    +0.000 C 
ENDROOT
BRANCH   6   7
ATOM      7  N   UNL     1       0.886  10.701  21.187  0.00  0.00    +0.000 NA
ATOM      8  C   UNL     1      -0.238  10.737  22.127  0.00  0.00    +0.000 C 
ATOM      9  C   UNL     1      -1.362  11.726  21.795  0.00  0.00    +0.000 C 
ATOM     10  C   UNL     1      -0.908  13.091  21.260  0.00  0.00    +0.000 C 
ATOM     11  C   UNL     1       0.370  13.056  20.417  0.00  0.00    +0.000 C 
ATOM     12  C   UNL     1       1.397  12.045  20.909  0.00  0.00    +0.000 C 
BRANCH  10  13
ATOM     13  C   UNL     1      -0.807  14.111  22.384  0.00  0.00    +0.000 A 
ATOM     14  C   UNL     1      -1.495  13.949  23.590  0.00  0.00    +0.000 A 
ATOM     15  C   UNL     1      -1.404  14.911  24.592  0.00  0.00    +0.000 A 
ATOM     16  C   UNL     1      -0.613  16.039  24.401  0.00  0.00    +0.000 A 
ATOM     17  C   UNL     1       0.085  16.207  23.209  0.00  0.00    +0.000 A 
ATOM     18  C   UNL     1      -0.008  15.247  22.203  0.00  0.00    +0.000 A 
ENDBRANCH  10  13
ENDBRANCH   6   7
BRANCH   1  19
ATOM     19  O   UNL     1      -0.161  11.067  18.191  0.00  0.00    +0.000 OA
ATOM     20  H   UNL     1      -0.157  11.909  18.679  0.00  0.00    +0.000 HD
ENDBRANCH   1  19
BRANCH   4  21
ATOM     21  C   UNL     1       2.978   6.628  19.671  0.00  0.00    +0.000 C 
BRANCH  21  22
ATOM     22  C   UNL     1       3.102   5.397  18.800  0.00  0.00    +0.000 A 
ATOM     23  C   UNL     1       4.058   5.425  17.770  0.00  0.00    +0.000 A 
ATOM     24  C   UNL     1       4.378   4.269  17.062  0.00  0.00    +0.000 A 
ATOM     25  C   UNL     1       3.744   3.070  17.370  0.00  0.00    +0.000 A 
ATOM     26  C   UNL     1       2.754   3.036  18.350  0.00  0.00    +0.000 A 
ATOM     27  C   UNL     1       2.417   4.196  19.052  0.00  0.00    +0.000 A 
ATOM     28 BR   UNL     1       1.036   4.039  20.349  0.00  0.00    +0.000 Br
ENDBRANCH  21  22
ENDBRANCH   4  21
TORSDOF 5
ENDMDL
MODEL 9
REMARK VINA RESULT:      -6.4      5.405      8.648
REMARK  Name = 
REMARK  5 active torsions:
REMARK  status: ('A' for Active; 'I' for Inactive)
REMARK    1  A    between atoms: O_1  and  C_2
REMARK    2  A    between atoms: N_5  and  C_6
REMARK    3  A    between atoms: C_6  and  C_7
REMARK    4  A    between atoms: C_15  and  N_16
REMARK    5  A    between atoms: C_19  and  C_20
REMARK                            x       y       z     vdW  Elec       q    Type
REMARK                         _______ _______ _______ _____ _____    ______ ____
ROOT
ATOM      1  C   UNL     1      -3.586  11.562  18.263  0.00  0.00    +0.000 C 
ATOM      2  C   UNL     1      -2.975  10.367  17.566  0.00  0.00    +0.000 C 
ATOM      3  C   UNL     1      -1.468  10.494  17.539  0.00  0.00    +0.000 C 
ATOM      4  N   UNL     1      -0.922  10.402  18.896  0.00  0.00    +0.000 NA
ATOM      5  C   UNL     1      -1.468  11.449  19.781  0.00  0.00    +0.000 C 
ATOM      6  C   UNL     1      -2.981  11.827  19.664  0.00  0.00    +0.000 C 
ENDROOT
BRANCH   6   7
ATOM      7  N   UNL     1      -3.227  13.187  20.231  0.00  0.00    +0.000 NA
ATOM      8  C   UNL     1      -2.268  13.612  21.253  0.00  0.00    +0.000 C 
ATOM      9  C   UNL     1      -2.616  13.243  22.700  0.00  0.00    +0.000 C 
ATOM     10  C   UNL     1      -4.095  13.390  23.084  0.00  0.00    +0.000 C 
ATOM     11  C   UNL     1      -5.083  13.104  21.950  0.00  0.00    +0.000 C 
ATOM     12  C   UNL     1      -4.596  13.571  20.585  0.00  0.00    +0.000 C 
BRANCH  10  13
ATOM     13  C   UNL     1      -4.359  14.743  23.727  0.00  0.00    +0.000 A 
ATOM     14  C   UNL     1      -3.376  15.416  24.458  0.00  0.00    +0.000 A 
ATOM     15  C   UNL     1      -3.653  16.642  25.056  0.00  0.00    +0.000 A 
ATOM     16  C   UNL     1      -4.916  17.211  24.919  0.00  0.00    +0.000 A 
ATOM     17  C   UNL     1      -5.900  16.556  24.185  0.00  0.00    +0.000 A 
ATOM     18  C   UNL     1      -5.625  15.326  23.589  0.00  0.00    +0.000 A 
ENDBRANCH  10  13
ENDBRANCH   6   7
BRANCH   1  19
ATOM     19  O   UNL     1      -4.993  11.300  18.351  0.00  0.00    +0.000 OA
ATOM     20  H   UNL     1      -5.148  10.435  17.935  0.00  0.00    +0.000 HD
ENDBRANCH   1  19
BRANCH   4  21
ATOM     21  C   UNL     1       0.562  10.523  18.885  0.00  0.00    +0.000 C 
BRANCH  21  22
ATOM     22  C   UNL     1       1.259   9.180  18.910  0.00  0.00    +0.000 A 
ATOM     23  C   UNL     1       1.919   8.770  17.739  0.00  0.00    +0.000 A 
ATOM     24  C   UNL     1       2.752   7.654  17.743  0.00  0.00    +0.000 A 
ATOM     25  C   UNL     1       2.935   6.929  18.917  0.00  0.00    +0.000 A 
ATOM     26  C   UNL     1       2.244   7.289  20.073  0.00  0.00    +0.000 A 
ATOM     27  C   UNL     1       1.395   8.399  20.070  0.00  0.00    +0.000 A 
ATOM     28 BR   UNL     1       0.486   8.782  21.695  0.00  0.00    +0.000 Br
ENDBRANCH  21  22
ENDBRANCH   4  21
TORSDOF 5
ENDMDL
