MODEL 1
REMARK VINA RESULT:      -9.2      0.000      0.000
REMARK  Name = 
REMARK  8 active torsions:
REMARK  status: ('A' for Active; 'I' for Inactive)
REMARK    1  A    between atoms: C_1  and  C_2
REMARK    2  A    between atoms: C_2  and  N_3
REMARK    3  A    between atoms: N_3  and  C_4
REMARK    4  A    between atoms: C_4  and  C_5
REMARK    5  A    between atoms: C_6  and  C_8
REMARK    6  A    between atoms: C_11  and  C_12
REMARK    7  A    between atoms: C_12  and  C_20
REMARK    8  A    between atoms: N_16  and  C_17
REMARK                            x       y       z     vdW  Elec       q    Type
REMARK                         _______ _______ _______ _____ _____    ______ ____
ROOT
ATOM      1  C   UNL     1       2.984   5.934  18.694  0.00  0.00    +0.000 C 
ATOM      2  C   UNL     1       4.056   5.730  17.881  0.00  0.00    +0.000 C 
ATOM      3  C   UNL     1       4.775   6.824  17.102  0.00  0.00    +0.000 C 
ATOM      4  C   UNL     1       6.303   6.754  17.294  0.00  0.00    +0.000 C 
ATOM      5  N   UNL     1       6.910   5.439  17.025  0.00  0.00    +0.000 NA
ATOM      6  C   UNL     1       6.935   5.123  15.599  0.00  0.00    +0.000 C 
ATOM      7  C   UNL     1       6.222   4.398  17.808  0.00  0.00    +0.000 C 
ATOM      8  C   UNL     1       4.695   4.369  17.624  0.00  0.00    +0.000 C 
ENDROOT
BRANCH   1  12
ATOM      9  C   UNL     1       1.240   9.849  19.103  0.00  0.00    +0.000 A 
ATOM     10  C   UNL     1       1.276   8.959  20.178  0.00  0.00    +0.000 A 
ATOM     11  C   UNL     1       1.886   7.707  20.049  0.00  0.00    +0.000 A 
ATOM     12  C   UNL     1       2.367   7.283  18.808  0.00  0.00    +0.000 A 
ATOM     13  C   UNL     1       2.267   8.135  17.707  0.00  0.00    +0.000 A 
ATOM     14  C   UNL     1       1.712   9.417  17.856  0.00  0.00    +0.000 A 
BRANCH   9  16
ATOM     15  N   UNL     1      -0.740  11.423  18.912  0.00  0.00    +0.000 N 
ATOM     16  C   UNL     1       0.624  11.211  19.206  0.00  0.00    +0.000 C 
ATOM     17  O   UNL     1       1.367  12.126  19.571  0.00  0.00    +0.000 OA
BRANCH  15  19
ATOM     18  C   UNL     1      -1.980  13.214  20.126  0.00  0.00    +0.000 C 
ATOM     19  C   UNL     1      -1.195  12.818  18.884  0.00  0.00    +0.000 C 
ENDBRANCH  15  19
BRANCH  15  20
ATOM     20  C   UNL     1      -1.673  10.340  18.568  0.00  0.00    +0.000 C 
ATOM     21  C   UNL     1      -1.915  10.007  17.105  0.00  0.00    +0.000 C 
ENDBRANCH  15  20
ENDBRANCH   9  16
ENDBRANCH   1  12
BRANCH   1  22
ATOM     22  C   UNL     1       2.405   4.780  19.420  0.00  0.00    +0.000 A 
ATOM     23  C   UNL     1       1.423   3.992  18.806  0.00  0.00    +0.000 A 
ATOM     24  C   UNL     1       0.826   2.942  19.504  0.00  0.00    +0.000 A 
ATOM     25  C   UNL     1       1.206   2.675  20.819  0.00  0.00    +0.000 A 
ATOM     26  C   UNL     1       2.189   3.450  21.435  0.00  0.00    +0.000 A 
ATOM     27  C   UNL     1       2.790   4.499  20.738  0.00  0.00    +0.000 A 
ENDBRANCH   1  22
TORSDOF 5
ENDMDL
MODEL 2
REMARK VINA RESULT:      -9.1      0.107      1.318
REMARK  Name = 
REMARK  8 active torsions:
REMARK  status: ('A' for Active; 'I' for Inactive)
REMARK    1  A    between atoms: C_1  and  C_2
REMARK    2  A    between atoms: C_2  and  N_3
REMARK    3  A    between atoms: N_3  and  C_4
REMARK    4  A    between atoms: C_4  and  C_5
REMARK    5  A    between atoms: C_6  and  C_8
REMARK    6  A    between atoms: C_11  and  C_12
REMARK    7  A    between atoms: C_12  and  C_20
REMARK    8  A    between atoms: N_16  and  C_17
REMARK                            x       y       z     vdW  Elec       q    Type
REMARK                         _______ _______ _______ _____ _____    ______ ____
ROOT
ATOM      1  C   UNL     1       2.908   5.936  18.688  0.00  0.00    +0.000 C 
ATOM      2  C   UNL     1       3.979   5.736  17.873  0.00  0.00    +0.000 C 
ATOM      3  C   UNL     1       4.716   6.837  17.122  0.00  0.00    +0.000 C 
ATOM      4  C   UNL     1       6.242   6.740  17.315  0.00  0.00    +0.000 C 
ATOM      5  N   UNL     1       6.831   5.423  17.017  0.00  0.00    +0.000 NA
ATOM      6  C   UNL     1       6.855   5.140  15.584  0.00  0.00    +0.000 C 
ATOM      7  C   UNL     1       6.125   4.374  17.774  0.00  0.00    +0.000 C 
ATOM      8  C   UNL     1       4.598   4.371  17.586  0.00  0.00    +0.000 C 
ENDROOT
BRANCH   1  12
ATOM      9  C   UNL     1       1.135   9.845  19.031  0.00  0.00    +0.000 A 
ATOM     10  C   UNL     1       1.684   9.404  17.825  0.00  0.00    +0.000 A 
ATOM     11  C   UNL     1       2.216   8.116  17.711  0.00  0.00    +0.000 A 
ATOM     12  C   UNL     1       2.310   7.291  18.833  0.00  0.00    +0.000 A 
ATOM     13  C   UNL     1       1.834   7.750  20.063  0.00  0.00    +0.000 A 
ATOM     14  C   UNL     1       1.241   9.020  20.159  0.00  0.00    +0.000 A 
BRANCH   9  16
ATOM     15  N   UNL     1      -0.837  11.436  18.916  0.00  0.00    +0.000 N 
ATOM     16  C   UNL     1       0.528  11.205  19.189  0.00  0.00    +0.000 C 
ATOM     17  O   UNL     1       1.280  12.102  19.580  0.00  0.00    +0.000 OA
BRANCH  15  19
ATOM     18  C   UNL     1      -1.980  13.213  20.242  0.00  0.00    +0.000 C 
ATOM     19  C   UNL     1      -1.283  12.834  18.942  0.00  0.00    +0.000 C 
ENDBRANCH  15  19
BRANCH  15  20
ATOM     20  C   UNL     1      -1.780  10.372  18.540  0.00  0.00    +0.000 C 
ATOM     21  C   UNL     1      -1.940  10.006  17.075  0.00  0.00    +0.000 C 
ENDBRANCH  15  20
ENDBRANCH   9  16
ENDBRANCH   1  12
BRANCH   1  22
ATOM     22  C   UNL     1       2.311   4.774  19.386  0.00  0.00    +0.000 A 
ATOM     23  C   UNL     1       2.682   4.488  20.707  0.00  0.00    +0.000 A 
ATOM     24  C   UNL     1       2.175   3.359  21.351  0.00  0.00    +0.000 A 
ATOM     25  C   UNL     1       1.296   2.511  20.680  0.00  0.00    +0.000 A 
ATOM     26  C   UNL     1       0.914   2.793  19.368  0.00  0.00    +0.000 A 
ATOM     27  C   UNL     1       1.418   3.923  18.722  0.00  0.00    +0.000 A 
ENDBRANCH   1  22
TORSDOF 5
ENDMDL
MODEL 3
REMARK VINA RESULT:      -8.5      1.187      1.948
REMARK  Name = 
REMARK  8 active torsions:
REMARK  status: ('A' for Active; 'I' for Inactive)
REMARK    1  A    between atoms: C_1  and  C_2
REMARK    2  A    between atoms: C_2  and  N_3
REMARK    3  A    between atoms: N_3  and  C_4
REMARK    4  A    between atoms: C_4  and  C_5
REMARK    5  A    between atoms: C_6  and  C_8
REMARK    6  A    between atoms: C_11  and  C_12
REMARK    7  A    between atoms: C_12  and  C_20
REMARK    8  A    between atoms: N_16  and  C_17
REMARK                            x       y       z     vdW  Elec       q    Type
REMARK                         _______ _______ _______ _____ _____    ______ ____
ROOT
ATOM      1  C   UNL     1       2.873   6.002  18.797  0.00  0.00    +0.000 C 
ATOM      2  C   UNL     1       3.957   5.824  17.994  0.00  0.00    +0.000 C 
ATOM      3  C   UNL     1       4.636   6.930  17.196  0.00  0.00    +0.000 C 
ATOM      4  C   UNL     1       6.164   6.925  17.397  0.00  0.00    +0.000 C 
ATOM      5  N   UNL     1       6.825   5.630  17.159  0.00  0.00    +0.000 NA
ATOM      6  C   UNL     1       6.871   5.285  15.739  0.00  0.00    +0.000 C 
ATOM      7  C   UNL     1       6.174   4.579  17.959  0.00  0.00    +0.000 C 
ATOM      8  C   UNL     1       4.651   4.484  17.769  0.00  0.00    +0.000 C 
ENDROOT
BRANCH   1  12
ATOM      9  C   UNL     1       0.880   9.814  18.968  0.00  0.00    +0.000 A 
ATOM     10  C   UNL     1       1.324   9.286  17.754  0.00  0.00    +0.000 A 
ATOM     11  C   UNL     1       1.929   8.026  17.702  0.00  0.00    +0.000 A 
ATOM     12  C   UNL     1       2.201   7.327  18.880  0.00  0.00    +0.000 A 
ATOM     13  C   UNL     1       1.831   7.880  20.107  0.00  0.00    +0.000 A 
ATOM     14  C   UNL     1       1.165   9.118  20.149  0.00  0.00    +0.000 A 
BRANCH   9  16
ATOM     15  N   UNL     1       0.923  12.350  18.921  0.00  0.00    +0.000 N 
ATOM     16  C   UNL     1       0.201  11.147  19.065  0.00  0.00    +0.000 C 
ATOM     17  O   UNL     1      -1.017  11.131  19.263  0.00  0.00    +0.000 OA
BRANCH  15  19
ATOM     18  C   UNL     1       0.277  14.017  20.661  0.00  0.00    +0.000 C 
ATOM     19  C   UNL     1       0.191  13.591  19.201  0.00  0.00    +0.000 C 
ENDBRANCH  15  19
BRANCH  15  20
ATOM     20  C   UNL     1       2.355  12.402  18.591  0.00  0.00    +0.000 C 
ATOM     21  C   UNL     1       2.969  13.723  18.160  0.00  0.00    +0.000 C 
ENDBRANCH  15  20
ENDBRANCH   9  16
ENDBRANCH   1  12
BRANCH   1  22
ATOM     22  C   UNL     1       2.337   4.841  19.544  0.00  0.00    +0.000 A 
ATOM     23  C   UNL     1       1.394   3.998  18.940  0.00  0.00    +0.000 A 
ATOM     24  C   UNL     1       0.835   2.940  19.658  0.00  0.00    +0.000 A 
ATOM     25  C   UNL     1       1.214   2.719  20.981  0.00  0.00    +0.000 A 
ATOM     26  C   UNL     1       2.159   3.548  21.587  0.00  0.00    +0.000 A 
ATOM     27  C   UNL     1       2.721   4.605  20.871  0.00  0.00    +0.000 A 
ENDBRANCH   1  22
TORSDOF 5
ENDMDL
MODEL 4
REMARK VINA RESULT:      -8.5      1.232      1.992
REMARK  Name = 
REMARK  8 active torsions:
REMARK  status: ('A' for Active; 'I' for Inactive)
REMARK    1  A    between atoms: C_1  and  C_2
REMARK    2  A    between atoms: C_2  and  N_3
REMARK    3  A    between atoms: N_3  and  C_4
REMARK    4  A    between atoms: C_4  and  C_5
REMARK    5  A    between atoms: C_6  and  C_8
REMARK    6  A    between atoms: C_11  and  C_12
REMARK    7  A    between atoms: C_12  and  C_20
REMARK    8  A    between atoms: N_16  and  C_17
REMARK                            x       y       z     vdW  Elec       q    Type
REMARK                         _______ _______ _______ _____ _____    ______ ____
ROOT
ATOM      1  C   UNL     1       2.784   6.053  18.789  0.00  0.00    +0.000 C 
ATOM      2  C   UNL     1       3.878   5.857  18.003  0.00  0.00    +0.000 C 
ATOM      3  C   UNL     1       4.580   6.948  17.204  0.00  0.00    +0.000 C 
ATOM      4  C   UNL     1       6.105   6.930  17.427  0.00  0.00    +0.000 C 
ATOM      5  N   UNL     1       6.756   5.626  17.211  0.00  0.00    +0.000 NA
ATOM      6  C   UNL     1       6.819   5.267  15.796  0.00  0.00    +0.000 C 
ATOM      7  C   UNL     1       6.084   4.589  18.013  0.00  0.00    +0.000 C 
ATOM      8  C   UNL     1       4.562   4.508  17.801  0.00  0.00    +0.000 C 
ENDROOT
BRANCH   1  12
ATOM      9  C   UNL     1       0.929   9.930  19.034  0.00  0.00    +0.000 A 
ATOM     10  C   UNL     1       1.155   9.164  20.180  0.00  0.00    +0.000 A 
ATOM     11  C   UNL     1       1.800   7.926  20.095  0.00  0.00    +0.000 A 
ATOM     12  C   UNL     1       2.125   7.385  18.850  0.00  0.00    +0.000 A 
ATOM     13  C   UNL     1       1.834   8.108  17.691  0.00  0.00    +0.000 A 
ATOM     14  C   UNL     1       1.244   9.380  17.785  0.00  0.00    +0.000 A 
BRANCH   9  16
ATOM     15  N   UNL     1       1.007  12.461  18.900  0.00  0.00    +0.000 N 
ATOM     16  C   UNL     1       0.268  11.274  19.082  0.00  0.00    +0.000 C 
ATOM     17  O   UNL     1      -0.951  11.282  19.277  0.00  0.00    +0.000 OA
BRANCH  15  19
ATOM     18  C   UNL     1       0.380  14.198  20.577  0.00  0.00    +0.000 C 
ATOM     19  C   UNL     1       0.292  13.722  19.134  0.00  0.00    +0.000 C 
ENDBRANCH  15  19
BRANCH  15  20
ATOM     20  C   UNL     1       2.441  12.483  18.573  0.00  0.00    +0.000 C 
ATOM     21  C   UNL     1       3.089  13.794  18.164  0.00  0.00    +0.000 C 
ENDBRANCH  15  20
ENDBRANCH   9  16
ENDBRANCH   1  12
BRANCH   1  22
ATOM     22  C   UNL     1       2.227   4.905  19.540  0.00  0.00    +0.000 A 
ATOM     23  C   UNL     1       2.618   4.683  20.867  0.00  0.00    +0.000 A 
ATOM     24  C   UNL     1       2.149   3.569  21.562  0.00  0.00    +0.000 A 
ATOM     25  C   UNL     1       1.287   2.670  20.936  0.00  0.00    +0.000 A 
ATOM     26  C   UNL     1       0.885   2.887  19.618  0.00  0.00    +0.000 A 
ATOM     27  C   UNL     1       1.351   4.003  18.921  0.00  0.00    +0.000 A 
ENDBRANCH   1  22
TORSDOF 5
ENDMDL
MODEL 5
REMARK VINA RESULT:      -8.4      1.597      3.989
REMARK  Name = 
REMARK  8 active torsions:
REMARK  status: ('A' for Active; 'I' for Inactive)
REMARK    1  A    between atoms: C_1  and  C_2
REMARK    2  A    between atoms: C_2  and  N_3
REMARK    3  A    between atoms: N_3  and  C_4
REMARK    4  A    between atoms: C_4  and  C_5
REMARK    5  A    between atoms: C_6  and  C_8
REMARK    6  A    between atoms: C_11  and  C_12
REMARK    7  A    between atoms: C_12  and  C_20
REMARK    8  A    between atoms: N_16  and  C_17
REMARK                            x       y       z     vdW  Elec       q    Type
REMARK                         _______ _______ _______ _____ _____    ______ ____
ROOT
ATOM      1  C   UNL     1       3.401   5.960  18.705  0.00  0.00    +0.000 C 
ATOM      2  C   UNL     1       3.036   4.911  19.492  0.00  0.00    +0.000 C 
ATOM      3  C   UNL     1       1.844   4.910  20.440  0.00  0.00    +0.000 C 
ATOM      4  C   UNL     1       0.971   3.653  20.261  0.00  0.00    +0.000 C 
ATOM      5  N   UNL     1       1.693   2.371  20.332  0.00  0.00    +0.000 NA
ATOM      6  C   UNL     1       2.119   2.051  21.693  0.00  0.00    +0.000 C 
ATOM      7  C   UNL     1       2.824   2.378  19.389  0.00  0.00    +0.000 C 
ATOM      8  C   UNL     1       3.775   3.577  19.544  0.00  0.00    +0.000 C 
ENDROOT
BRANCH   1  12
ATOM      9  C   UNL     1       1.276   9.700  18.872  0.00  0.00    +0.000 A 
ATOM     10  C   UNL     1       1.989   9.326  17.732  0.00  0.00    +0.000 A 
ATOM     11  C   UNL     1       2.638   8.088  17.670  0.00  0.00    +0.000 A 
ATOM     12  C   UNL     1       2.678   7.258  18.791  0.00  0.00    +0.000 A 
ATOM     13  C   UNL     1       2.033   7.656  19.963  0.00  0.00    +0.000 A 
ATOM     14  C   UNL     1       1.329   8.872  20.001  0.00  0.00    +0.000 A 
BRANCH   9  16
ATOM     15  N   UNL     1      -0.793  11.127  18.535  0.00  0.00    +0.000 N 
ATOM     16  C   UNL     1       0.543  11.003  18.971  0.00  0.00    +0.000 C 
ATOM     17  O   UNL     1       1.164  11.950  19.461  0.00  0.00    +0.000 OA
BRANCH  15  19
ATOM     18  C   UNL     1      -2.198  12.791  19.753  0.00  0.00    +0.000 C 
ATOM     19  C   UNL     1      -1.356  12.483  18.522  0.00  0.00    +0.000 C 
ENDBRANCH  15  19
BRANCH  15  20
ATOM     20  C   UNL     1      -1.592   9.998  18.036  0.00  0.00    +0.000 C 
ATOM     21  C   UNL     1      -2.256  10.105  16.674  0.00  0.00    +0.000 C 
ENDBRANCH  15  20
ENDBRANCH   9  16
ENDBRANCH   1  12
BRANCH   1  22
ATOM     22  C   UNL     1       4.564   5.807  17.801  0.00  0.00    +0.000 A 
ATOM     23  C   UNL     1       4.414   5.142  16.578  0.00  0.00    +0.000 A 
ATOM     24  C   UNL     1       5.517   4.936  15.749  0.00  0.00    +0.000 A 
ATOM     25  C   UNL     1       6.775   5.394  16.137  0.00  0.00    +0.000 A 
ATOM     26  C   UNL     1       6.932   6.066  17.350  0.00  0.00    +0.000 A 
ATOM     27  C   UNL     1       5.830   6.275  18.180  0.00  0.00    +0.000 A 
ENDBRANCH   1  22
TORSDOF 5
ENDMDL
MODEL 6
REMARK VINA RESULT:      -8.3      1.146      1.494
REMARK  Name = 
REMARK  8 active torsions:
REMARK  status: ('A' for Active; 'I' for Inactive)
REMARK    1  A    between atoms: C_1  and  C_2
REMARK    2  A    between atoms: C_2  and  N_3
REMARK    3  A    between atoms: N_3  and  C_4
REMARK    4  A    between atoms: C_4  and  C_5
REMARK    5  A    between atoms: C_6  and  C_8
REMARK    6  A    between atoms: C_11  and  C_12
REMARK    7  A    between atoms: C_12  and  C_20
REMARK    8  A    between atoms: N_16  and  C_17
REMARK                            x       y       z     vdW  Elec       q    Type
REMARK                         _______ _______ _______ _____ _____    ______ ____
ROOT
ATOM      1  C   UNL     1       3.104   5.685  18.299  0.00  0.00    +0.000 C 
ATOM      2  C   UNL     1       4.174   5.575  17.465  0.00  0.00    +0.000 C 
ATOM      3  C   UNL     1       4.903   6.753  16.830  0.00  0.00    +0.000 C 
ATOM      4  C   UNL     1       6.430   6.644  17.009  0.00  0.00    +0.000 C 
ATOM      5  N   UNL     1       7.024   5.368  16.574  0.00  0.00    +0.000 NA
ATOM      6  C   UNL     1       7.045   5.236  15.119  0.00  0.00    +0.000 C 
ATOM      7  C   UNL     1       6.326   4.242  17.219  0.00  0.00    +0.000 C 
ATOM      8  C   UNL     1       4.799   4.251  17.036  0.00  0.00    +0.000 C 
ENDROOT
BRANCH   1  12
ATOM      9  C   UNL     1       1.409   9.538  19.201  0.00  0.00    +0.000 A 
ATOM     10  C   UNL     1       1.593   8.579  20.199  0.00  0.00    +0.000 A 
ATOM     11  C   UNL     1       2.187   7.347  19.905  0.00  0.00    +0.000 A 
ATOM     12  C   UNL     1       2.500   7.014  18.586  0.00  0.00    +0.000 A 
ATOM     13  C   UNL     1       2.250   7.935  17.568  0.00  0.00    +0.000 A 
ATOM     14  C   UNL     1       1.712   9.197  17.876  0.00  0.00    +0.000 A 
BRANCH   9  16
ATOM     15  N   UNL     1      -0.136  11.062  20.513  0.00  0.00    +0.000 N 
ATOM     16  C   UNL     1       0.804  10.881  19.477  0.00  0.00    +0.000 C 
ATOM     17  O   UNL     1       1.181  11.813  18.762  0.00  0.00    +0.000 OA
BRANCH  15  19
ATOM     18  C   UNL     1      -2.256  12.336  20.188  0.00  0.00    +0.000 C 
ATOM     19  C   UNL     1      -0.787  12.376  20.585  0.00  0.00    +0.000 C 
ENDBRANCH  15  19
BRANCH  15  20
ATOM     20  C   UNL     1      -0.535   9.995  21.443  0.00  0.00    +0.000 C 
ATOM     21  C   UNL     1      -0.626  10.301  22.928  0.00  0.00    +0.000 C 
ENDBRANCH  15  20
ENDBRANCH   9  16
ENDBRANCH   1  12
BRANCH   1  22
ATOM     22  C   UNL     1       2.515   4.453  18.874  0.00  0.00    +0.000 A 
ATOM     23  C   UNL     1       1.458   3.813  18.214  0.00  0.00    +0.000 A 
ATOM     24  C   UNL     1       0.853   2.689  18.779  0.00  0.00    +0.000 A 
ATOM     25  C   UNL     1       1.301   2.201  20.005  0.00  0.00    +0.000 A 
ATOM     26  C   UNL     1       2.359   2.827  20.665  0.00  0.00    +0.000 A 
ATOM     27  C   UNL     1       2.967   3.949  20.101  0.00  0.00    +0.000 A 
ENDBRANCH   1  22
TORSDOF 5
ENDMDL
MODEL 7
REMARK VINA RESULT:      -8.1      1.008      1.904
REMARK  Name = 
REMARK  8 active torsions:
REMARK  status: ('A' for Active; 'I' for Inactive)
REMARK    1  A    between atoms: C_1  and  C_2
REMARK    2  A    between atoms: C_2  and  N_3
REMARK    3  A    between atoms: N_3  and  C_4
REMARK    4  A    between atoms: C_4  and  C_5
REMARK    5  A    between atoms: C_6  and  C_8
REMARK    6  A    between atoms: C_11  and  C_12
REMARK    7  A    between atoms: C_12  and  C_20
REMARK    8  A    between atoms: N_16  and  C_17
REMARK                            x       y       z     vdW  Elec       q    Type
REMARK                         _______ _______ _______ _____ _____    ______ ____
ROOT
ATOM      1  C   UNL     1       2.856   5.985  18.717  0.00  0.00    +0.000 C 
ATOM      2  C   UNL     1       3.902   5.792  17.868  0.00  0.00    +0.000 C 
ATOM      3  C   UNL     1       4.623   6.901  17.112  0.00  0.00    +0.000 C 
ATOM      4  C   UNL     1       6.153   6.792  17.258  0.00  0.00    +0.000 C 
ATOM      5  N   UNL     1       6.725   5.477  16.923  0.00  0.00    +0.000 NA
ATOM      6  C   UNL     1       6.705   5.216  15.485  0.00  0.00    +0.000 C 
ATOM      7  C   UNL     1       6.036   4.420  17.683  0.00  0.00    +0.000 C 
ATOM      8  C   UNL     1       4.505   4.428  17.541  0.00  0.00    +0.000 C 
ENDROOT
BRANCH   1  12
ATOM      9  C   UNL     1       1.112   9.894  19.176  0.00  0.00    +0.000 A 
ATOM     10  C   UNL     1       1.545   9.439  17.929  0.00  0.00    +0.000 A 
ATOM     11  C   UNL     1       2.068   8.149  17.782  0.00  0.00    +0.000 A 
ATOM     12  C   UNL     1       2.271   7.340  18.901  0.00  0.00    +0.000 A 
ATOM     13  C   UNL     1       1.913   7.814  20.164  0.00  0.00    +0.000 A 
ATOM     14  C   UNL     1       1.328   9.085  20.300  0.00  0.00    +0.000 A 
BRANCH   9  16
ATOM     15  N   UNL     1      -0.401  11.511  20.413  0.00  0.00    +0.000 N 
ATOM     16  C   UNL     1       0.519  11.256  19.374  0.00  0.00    +0.000 C 
ATOM     17  O   UNL     1       0.886  12.136  18.591  0.00  0.00    +0.000 OA
BRANCH  15  19
ATOM     18  C   UNL     1      -2.528  12.770  20.076  0.00  0.00    +0.000 C 
ATOM     19  C   UNL     1      -1.043  12.831  20.410  0.00  0.00    +0.000 C 
ENDBRANCH  15  19
BRANCH  15  20
ATOM     20  C   UNL     1      -0.786  10.511  21.420  0.00  0.00    +0.000 C 
ATOM     21  C   UNL     1      -0.837  10.913  22.883  0.00  0.00    +0.000 C 
ENDBRANCH  15  20
ENDBRANCH   9  16
ENDBRANCH   1  12
BRANCH   1  22
ATOM     22  C   UNL     1       2.274   4.815  19.414  0.00  0.00    +0.000 A 
ATOM     23  C   UNL     1       2.653   4.530  20.733  0.00  0.00    +0.000 A 
ATOM     24  C   UNL     1       2.160   3.394  21.376  0.00  0.00    +0.000 A 
ATOM     25  C   UNL     1       1.287   2.539  20.707  0.00  0.00    +0.000 A 
ATOM     26  C   UNL     1       0.897   2.820  19.397  0.00  0.00    +0.000 A 
ATOM     27  C   UNL     1       1.387   3.956  18.751  0.00  0.00    +0.000 A 
ENDBRANCH   1  22
TORSDOF 5
ENDMDL
MODEL 8
REMARK VINA RESULT:      -7.9      2.399      8.312
REMARK  Name = 
REMARK  8 active torsions:
REMARK  status: ('A' for Active; 'I' for Inactive)
REMARK    1  A    between atoms: C_1  and  C_2
REMARK    2  A    between atoms: C_2  and  N_3
REMARK    3  A    between atoms: N_3  and  C_4
REMARK    4  A    between atoms: C_4  and  C_5
REMARK    5  A    between atoms: C_6  and  C_8
REMARK    6  A    between atoms: C_11  and  C_12
REMARK    7  A    between atoms: C_12  and  C_20
REMARK    8  A    between atoms: N_16  and  C_17
REMARK                            x       y       z     vdW  Elec       q    Type
REMARK                         _______ _______ _______ _____ _____    ______ ____
ROOT
ATOM      1  C   UNL     1       0.320  10.816  18.923  0.00  0.00    +0.000 C 
ATOM      2  C   UNL     1      -0.842  10.900  18.221  0.00  0.00    +0.000 C 
ATOM      3  C   UNL     1      -1.471   9.752  17.441  0.00  0.00    +0.000 C 
ATOM      4  C   UNL     1      -2.968   9.589  17.769  0.00  0.00    +0.000 C 
ATOM      5  N   UNL     1      -3.777  10.813  17.637  0.00  0.00    +0.000 NA
ATOM      6  C   UNL     1      -3.982  11.191  16.240  0.00  0.00    +0.000 C 
ATOM      7  C   UNL     1      -3.171  11.904  18.419  0.00  0.00    +0.000 C 
ATOM      8  C   UNL     1      -1.688  12.165  18.106  0.00  0.00    +0.000 C 
ENDROOT
BRANCH   1  12
ATOM      9  C   UNL     1       2.597   7.162  18.901  0.00  0.00    +0.000 A 
ATOM     10  C   UNL     1       1.962   7.610  20.061  0.00  0.00    +0.000 A 
ATOM     11  C   UNL     1       1.186   8.774  20.047  0.00  0.00    +0.000 A 
ATOM     12  C   UNL     1       1.130   9.568  18.900  0.00  0.00    +0.000 A 
ATOM     13  C   UNL     1       1.824   9.170  17.756  0.00  0.00    +0.000 A 
ATOM     14  C   UNL     1       2.550   7.967  17.755  0.00  0.00    +0.000 A 
BRANCH   9  16
ATOM     15  N   UNL     1       2.865   4.664  19.248  0.00  0.00    +0.000 N 
ATOM     16  C   UNL     1       3.414   5.906  18.864  0.00  0.00    +0.000 C 
ATOM     17  O   UNL     1       4.578   6.017  18.471  0.00  0.00    +0.000 OA
BRANCH  15  19
ATOM     18  C   UNL     1       3.708   2.595  18.138  0.00  0.00    +0.000 C 
ATOM     19  C   UNL     1       3.799   3.534  19.334  0.00  0.00    +0.000 C 
ENDBRANCH  15  19
BRANCH  15  20
ATOM     20  C   UNL     1       1.457   4.482  19.630  0.00  0.00    +0.000 C 
ATOM     21  C   UNL     1       1.102   3.443  20.679  0.00  0.00    +0.000 C 
ENDBRANCH  15  20
ENDBRANCH   9  16
ENDBRANCH   1  12
BRANCH   1  22
ATOM     22  C   UNL     1       0.796  12.005  19.667  0.00  0.00    +0.000 A 
ATOM     23  C   UNL     1       1.910  12.717  19.203  0.00  0.00    +0.000 A 
ATOM     24  C   UNL     1       2.406  13.799  19.931  0.00  0.00    +0.000 A 
ATOM     25  C   UNL     1       1.792  14.176  21.124  0.00  0.00    +0.000 A 
ATOM     26  C   UNL     1       0.676  13.478  21.589  0.00  0.00    +0.000 A 
ATOM     27  C   UNL     1       0.177  12.396  20.862  0.00  0.00    +0.000 A 
ENDBRANCH   1  22
TORSDOF 5
ENDMDL
MODEL 9
REMARK VINA RESULT:      -7.8      1.930      4.216
REMARK  Name = 
REMARK  8 active torsions:
REMARK  status: ('A' for Active; 'I' for Inactive)
REMARK    1  A    between atoms: C_1  and  C_2
REMARK    2  A    between atoms: C_2  and  N_3
REMARK    3  A    between atoms: N_3  and  C_4
REMARK    4  A    between atoms: C_4  and  C_5
REMARK    5  A    between atoms: C_6  and  C_8
REMARK    6  A    between atoms: C_11  and  C_12
REMARK    7  A    between atoms: C_12  and  C_20
REMARK    8  A    between atoms: N_16  and  C_17
REMARK                            x       y       z     vdW  Elec       q    Type
REMARK                         _______ _______ _______ _____ _____    ______ ____
ROOT
ATOM      1  C   UNL     1       3.233   6.150  18.743  0.00  0.00    +0.000 C 
ATOM      2  C   UNL     1       2.902   5.098  19.541  0.00  0.00    +0.000 C 
ATOM      3  C   UNL     1       1.685   5.053  20.456  0.00  0.00    +0.000 C 
ATOM      4  C   UNL     1       0.883   3.748  20.279  0.00  0.00    +0.000 C 
ATOM      5  N   UNL     1       1.669   2.508  20.395  0.00  0.00    +0.000 NA
ATOM      6  C   UNL     1       2.071   2.237  21.774  0.00  0.00    +0.000 C 
ATOM      7  C   UNL     1       2.825   2.556  19.484  0.00  0.00    +0.000 C 
ATOM      8  C   UNL     1       3.707   3.806  19.641  0.00  0.00    +0.000 C 
ENDROOT
BRANCH   1  12
ATOM      9  C   UNL     1       0.987   9.818  18.931  0.00  0.00    +0.000 A 
ATOM     10  C   UNL     1       1.191   9.037  20.071  0.00  0.00    +0.000 A 
ATOM     11  C   UNL     1       1.961   7.870  20.009  0.00  0.00    +0.000 A 
ATOM     12  C   UNL     1       2.442   7.409  18.782  0.00  0.00    +0.000 A 
ATOM     13  C   UNL     1       2.180   8.142  17.623  0.00  0.00    +0.000 A 
ATOM     14  C   UNL     1       1.460   9.346  17.699  0.00  0.00    +0.000 A 
BRANCH   9  16
ATOM     15  N   UNL     1       0.825  12.348  18.880  0.00  0.00    +0.000 N 
ATOM     16  C   UNL     1       0.194  11.089  18.958  0.00  0.00    +0.000 C 
ATOM     17  O   UNL     1      -1.032  10.972  19.040  0.00  0.00    +0.000 OA
BRANCH  15  19
ATOM     18  C   UNL     1      -0.080  13.980  20.536  0.00  0.00    +0.000 C 
ATOM     19  C   UNL     1      -0.031  13.524  19.085  0.00  0.00    +0.000 C 
ENDBRANCH  15  19
BRANCH  15  20
ATOM     20  C   UNL     1       2.272  12.520  18.687  0.00  0.00    +0.000 C 
ATOM     21  C   UNL     1       2.799  13.848  18.170  0.00  0.00    +0.000 C 
ENDBRANCH  15  20
ENDBRANCH   9  16
ENDBRANCH   1  12
BRANCH   1  22
ATOM     22  C   UNL     1       4.429   6.042  17.875  0.00  0.00    +0.000 A 
ATOM     23  C   UNL     1       4.366   5.292  16.692  0.00  0.00    +0.000 A 
ATOM     24  C   UNL     1       5.503   5.130  15.901  0.00  0.00    +0.000 A 
ATOM     25  C   UNL     1       6.708   5.716  16.286  0.00  0.00    +0.000 A 
ATOM     26  C   UNL     1       6.778   6.471  17.457  0.00  0.00    +0.000 A 
ATOM     27  C   UNL     1       5.641   6.636  18.250  0.00  0.00    +0.000 A 
ENDBRANCH   1  22
TORSDOF 5
ENDMDL
