MODEL 1
REMARK VINA RESULT:      -6.5      0.000      0.000
REMARK  Name = 
REMARK  13 active torsions:
REMARK  status: ('A' for Active; 'I' for Inactive)
REMARK    1  A    between atoms: C_1  and  C_2
REMARK    2  A    between atoms: C_2  and  O_3
REMARK    3  A    between atoms: O_3  and  C_4
REMARK    4  A    between atoms: C_4  and  C_6
REMARK    5  A    between atoms: C_11  and  C_13
REMARK    6  A    between atoms: N_15  and  C_16
REMARK    7  A    between atoms: C_16  and  C_17
REMARK    8  A    between atoms: C_17  and  C_18
REMARK    9  A    between atoms: C_17  and  C_19
REMARK   10  A    between atoms: C_24  and  O_25
REMARK   11  A    between atoms: O_25  and  C_26
REMARK   12  A    between atoms: C_27  and  O_28
REMARK   13  A    between atoms: O_28  and  C_29
REMARK                            x       y       z     vdW  Elec       q    Type
REMARK                         _______ _______ _______ _____ _____    ______ ____
ROOT
ATOM      1  C   UNL     1       8.132  14.074  21.446  0.00  0.00    +0.000 A 
ATOM      2  C   UNL     1       7.743  13.207  22.400  0.00  0.00    +0.000 A 
ATOM      3  N   UNL     1       6.439  13.131  22.886  0.00  0.00    +0.000 N 
ATOM      4  C   UNL     1       5.406  13.898  22.333  0.00  0.00    +0.000 A 
ATOM      5  O   UNL     1       4.236  13.840  22.696  0.00  0.00    +0.000 OA
ATOM      6  C   UNL     1       5.787  14.872  21.280  0.00  0.00    +0.000 A 
ATOM      7  C   UNL     1       4.798  15.646  20.655  0.00  0.00    +0.000 A 
ATOM      8  C   UNL     1       5.139  16.616  19.702  0.00  0.00    +0.000 A 
ATOM      9  C   UNL     1       6.496  16.844  19.434  0.00  0.00    +0.000 A 
ATOM     10  C   UNL     1       7.468  16.128  20.144  0.00  0.00    +0.000 A 
ATOM     11  C   UNL     1       7.133  15.051  20.969  0.00  0.00    +0.000 A 
ENDROOT
BRANCH   1  17
ATOM     12  C   UNL     1       9.396  11.427  18.355  0.00  0.00    +0.000 C 
ATOM     13  C   UNL     1      10.817  11.486  17.800  0.00  0.00    +0.000 C 
ATOM     14  C   UNL     1      11.779  12.191  18.755  0.00  0.00    +0.000 C 
ATOM     15  C   UNL     1      11.244  13.543  19.232  0.00  0.00    +0.000 C 
ATOM     16  N   UNL     1       9.870  13.441  19.733  0.00  0.00    +0.000 N 
ATOM     17  C   UNL     1       9.564  13.966  20.990  0.00  0.00    +0.000 C 
ATOM     18  O   UNL     1      10.448  14.346  21.762  0.00  0.00    +0.000 OA
ATOM     19  C   UNL     1       8.940  12.806  18.792  0.00  0.00    +0.000 C 
BRANCH  12  20
ATOM     20  C   UNL     1       9.226  10.423  19.476  0.00  0.00    +0.000 C 
ATOM     21  O   UNL     1       9.409  10.663  20.660  0.00  0.00    +0.000 OA
BRANCH  20  22
ATOM     22  O   UNL     1       8.984   9.183  18.959  0.00  0.00    +0.000 OA
BRANCH  22  24
ATOM     23  C   UNL     1       7.699   7.671  17.650  0.00  0.00    +0.000 C 
ATOM     24  C   UNL     1       7.987   9.131  17.934  0.00  0.00    +0.000 C 
ENDBRANCH  22  24
ENDBRANCH  20  22
ENDBRANCH  12  20
ENDBRANCH   1  17
BRANCH   8  25
ATOM     25  O   UNL     1       4.208  17.348  19.018  0.00  0.00    +0.000 OA
ATOM     26  C   UNL     1       3.112  16.649  18.441  0.00  0.00    +0.000 C 
ENDBRANCH   8  25
BRANCH   9  27
ATOM     27  O   UNL     1       7.071  17.667  18.502  0.00  0.00    +0.000 OA
ATOM     28  C   UNL     1       8.467  17.913  18.560  0.00  0.00    +0.000 C 
ENDBRANCH   9  27
BRANCH   3  29
ATOM     29  C   UNL     1       6.148  12.303  24.060  0.00  0.00    +0.000 C 
BRANCH  29  30
ATOM     30  C   UNL     1       6.404  12.932  25.445  0.00  0.00    +0.000 C 
ATOM     31  C   UNL     1       6.624  14.444  25.403  0.00  0.00    +0.000 C 
ATOM     32  C   UNL     1       5.320  12.578  26.459  0.00  0.00    +0.000 C 
ENDBRANCH  29  30
ENDBRANCH   3  29
TORSDOF 8
ENDMDL
MODEL 2
REMARK VINA RESULT:      -6.3      7.378     10.771
REMARK  Name = 
REMARK  13 active torsions:
REMARK  status: ('A' for Active; 'I' for Inactive)
REMARK    1  A    between atoms: C_1  and  C_2
REMARK    2  A    between atoms: C_2  and  O_3
REMARK    3  A    between atoms: O_3  and  C_4
REMARK    4  A    between atoms: C_4  and  C_6
REMARK    5  A    between atoms: C_11  and  C_13
REMARK    6  A    between atoms: N_15  and  C_16
REMARK    7  A    between atoms: C_16  and  C_17
REMARK    8  A    between atoms: C_17  and  C_18
REMARK    9  A    between atoms: C_17  and  C_19
REMARK   10  A    between atoms: C_24  and  O_25
REMARK   11  A    between atoms: O_25  and  C_26
REMARK   12  A    between atoms: C_27  and  O_28
REMARK   13  A    between atoms: O_28  and  C_29
REMARK                            x       y       z     vdW  Elec       q    Type
REMARK                         _______ _______ _______ _____ _____    ______ ____
ROOT
ATOM      1  C   UNL     1      -1.936  11.992  19.962  0.00  0.00    +0.000 A 
ATOM      2  C   UNL     1      -0.750  11.474  20.334  0.00  0.00    +0.000 A 
ATOM      3  N   UNL     1      -0.048  10.538  19.577  0.00  0.00    +0.000 N 
ATOM      4  C   UNL     1      -0.490  10.143  18.308  0.00  0.00    +0.000 A 
ATOM      5  O   UNL     1       0.110   9.354  17.585  0.00  0.00    +0.000 OA
ATOM      6  C   UNL     1      -1.796  10.685  17.857  0.00  0.00    +0.000 A 
ATOM      7  C   UNL     1      -2.282  10.361  16.581  0.00  0.00    +0.000 A 
ATOM      8  C   UNL     1      -3.540  10.809  16.155  0.00  0.00    +0.000 A 
ATOM      9  C   UNL     1      -4.333  11.534  17.056  0.00  0.00    +0.000 A 
ATOM     10  C   UNL     1      -3.867  11.759  18.358  0.00  0.00    +0.000 A 
ATOM     11  C   UNL     1      -2.554  11.459  18.732  0.00  0.00    +0.000 A 
ENDROOT
BRANCH   1  17
ATOM     12  C   UNL     1      -0.031  15.732  20.701  0.00  0.00    +0.000 C 
ATOM     13  C   UNL     1      -0.743  16.840  21.474  0.00  0.00    +0.000 C 
ATOM     14  C   UNL     1      -1.905  16.302  22.309  0.00  0.00    +0.000 C 
ATOM     15  C   UNL     1      -2.846  15.411  21.497  0.00  0.00    +0.000 C 
ATOM     16  N   UNL     1      -2.115  14.379  20.754  0.00  0.00    +0.000 N 
ATOM     17  C   UNL     1      -2.517  13.046  20.869  0.00  0.00    +0.000 C 
ATOM     18  O   UNL     1      -3.344  12.693  21.713  0.00  0.00    +0.000 OA
ATOM     19  C   UNL     1      -1.032  14.905  19.916  0.00  0.00    +0.000 C 
BRANCH  12  20
ATOM     20  C   UNL     1       0.834  14.845  21.573  0.00  0.00    +0.000 C 
ATOM     21  O   UNL     1       0.509  14.417  22.670  0.00  0.00    +0.000 OA
BRANCH  20  22
ATOM     22  O   UNL     1       2.077  14.719  21.022  0.00  0.00    +0.000 OA
BRANCH  22  24
ATOM     23  C   UNL     1       2.497  13.394  19.094  0.00  0.00    +0.000 C 
ATOM     24  C   UNL     1       2.431  13.396  20.607  0.00  0.00    +0.000 C 
ENDBRANCH  22  24
ENDBRANCH  20  22
ENDBRANCH  12  20
ENDBRANCH   1  17
BRANCH   8  25
ATOM     25  O   UNL     1      -4.028  10.576  14.900  0.00  0.00    +0.000 OA
ATOM     26  C   UNL     1      -3.141  10.016  13.939  0.00  0.00    +0.000 C 
ENDBRANCH   8  25
BRANCH   9  27
ATOM     27  O   UNL     1      -5.545  12.140  16.854  0.00  0.00    +0.000 OA
ATOM     28  C   UNL     1      -6.293  12.586  17.974  0.00  0.00    +0.000 C 
ENDBRANCH   9  27
BRANCH   3  29
ATOM     29  C   UNL     1       1.131   9.879  20.147  0.00  0.00    +0.000 C 
BRANCH  29  30
ATOM     30  C   UNL     1       0.880   8.733  21.148  0.00  0.00    +0.000 C 
ATOM     31  C   UNL     1       1.623   7.443  20.804  0.00  0.00    +0.000 C 
ATOM     32  C   UNL     1       1.160   9.142  22.591  0.00  0.00    +0.000 C 
ENDBRANCH  29  30
ENDBRANCH   3  29
TORSDOF 8
ENDMDL
MODEL 3
REMARK VINA RESULT:      -6.2      8.661     12.365
REMARK  Name = 
REMARK  13 active torsions:
REMARK  status: ('A' for Active; 'I' for Inactive)
REMARK    1  A    between atoms: C_1  and  C_2
REMARK    2  A    between atoms: C_2  and  O_3
REMARK    3  A    between atoms: O_3  and  C_4
REMARK    4  A    between atoms: C_4  and  C_6
REMARK    5  A    between atoms: C_11  and  C_13
REMARK    6  A    between atoms: N_15  and  C_16
REMARK    7  A    between atoms: C_16  and  C_17
REMARK    8  A    between atoms: C_17  and  C_18
REMARK    9  A    between atoms: C_17  and  C_19
REMARK   10  A    between atoms: C_24  and  O_25
REMARK   11  A    between atoms: O_25  and  C_26
REMARK   12  A    between atoms: C_27  and  O_28
REMARK   13  A    between atoms: O_28  and  C_29
REMARK                            x       y       z     vdW  Elec       q    Type
REMARK                         _______ _______ _______ _____ _____    ______ ____
ROOT
ATOM      1  C   UNL     1      -2.462  12.797  19.861  0.00  0.00    +0.000 A 
ATOM      2  C   UNL     1      -3.686  12.381  19.490  0.00  0.00    +0.000 A 
ATOM      3  N   UNL     1      -3.906  11.312  18.622  0.00  0.00    +0.000 N 
ATOM      4  C   UNL     1      -2.849  10.525  18.149  0.00  0.00    +0.000 A 
ATOM      5  O   UNL     1      -2.991   9.551  17.417  0.00  0.00    +0.000 OA
ATOM      6  C   UNL     1      -1.479  10.948  18.528  0.00  0.00    +0.000 A 
ATOM      7  C   UNL     1      -0.375  10.184  18.122  0.00  0.00    +0.000 A 
ATOM      8  C   UNL     1       0.933  10.596  18.414  0.00  0.00    +0.000 A 
ATOM      9  C   UNL     1       1.119  11.823  19.065  0.00  0.00    +0.000 A 
ATOM     10  C   UNL     1       0.006  12.616  19.373  0.00  0.00    +0.000 A 
ATOM     11  C   UNL     1      -1.300  12.137  19.232  0.00  0.00    +0.000 A 
ENDROOT
BRANCH   1  17
ATOM     12  C   UNL     1      -3.650  12.337  23.928  0.00  0.00    +0.000 C 
ATOM     13  C   UNL     1      -3.410  13.446  24.949  0.00  0.00    +0.000 C 
ATOM     14  C   UNL     1      -3.184  14.803  24.282  0.00  0.00    +0.000 C 
ATOM     15  C   UNL     1      -2.130  14.743  23.175  0.00  0.00    +0.000 C 
ATOM     16  N   UNL     1      -2.389  13.648  22.233  0.00  0.00    +0.000 N 
ATOM     17  C   UNL     1      -2.414  13.921  20.864  0.00  0.00    +0.000 C 
ATOM     18  O   UNL     1      -2.408  15.078  20.438  0.00  0.00    +0.000 OA
ATOM     19  C   UNL     1      -2.557  12.339  22.875  0.00  0.00    +0.000 C 
BRANCH  12  20
ATOM     20  C   UNL     1      -5.019  12.395  23.282  0.00  0.00    +0.000 C 
ATOM     21  O   UNL     1      -5.221  12.608  22.096  0.00  0.00    +0.000 OA
BRANCH  20  22
ATOM     22  O   UNL     1      -5.989  12.322  24.240  0.00  0.00    +0.000 OA
BRANCH  22  24
ATOM     23  C   UNL     1      -7.778  13.888  24.274  0.00  0.00    +0.000 C 
ATOM     24  C   UNL     1      -7.326  12.531  23.773  0.00  0.00    +0.000 C 
ENDBRANCH  22  24
ENDBRANCH  20  22
ENDBRANCH  12  20
ENDBRANCH   1  17
BRANCH   8  25
ATOM     25  O   UNL     1       2.037   9.853  18.097  0.00  0.00    +0.000 OA
ATOM     26  C   UNL     1       2.018   8.469  18.425  0.00  0.00    +0.000 C 
ENDBRANCH   8  25
BRANCH   9  27
ATOM     27  O   UNL     1       2.275  12.397  19.525  0.00  0.00    +0.000 OA
ATOM     28  C   UNL     1       2.526  13.767  19.254  0.00  0.00    +0.000 C 
ENDBRANCH   9  27
BRANCH   3  29
ATOM     29  C   UNL     1      -5.257  11.054  18.115  0.00  0.00    +0.000 C 
BRANCH  29  30
ATOM     30  C   UNL     1      -6.418  11.812  18.790  0.00  0.00    +0.000 C 
ATOM     31  C   UNL     1      -7.314  12.565  17.808  0.00  0.00    +0.000 C 
ATOM     32  C   UNL     1      -7.256  10.915  19.697  0.00  0.00    +0.000 C 
ENDBRANCH  29  30
ENDBRANCH   3  29
TORSDOF 8
ENDMDL
MODEL 4
REMARK VINA RESULT:      -6.1      7.550     11.145
REMARK  Name = 
REMARK  13 active torsions:
REMARK  status: ('A' for Active; 'I' for Inactive)
REMARK    1  A    between atoms: C_1  and  C_2
REMARK    2  A    between atoms: C_2  and  O_3
REMARK    3  A    between atoms: O_3  and  C_4
REMARK    4  A    between atoms: C_4  and  C_6
REMARK    5  A    between atoms: C_11  and  C_13
REMARK    6  A    between atoms: N_15  and  C_16
REMARK    7  A    between atoms: C_16  and  C_17
REMARK    8  A    between atoms: C_17  and  C_18
REMARK    9  A    between atoms: C_17  and  C_19
REMARK   10  A    between atoms: C_24  and  O_25
REMARK   11  A    between atoms: O_25  and  C_26
REMARK   12  A    between atoms: C_27  and  O_28
REMARK   13  A    between atoms: O_28  and  C_29
REMARK                            x       y       z     vdW  Elec       q    Type
REMARK                         _______ _______ _______ _____ _____    ______ ____
ROOT
ATOM      1  C   UNL     1      -2.240  12.033  20.648  0.00  0.00    +0.000 A 
ATOM      2  C   UNL     1      -1.051  11.612  21.117  0.00  0.00    +0.000 A 
ATOM      3  N   UNL     1      -0.141  10.877  20.358  0.00  0.00    +0.000 N 
ATOM      4  C   UNL     1      -0.367  10.610  19.002  0.00  0.00    +0.000 A 
ATOM      5  O   UNL     1       0.418  10.003  18.280  0.00  0.00    +0.000 OA
ATOM      6  C   UNL     1      -1.668  11.051  18.442  0.00  0.00    +0.000 A 
ATOM      7  C   UNL     1      -1.946  10.850  17.081  0.00  0.00    +0.000 A 
ATOM      8  C   UNL     1      -3.191  11.202  16.541  0.00  0.00    +0.000 A 
ATOM      9  C   UNL     1      -4.179  11.699  17.403  0.00  0.00    +0.000 A 
ATOM     10  C   UNL     1      -3.911  11.797  18.774  0.00  0.00    +0.000 A 
ATOM     11  C   UNL     1      -2.626  11.604  19.289  0.00  0.00    +0.000 A 
ENDROOT
BRANCH   1  17
ATOM     12  C   UNL     1      -1.216  16.041  21.675  0.00  0.00    +0.000 C 
ATOM     13  C   UNL     1      -2.176  16.918  22.476  0.00  0.00    +0.000 C 
ATOM     14  C   UNL     1      -3.219  16.092  23.228  0.00  0.00    +0.000 C 
ATOM     15  C   UNL     1      -3.919  15.073  22.327  0.00  0.00    +0.000 C 
ATOM     16  N   UNL     1      -2.958  14.271  21.562  0.00  0.00    +0.000 N 
ATOM     17  C   UNL     1      -3.064  12.879  21.585  0.00  0.00    +0.000 C 
ATOM     18  O   UNL     1      -3.821  12.303  22.370  0.00  0.00    +0.000 OA
ATOM     19  C   UNL     1      -1.989  15.069  20.803  0.00  0.00    +0.000 C 
BRANCH  12  20
ATOM     20  C   UNL     1      -0.207  15.307  22.535  0.00  0.00    +0.000 C 
ATOM     21  O   UNL     1       0.040  15.574  23.701  0.00  0.00    +0.000 OA
BRANCH  20  22
ATOM     22  O   UNL     1       0.485  14.408  21.776  0.00  0.00    +0.000 OA
BRANCH  22  24
ATOM     23  C   UNL     1       2.428  13.706  20.599  0.00  0.00    +0.000 C 
ATOM     24  C   UNL     1       1.878  14.693  21.608  0.00  0.00    +0.000 C 
ENDBRANCH  22  24
ENDBRANCH  20  22
ENDBRANCH  12  20
ENDBRANCH   1  17
BRANCH   8  25
ATOM     25  O   UNL     1      -3.485  11.088  15.211  0.00  0.00    +0.000 OA
ATOM     26  C   UNL     1      -2.969   9.960  14.514  0.00  0.00    +0.000 C 
ENDBRANCH   8  25
BRANCH   9  27
ATOM     27  O   UNL     1      -5.427  12.182  17.108  0.00  0.00    +0.000 OA
ATOM     28  C   UNL     1      -6.166  12.855  18.114  0.00  0.00    +0.000 C 
ENDBRANCH   9  27
BRANCH   3  29
ATOM     29  C   UNL     1       1.036  10.289  21.003  0.00  0.00    +0.000 C 
BRANCH  29  30
ATOM     30  C   UNL     1       0.894   8.854  21.550  0.00  0.00    +0.000 C 
ATOM     31  C   UNL     1      -0.553   8.429  21.795  0.00  0.00    +0.000 C 
ATOM     32  C   UNL     1       1.615   7.822  20.686  0.00  0.00    +0.000 C 
ENDBRANCH  29  30
ENDBRANCH   3  29
TORSDOF 8
ENDMDL
MODEL 5
REMARK VINA RESULT:      -5.9      8.133     11.670
REMARK  Name = 
REMARK  13 active torsions:
REMARK  status: ('A' for Active; 'I' for Inactive)
REMARK    1  A    between atoms: C_1  and  C_2
REMARK    2  A    between atoms: C_2  and  O_3
REMARK    3  A    between atoms: O_3  and  C_4
REMARK    4  A    between atoms: C_4  and  C_6
REMARK    5  A    between atoms: C_11  and  C_13
REMARK    6  A    between atoms: N_15  and  C_16
REMARK    7  A    between atoms: C_16  and  C_17
REMARK    8  A    between atoms: C_17  and  C_18
REMARK    9  A    between atoms: C_17  and  C_19
REMARK   10  A    between atoms: C_24  and  O_25
REMARK   11  A    between atoms: O_25  and  C_26
REMARK   12  A    between atoms: C_27  and  O_28
REMARK   13  A    between atoms: O_28  and  C_29
REMARK                            x       y       z     vdW  Elec       q    Type
REMARK                         _______ _______ _______ _____ _____    ______ ____
ROOT
ATOM      1  C   UNL     1      -1.087  12.924  19.571  0.00  0.00    +0.000 A 
ATOM      2  C   UNL     1      -0.004  12.263  19.124  0.00  0.00    +0.000 A 
ATOM      3  N   UNL     1      -0.073  11.083  18.385  0.00  0.00    +0.000 N 
ATOM      4  C   UNL     1      -1.300  10.553  17.966  0.00  0.00    +0.000 A 
ATOM      5  O   UNL     1      -1.415   9.541  17.282  0.00  0.00    +0.000 OA
ATOM      6  C   UNL     1      -2.524  11.246  18.440  0.00  0.00    +0.000 A 
ATOM      7  C   UNL     1      -3.786  10.792  18.028  0.00  0.00    +0.000 A 
ATOM      8  C   UNL     1      -4.959  11.390  18.510  0.00  0.00    +0.000 A 
ATOM      9  C   UNL     1      -4.846  12.411  19.464  0.00  0.00    +0.000 A 
ATOM     10  C   UNL     1      -3.579  12.779  19.933  0.00  0.00    +0.000 A 
ATOM     11  C   UNL     1      -2.407  12.303  19.339  0.00  0.00    +0.000 A 
ENDROOT
BRANCH   1  17
ATOM     12  C   UNL     1      -1.863  13.477  23.725  0.00  0.00    +0.000 C 
ATOM     13  C   UNL     1      -1.410  14.743  24.449  0.00  0.00    +0.000 C 
ATOM     14  C   UNL     1      -1.133  15.892  23.480  0.00  0.00    +0.000 C 
ATOM     15  C   UNL     1      -0.216  15.477  22.328  0.00  0.00    +0.000 C 
ATOM     16  N   UNL     1      -0.678  14.245  21.679  0.00  0.00    +0.000 N 
ATOM     17  C   UNL     1      -0.827  14.222  20.291  0.00  0.00    +0.000 C 
ATOM     18  O   UNL     1      -0.759  15.254  19.619  0.00  0.00    +0.000 OA
ATOM     19  C   UNL     1      -0.896  13.130  22.608  0.00  0.00    +0.000 C 
BRANCH  12  20
ATOM     20  C   UNL     1      -3.283  13.553  23.203  0.00  0.00    +0.000 C 
ATOM     21  O   UNL     1      -3.807  14.563  22.756  0.00  0.00    +0.000 OA
BRANCH  20  22
ATOM     22  O   UNL     1      -3.931  12.376  23.442  0.00  0.00    +0.000 OA
BRANCH  22  24
ATOM     23  C   UNL     1      -6.173  12.583  24.206  0.00  0.00    +0.000 C 
ATOM     24  C   UNL     1      -4.736  12.350  24.625  0.00  0.00    +0.000 C 
ENDBRANCH  22  24
ENDBRANCH  20  22
ENDBRANCH  12  20
ENDBRANCH   1  17
BRANCH   8  25
ATOM     25  O   UNL     1      -6.208  11.028  18.088  0.00  0.00    +0.000 OA
ATOM     26  C   UNL     1      -6.924  10.085  18.877  0.00  0.00    +0.000 C 
ENDBRANCH   8  25
BRANCH   9  27
ATOM     27  O   UNL     1      -5.824  13.195  20.018  0.00  0.00    +0.000 OA
ATOM     28  C   UNL     1      -6.248  14.364  19.335  0.00  0.00    +0.000 C 
ENDBRANCH   9  27
BRANCH   3  29
ATOM     29  C   UNL     1       1.150  10.324  18.111  0.00  0.00    +0.000 C 
BRANCH  29  30
ATOM     30  C   UNL     1       1.259   8.918  18.734  0.00  0.00    +0.000 C 
ATOM     31  C   UNL     1       2.475   8.125  18.256  0.00  0.00    +0.000 C 
ATOM     32  C   UNL     1       1.205   8.946  20.259  0.00  0.00    +0.000 C 
ENDBRANCH  29  30
ENDBRANCH   3  29
TORSDOF 8
ENDMDL
MODEL 6
REMARK VINA RESULT:      -5.9      6.619     10.194
REMARK  Name = 
REMARK  13 active torsions:
REMARK  status: ('A' for Active; 'I' for Inactive)
REMARK    1  A    between atoms: C_1  and  C_2
REMARK    2  A    between atoms: C_2  and  O_3
REMARK    3  A    between atoms: O_3  and  C_4
REMARK    4  A    between atoms: C_4  and  C_6
REMARK    5  A    between atoms: C_11  and  C_13
REMARK    6  A    between atoms: N_15  and  C_16
REMARK    7  A    between atoms: C_16  and  C_17
REMARK    8  A    between atoms: C_17  and  C_18
REMARK    9  A    between atoms: C_17  and  C_19
REMARK   10  A    between atoms: C_24  and  O_25
REMARK   11  A    between atoms: O_25  and  C_26
REMARK   12  A    between atoms: C_27  and  O_28
REMARK   13  A    between atoms: O_28  and  C_29
REMARK                            x       y       z     vdW  Elec       q    Type
REMARK                         _______ _______ _______ _____ _____    ______ ____
ROOT
ATOM      1  C   UNL     1       3.152   6.836  17.773  0.00  0.00    +0.000 A 
ATOM      2  C   UNL     1       2.954   8.086  18.232  0.00  0.00    +0.000 A 
ATOM      3  N   UNL     1       2.187   8.382  19.357  0.00  0.00    +0.000 N 
ATOM      4  C   UNL     1       1.642   7.369  20.157  0.00  0.00    +0.000 A 
ATOM      5  O   UNL     1       0.993   7.574  21.178  0.00  0.00    +0.000 OA
ATOM      6  C   UNL     1       1.830   5.974  19.689  0.00  0.00    +0.000 A 
ATOM      7  C   UNL     1       1.344   4.908  20.461  0.00  0.00    +0.000 A 
ATOM      8  C   UNL     1       1.453   3.585  20.012  0.00  0.00    +0.000 A 
ATOM      9  C   UNL     1       2.001   3.352  18.742  0.00  0.00    +0.000 A 
ATOM     10  C   UNL     1       2.387   4.440  17.948  0.00  0.00    +0.000 A 
ATOM     11  C   UNL     1       2.432   5.742  18.455  0.00  0.00    +0.000 A 
ENDROOT
BRANCH   1  17
ATOM     12  C   UNL     1       6.747   4.550  17.868  0.00  0.00    +0.000 C 
ATOM     13  C   UNL     1       7.546   4.285  16.595  0.00  0.00    +0.000 C 
ATOM     14  C   UNL     1       7.204   5.279  15.485  0.00  0.00    +0.000 C 
ATOM     15  C   UNL     1       5.697   5.404  15.255  0.00  0.00    +0.000 C 
ATOM     16  N   UNL     1       4.971   5.634  16.508  0.00  0.00    +0.000 N 
ATOM     17  C   UNL     1       4.070   6.698  16.587  0.00  0.00    +0.000 C 
ATOM     18  O   UNL     1       4.006   7.554  15.701  0.00  0.00    +0.000 OA
ATOM     19  C   UNL     1       5.265   4.648  17.555  0.00  0.00    +0.000 C 
BRANCH  12  20
ATOM     20  C   UNL     1       7.217   5.769  18.636  0.00  0.00    +0.000 C 
ATOM     21  O   UNL     1       6.932   6.012  19.799  0.00  0.00    +0.000 OA
BRANCH  20  22
ATOM     22  O   UNL     1       7.876   6.621  17.798  0.00  0.00    +0.000 OA
BRANCH  22  24
ATOM     23  C   UNL     1       8.390   8.921  18.116  0.00  0.00    +0.000 C 
ATOM     24  C   UNL     1       7.318   7.935  17.698  0.00  0.00    +0.000 C 
ENDBRANCH  22  24
ENDBRANCH  20  22
ENDBRANCH  12  20
ENDBRANCH   1  17
BRANCH   8  25
ATOM     25  O   UNL     1       1.056   2.509  20.756  0.00  0.00    +0.000 OA
ATOM     26  C   UNL     1       1.668   2.322  22.026  0.00  0.00    +0.000 C 
ENDBRANCH   8  25
BRANCH   9  27
ATOM     27  O   UNL     1       2.284   2.164  18.122  0.00  0.00    +0.000 OA
ATOM     28  C   UNL     1       3.512   1.510  18.401  0.00  0.00    +0.000 C 
ENDBRANCH   9  27
BRANCH   3  29
ATOM     29  C   UNL     1       1.859   9.776  19.668  0.00  0.00    +0.000 C 
BRANCH  29  30
ATOM     30  C   UNL     1       0.800  10.464  18.783  0.00  0.00    +0.000 C 
ATOM     31  C   UNL     1      -0.639  10.152  19.192  0.00  0.00    +0.000 C 
ATOM     32  C   UNL     1       1.011  11.972  18.679  0.00  0.00    +0.000 C 
ENDBRANCH  29  30
ENDBRANCH   3  29
TORSDOF 8
ENDMDL
MODEL 7
REMARK VINA RESULT:      -5.9      6.749      9.941
REMARK  Name = 
REMARK  13 active torsions:
REMARK  status: ('A' for Active; 'I' for Inactive)
REMARK    1  A    between atoms: C_1  and  C_2
REMARK    2  A    between atoms: C_2  and  O_3
REMARK    3  A    between atoms: O_3  and  C_4
REMARK    4  A    between atoms: C_4  and  C_6
REMARK    5  A    between atoms: C_11  and  C_13
REMARK    6  A    between atoms: N_15  and  C_16
REMARK    7  A    between atoms: C_16  and  C_17
REMARK    8  A    between atoms: C_17  and  C_18
REMARK    9  A    between atoms: C_17  and  C_19
REMARK   10  A    between atoms: C_24  and  O_25
REMARK   11  A    between atoms: O_25  and  C_26
REMARK   12  A    between atoms: C_27  and  O_28
REMARK   13  A    between atoms: O_28  and  C_29
REMARK                            x       y       z     vdW  Elec       q    Type
REMARK                         _______ _______ _______ _____ _____    ______ ____
ROOT
ATOM      1  C   UNL     1      -0.533  12.257  19.962  0.00  0.00    +0.000 A 
ATOM      2  C   UNL     1       0.375  11.460  19.368  0.00  0.00    +0.000 A 
ATOM      3  N   UNL     1       0.049  10.499  18.413  0.00  0.00    +0.000 N 
ATOM      4  C   UNL     1      -1.257  10.366  17.926  0.00  0.00    +0.000 A 
ATOM      5  O   UNL     1      -1.589   9.564  17.058  0.00  0.00    +0.000 OA
ATOM      6  C   UNL     1      -2.295  11.220  18.554  0.00  0.00    +0.000 A 
ATOM      7  C   UNL     1      -3.618  11.166  18.089  0.00  0.00    +0.000 A 
ATOM      8  C   UNL     1      -4.628  11.917  18.705  0.00  0.00    +0.000 A 
ATOM      9  C   UNL     1      -4.303  12.675  19.839  0.00  0.00    +0.000 A 
ATOM     10  C   UNL     1      -2.997  12.634  20.344  0.00  0.00    +0.000 A 
ATOM     11  C   UNL     1      -1.955  12.021  19.641  0.00  0.00    +0.000 A 
ENDROOT
BRANCH   1  17
ATOM     12  C   UNL     1       1.455  15.801  18.678  0.00  0.00    +0.000 C 
ATOM     13  C   UNL     1       1.819  16.903  19.669  0.00  0.00    +0.000 C 
ATOM     14  C   UNL     1       1.841  16.396  21.111  0.00  0.00    +0.000 C 
ATOM     15  C   UNL     1       0.571  15.625  21.480  0.00  0.00    +0.000 C 
ATOM     16  N   UNL     1       0.251  14.595  20.487  0.00  0.00    +0.000 N 
ATOM     17  C   UNL     1       0.008  13.289  20.917  0.00  0.00    +0.000 C 
ATOM     18  O   UNL     1       0.235  12.940  22.078  0.00  0.00    +0.000 OA
ATOM     19  C   UNL     1       0.183  15.097  19.110  0.00  0.00    +0.000 C 
BRANCH  12  20
ATOM     20  C   UNL     1       2.571  14.802  18.448  0.00  0.00    +0.000 C 
ATOM     21  O   UNL     1       2.715  13.762  19.073  0.00  0.00    +0.000 OA
BRANCH  20  22
ATOM     22  O   UNL     1       3.467  15.304  17.548  0.00  0.00    +0.000 OA
BRANCH  22  24
ATOM     23  C   UNL     1       5.341  16.209  18.699  0.00  0.00    +0.000 C 
ATOM     24  C   UNL     1       4.843  15.055  17.852  0.00  0.00    +0.000 C 
ENDBRANCH  22  24
ENDBRANCH  20  22
ENDBRANCH  12  20
ENDBRANCH   1  17
BRANCH   8  25
ATOM     25  O   UNL     1      -5.916  11.949  18.249  0.00  0.00    +0.000 OA
ATOM     26  C   UNL     1      -6.787  10.900  18.653  0.00  0.00    +0.000 C 
ENDBRANCH   8  25
BRANCH   9  27
ATOM     27  O   UNL     1      -5.083  13.541  20.559  0.00  0.00    +0.000 OA
ATOM     28  C   UNL     1      -5.695  13.094  21.757  0.00  0.00    +0.000 C 
ENDBRANCH   9  27
BRANCH   3  29
ATOM     29  C   UNL     1       1.066   9.542  17.967  0.00  0.00    +0.000 C 
BRANCH  29  30
ATOM     30  C   UNL     1       1.852   8.791  19.062  0.00  0.00    +0.000 C 
ATOM     31  C   UNL     1       1.045   8.540  20.335  0.00  0.00    +0.000 C 
ATOM     32  C   UNL     1       2.466   7.489  18.554  0.00  0.00    +0.000 C 
ENDBRANCH  29  30
ENDBRANCH   3  29
TORSDOF 8
ENDMDL
MODEL 8
REMARK VINA RESULT:      -5.9      7.881     11.743
REMARK  Name = 
REMARK  13 active torsions:
REMARK  status: ('A' for Active; 'I' for Inactive)
REMARK    1  A    between atoms: C_1  and  C_2
REMARK    2  A    between atoms: C_2  and  O_3
REMARK    3  A    between atoms: O_3  and  C_4
REMARK    4  A    between atoms: C_4  and  C_6
REMARK    5  A    between atoms: C_11  and  C_13
REMARK    6  A    between atoms: N_15  and  C_16
REMARK    7  A    between atoms: C_16  and  C_17
REMARK    8  A    between atoms: C_17  and  C_18
REMARK    9  A    between atoms: C_17  and  C_19
REMARK   10  A    between atoms: C_24  and  O_25
REMARK   11  A    between atoms: O_25  and  C_26
REMARK   12  A    between atoms: C_27  and  O_28
REMARK   13  A    between atoms: O_28  and  C_29
REMARK                            x       y       z     vdW  Elec       q    Type
REMARK                         _______ _______ _______ _____ _____    ______ ____
ROOT
ATOM      1  C   UNL     1      -3.327  12.637  21.415  0.00  0.00    +0.000 A 
ATOM      2  C   UNL     1      -4.540  12.610  20.831  0.00  0.00    +0.000 A 
ATOM      3  N   UNL     1      -4.741  12.287  19.490  0.00  0.00    +0.000 N 
ATOM      4  C   UNL     1      -3.685  11.866  18.673  0.00  0.00    +0.000 A 
ATOM      5  O   UNL     1      -3.814  11.533  17.499  0.00  0.00    +0.000 OA
ATOM      6  C   UNL     1      -2.328  11.885  19.272  0.00  0.00    +0.000 A 
ATOM      7  C   UNL     1      -1.228  11.440  18.522  0.00  0.00    +0.000 A 
ATOM      8  C   UNL     1       0.072  11.505  19.043  0.00  0.00    +0.000 A 
ATOM      9  C   UNL     1       0.259  12.086  20.305  0.00  0.00    +0.000 A 
ATOM     10  C   UNL     1      -0.842  12.614  20.991  0.00  0.00    +0.000 A 
ATOM     11  C   UNL     1      -2.152  12.404  20.552  0.00  0.00    +0.000 A 
ENDROOT
BRANCH   1  17
ATOM     12  C   UNL     1      -1.980  16.349  23.019  0.00  0.00    +0.000 C 
ATOM     13  C   UNL     1      -2.150  16.675  24.501  0.00  0.00    +0.000 C 
ATOM     14  C   UNL     1      -2.371  15.419  25.344  0.00  0.00    +0.000 C 
ATOM     15  C   UNL     1      -3.472  14.520  24.778  0.00  0.00    +0.000 C 
ATOM     16  N   UNL     1      -3.279  14.255  23.348  0.00  0.00    +0.000 N 
ATOM     17  C   UNL     1      -3.305  12.936  22.892  0.00  0.00    +0.000 C 
ATOM     18  O   UNL     1      -3.301  11.983  23.676  0.00  0.00    +0.000 OA
ATOM     19  C   UNL     1      -3.116  15.466  22.536  0.00  0.00    +0.000 C 
BRANCH  12  20
ATOM     20  C   UNL     1      -0.638  15.730  22.685  0.00  0.00    +0.000 C 
ATOM     21  O   UNL     1       0.125  15.238  23.503  0.00  0.00    +0.000 OA
BRANCH  20  22
ATOM     22  O   UNL     1      -0.345  15.935  21.368  0.00  0.00    +0.000 OA
BRANCH  22  24
ATOM     23  C   UNL     1       1.101  16.776  19.678  0.00  0.00    +0.000 C 
ATOM     24  C   UNL     1       0.634  16.946  21.109  0.00  0.00    +0.000 C 
ENDBRANCH  22  24
ENDBRANCH  20  22
ENDBRANCH  12  20
ENDBRANCH   1  17
BRANCH   8  25
ATOM     25  O   UNL     1       1.165  11.023  18.379  0.00  0.00    +0.000 OA
ATOM     26  C   UNL     1       1.244   9.619  18.166  0.00  0.00    +0.000 C 
ENDBRANCH   8  25
BRANCH   9  27
ATOM     27  O   UNL     1       1.403  12.191  21.052  0.00  0.00    +0.000 OA
ATOM     28  C   UNL     1       2.237  13.327  20.889  0.00  0.00    +0.000 C 
ENDBRANCH   9  27
BRANCH   3  29
ATOM     29  C   UNL     1      -6.064  12.476  18.888  0.00  0.00    +0.000 C 
BRANCH  29  30
ATOM     30  C   UNL     1      -7.150  11.438  19.238  0.00  0.00    +0.000 C 
ATOM     31  C   UNL     1      -6.713   9.991  19.013  0.00  0.00    +0.000 C 
ATOM     32  C   UNL     1      -7.698  11.616  20.652  0.00  0.00    +0.000 C 
ENDBRANCH  29  30
ENDBRANCH   3  29
TORSDOF 8
ENDMDL
MODEL 9
REMARK VINA RESULT:      -5.8      7.890     11.844
REMARK  Name = 
REMARK  13 active torsions:
REMARK  status: ('A' for Active; 'I' for Inactive)
REMARK    1  A    between atoms: C_1  and  C_2
REMARK    2  A    between atoms: C_2  and  O_3
REMARK    3  A    between atoms: O_3  and  C_4
REMARK    4  A    between atoms: C_4  and  C_6
REMARK    5  A    between atoms: C_11  and  C_13
REMARK    6  A    between atoms: N_15  and  C_16
REMARK    7  A    between atoms: C_16  and  C_17
REMARK    8  A    between atoms: C_17  and  C_18
REMARK    9  A    between atoms: C_17  and  C_19
REMARK   10  A    between atoms: C_24  and  O_25
REMARK   11  A    between atoms: O_25  and  C_26
REMARK   12  A    between atoms: C_27  and  O_28
REMARK   13  A    between atoms: O_28  and  C_29
REMARK                            x       y       z     vdW  Elec       q    Type
REMARK                         _______ _______ _______ _____ _____    ______ ____
ROOT
ATOM      1  C   UNL     1      -3.272  12.461  21.007  0.00  0.00    +0.000 A 
ATOM      2  C   UNL     1      -4.346  12.713  20.236  0.00  0.00    +0.000 A 
ATOM      3  N   UNL     1      -4.437  12.338  18.896  0.00  0.00    +0.000 N 
ATOM      4  C   UNL     1      -3.438  11.571  18.282  0.00  0.00    +0.000 A 
ATOM      5  O   UNL     1      -3.487  11.182  17.120  0.00  0.00    +0.000 OA
ATOM      6  C   UNL     1      -2.232  11.272  19.093  0.00  0.00    +0.000 A 
ATOM      7  C   UNL     1      -1.209  10.478  18.554  0.00  0.00    +0.000 A 
ATOM      8  C   UNL     1      -0.032  10.232  19.276  0.00  0.00    +0.000 A 
ATOM      9  C   UNL     1       0.130  10.851  20.523  0.00  0.00    +0.000 A 
ATOM     10  C   UNL     1      -0.862  11.720  20.995  0.00  0.00    +0.000 A 
ATOM     11  C   UNL     1      -2.101  11.838  20.359  0.00  0.00    +0.000 A 
ENDROOT
BRANCH   1  17
ATOM     12  C   UNL     1      -1.725  16.143  22.493  0.00  0.00    +0.000 C 
ATOM     13  C   UNL     1      -2.018  16.602  23.919  0.00  0.00    +0.000 C 
ATOM     14  C   UNL     1      -2.458  15.446  24.817  0.00  0.00    +0.000 C 
ATOM     15  C   UNL     1      -3.580  14.614  24.192  0.00  0.00    +0.000 C 
ATOM     16  N   UNL     1      -3.263  14.217  22.816  0.00  0.00    +0.000 N 
ATOM     17  C   UNL     1      -3.378  12.874  22.453  0.00  0.00    +0.000 C 
ATOM     18  O   UNL     1      -3.558  11.992  23.296  0.00  0.00    +0.000 OA
ATOM     19  C   UNL     1      -2.888  15.337  21.945  0.00  0.00    +0.000 C 
BRANCH  12  20
ATOM     20  C   UNL     1      -0.427  15.373  22.360  0.00  0.00    +0.000 C 
ATOM     21  O   UNL     1       0.489  15.407  23.168  0.00  0.00    +0.000 OA
BRANCH  20  22
ATOM     22  O   UNL     1      -0.373  14.758  21.143  0.00  0.00    +0.000 OA
BRANCH  22  24
ATOM     23  C   UNL     1      -0.105  14.941  18.787  0.00  0.00    +0.000 C 
ATOM     24  C   UNL     1       0.356  15.463  20.133  0.00  0.00    +0.000 C 
ENDBRANCH  22  24
ENDBRANCH  20  22
ENDBRANCH  12  20
ENDBRANCH   1  17
BRANCH   8  25
ATOM     25  O   UNL     1       0.963   9.412  18.822  0.00  0.00    +0.000 OA
ATOM     26  C   UNL     1       1.967   9.986  17.995  0.00  0.00    +0.000 C 
ENDBRANCH   8  25
BRANCH   9  27
ATOM     27  O   UNL     1       1.137  10.707  21.441  0.00  0.00    +0.000 OA
ATOM     28  C   UNL     1       1.180   9.541  22.247  0.00  0.00    +0.000 C 
ENDBRANCH   9  27
BRANCH   3  29
ATOM     29  C   UNL     1      -5.551  12.825  18.079  0.00  0.00    +0.000 C 
BRANCH  29  30
ATOM     30  C   UNL     1      -6.917  12.136  18.271  0.00  0.00    +0.000 C 
ATOM     31  C   UNL     1      -6.814  10.658  18.645  0.00  0.00    +0.000 C 
ATOM     32  C   UNL     1      -7.814  12.876  19.260  0.00  0.00    +0.000 C 
ENDBRANCH  29  30
ENDBRANCH   3  29
TORSDOF 8
ENDMDL
