MODEL 1
REMARK VINA RESULT:      -8.2      0.000      0.000
REMARK  Name = 
REMARK  5 active torsions:
REMARK  status: ('A' for Active; 'I' for Inactive)
REMARK    1  A    between atoms: C_1  and  C_2
REMARK    2  A    between atoms: C_2  and  C_3
REMARK    3  A    between atoms: C_8  and  C_9
REMARK    4  A    between atoms: C_15  and  C_16
REMARK    5  A    between atoms: C_16  and  C_18
REMARK                            x       y       z     vdW  Elec       q    Type
REMARK                         _______ _______ _______ _____ _____    ______ ____
ROOT
ATOM      1  C   UNL     1       4.011   2.927  18.261  0.00  0.00    +0.000 C 
ATOM      2  O   UNL     1       3.836   1.801  17.791  0.00  0.00    +0.000 OA
ATOM      3  N   UNL     1       3.264   3.403  19.334  0.00  0.00    +0.000 N 
ATOM      4  C   UNL     1       2.407   2.467  20.059  0.00  0.00    +0.000 C 
ATOM      5  C   UNL     1       0.953   2.921  19.990  0.00  0.00    +0.000 C 
ATOM      6  C   UNL     1       0.798   4.351  20.514  0.00  0.00    +0.000 C 
ATOM      7  C   UNL     1       1.749   5.316  19.791  0.00  0.00    +0.000 C 
ATOM      8  C   UNL     1       3.182   4.783  19.824  0.00  0.00    +0.000 C 
ENDROOT
BRANCH   1  16
ATOM      9  C   UNL     1       6.149   4.558  14.289  0.00  0.00    +0.000 C 
ATOM     10  C   UNL     1       5.927   5.012  15.739  0.00  0.00    +0.000 C 
ATOM     11  C   UNL     1       5.174   6.348  15.737  0.00  0.00    +0.000 C 
ATOM     12  C   UNL     1       7.271   5.078  16.453  0.00  0.00    +0.000 C 
ATOM     13  C   UNL     1       7.055   5.165  17.935  0.00  0.00    +0.000 C 
ATOM     14  O   UNL     1       7.823   5.778  18.673  0.00  0.00    +0.000 OA
ATOM     15  C   UNL     1       5.954   4.376  18.508  0.00  0.00    +0.000 C 
ATOM     16  C   UNL     1       5.076   3.815  17.663  0.00  0.00    +0.000 C 
ATOM     17  O   UNL     1       5.066   4.031  16.310  0.00  0.00    +0.000 OA
ENDBRANCH   1  16
BRANCH   7  18
ATOM     18  C   UNL     1       1.751   6.704  20.429  0.00  0.00    +0.000 C 
ATOM     19  O   UNL     1       1.828   6.844  21.649  0.00  0.00    +0.000 OA
BRANCH  18  20
ATOM     20  C   UNL     1       1.720   7.937  19.570  0.00  0.00    +0.000 A 
ATOM     21  C   UNL     1       2.322   8.011  18.305  0.00  0.00    +0.000 A 
ATOM     22  C   UNL     1       2.272   9.197  17.565  0.00  0.00    +0.000 A 
ATOM     23  C   UNL     1       1.610  10.314  18.073  0.00  0.00    +0.000 A 
ATOM     24  C   UNL     1       1.005  10.243  19.324  0.00  0.00    +0.000 A 
ATOM     25 CL   UNL     1       0.175  11.617  19.946  0.00  0.00    +0.000 Cl
ATOM     26  C   UNL     1       1.062   9.069  20.075  0.00  0.00    +0.000 A 
ENDBRANCH  18  20
ENDBRANCH   7  18
TORSDOF 3
ENDMDL
MODEL 2
REMARK VINA RESULT:      -7.9      1.457      2.051
REMARK  Name = 
REMARK  5 active torsions:
REMARK  status: ('A' for Active; 'I' for Inactive)
REMARK    1  A    between atoms: C_1  and  C_2
REMARK    2  A    between atoms: C_2  and  C_3
REMARK    3  A    between atoms: C_8  and  C_9
REMARK    4  A    between atoms: C_15  and  C_16
REMARK    5  A    between atoms: C_16  and  C_18
REMARK                            x       y       z     vdW  Elec       q    Type
REMARK                         _______ _______ _______ _____ _____    ______ ____
ROOT
ATOM      1  C   UNL     1       4.186   3.642  19.039  0.00  0.00    +0.000 C 
ATOM      2  O   UNL     1       4.014   2.424  19.110  0.00  0.00    +0.000 OA
ATOM      3  N   UNL     1       3.441   4.538  19.799  0.00  0.00    +0.000 N 
ATOM      4  C   UNL     1       2.589   4.012  20.863  0.00  0.00    +0.000 C 
ATOM      5  C   UNL     1       1.133   4.388  20.609  0.00  0.00    +0.000 C 
ATOM      6  C   UNL     1       0.976   5.903  20.455  0.00  0.00    +0.000 C 
ATOM      7  C   UNL     1       1.921   6.456  19.379  0.00  0.00    +0.000 C 
ATOM      8  C   UNL     1       3.356   5.994  19.635  0.00  0.00    +0.000 C 
ENDROOT
BRANCH   1  16
ATOM      9  C   UNL     1       5.981   3.753  14.592  0.00  0.00    +0.000 C 
ATOM     10  C   UNL     1       5.967   4.641  15.844  0.00  0.00    +0.000 C 
ATOM     11  C   UNL     1       5.336   5.994  15.494  0.00  0.00    +0.000 C 
ATOM     12  C   UNL     1       7.386   4.761  16.387  0.00  0.00    +0.000 C 
ATOM     13  C   UNL     1       7.352   5.310  17.783  0.00  0.00    +0.000 C 
ATOM     14  O   UNL     1       8.250   6.022  18.228  0.00  0.00    +0.000 OA
ATOM     15  C   UNL     1       6.262   4.862  18.662  0.00  0.00    +0.000 C 
ATOM     16  C   UNL     1       5.247   4.181  18.109  0.00  0.00    +0.000 C 
ATOM     17  O   UNL     1       5.098   3.983  16.761  0.00  0.00    +0.000 OA
ENDBRANCH   1  16
BRANCH   7  18
ATOM     18  C   UNL     1       1.920   7.983  19.345  0.00  0.00    +0.000 C 
ATOM     19  O   UNL     1       2.472   8.600  18.435  0.00  0.00    +0.000 OA
BRANCH  18  20
ATOM     20  C   UNL     1       1.190   8.767  20.399  0.00  0.00    +0.000 A 
ATOM     21  C   UNL     1       1.374   8.568  21.775  0.00  0.00    +0.000 A 
ATOM     22  C   UNL     1       0.647   9.321  22.703  0.00  0.00    +0.000 A 
ATOM     23  C   UNL     1      -0.261  10.285  22.268  0.00  0.00    +0.000 A 
ATOM     24  C   UNL     1      -0.444  10.490  20.903  0.00  0.00    +0.000 A 
ATOM     25 CL   UNL     1      -1.553  11.690  20.365  0.00  0.00    +0.000 Cl
ATOM     26  C   UNL     1       0.268   9.735  19.971  0.00  0.00    +0.000 A 
ENDBRANCH  18  20
ENDBRANCH   7  18
TORSDOF 3
ENDMDL
MODEL 3
REMARK VINA RESULT:      -7.8      0.889      1.884
REMARK  Name = 
REMARK  5 active torsions:
REMARK  status: ('A' for Active; 'I' for Inactive)
REMARK    1  A    between atoms: C_1  and  C_2
REMARK    2  A    between atoms: C_2  and  C_3
REMARK    3  A    between atoms: C_8  and  C_9
REMARK    4  A    between atoms: C_15  and  C_16
REMARK    5  A    between atoms: C_16  and  C_18
REMARK                            x       y       z     vdW  Elec       q    Type
REMARK                         _______ _______ _______ _____ _____    ______ ____
ROOT
ATOM      1  C   UNL     1       4.019   3.159  18.187  0.00  0.00    +0.000 C 
ATOM      2  O   UNL     1       3.883   2.053  17.661  0.00  0.00    +0.000 OA
ATOM      3  N   UNL     1       3.232   3.567  19.260  0.00  0.00    +0.000 N 
ATOM      4  C   UNL     1       2.377   2.579  19.915  0.00  0.00    +0.000 C 
ATOM      5  C   UNL     1       0.915   3.006  19.826  0.00  0.00    +0.000 C 
ATOM      6  C   UNL     1       0.714   4.405  20.412  0.00  0.00    +0.000 C 
ATOM      7  C   UNL     1       1.662   5.424  19.762  0.00  0.00    +0.000 C 
ATOM      8  C   UNL     1       3.105   4.921  19.811  0.00  0.00    +0.000 C 
ENDROOT
BRANCH   1  16
ATOM      9  C   UNL     1       7.665   6.106  19.201  0.00  0.00    +0.000 C 
ATOM     10  C   UNL     1       7.176   5.253  18.022  0.00  0.00    +0.000 C 
ATOM     11  C   UNL     1       8.260   4.232  17.656  0.00  0.00    +0.000 C 
ATOM     12  C   UNL     1       6.796   6.170  16.866  0.00  0.00    +0.000 C 
ATOM     13  C   UNL     1       5.991   5.407  15.856  0.00  0.00    +0.000 C 
ATOM     14  O   UNL     1       6.043   5.658  14.654  0.00  0.00    +0.000 OA
ATOM     15  C   UNL     1       5.026   4.420  16.362  0.00  0.00    +0.000 C 
ATOM     16  C   UNL     1       5.080   4.097  17.663  0.00  0.00    +0.000 C 
ATOM     17  O   UNL     1       6.054   4.531  18.522  0.00  0.00    +0.000 OA
ENDBRANCH   1  16
BRANCH   7  18
ATOM     18  C   UNL     1       1.615   6.780  20.464  0.00  0.00    +0.000 C 
ATOM     19  O   UNL     1       1.641   6.862  21.692  0.00  0.00    +0.000 OA
BRANCH  18  20
ATOM     20  C   UNL     1       1.597   8.051  19.663  0.00  0.00    +0.000 A 
ATOM     21  C   UNL     1       2.183   8.172  18.395  0.00  0.00    +0.000 A 
ATOM     22  C   UNL     1       2.147   9.392  17.710  0.00  0.00    +0.000 A 
ATOM     23  C   UNL     1       1.516  10.497  18.280  0.00  0.00    +0.000 A 
ATOM     24  C   UNL     1       0.928  10.381  19.536  0.00  0.00    +0.000 A 
ATOM     25 CL   UNL     1       0.136  11.741  20.233  0.00  0.00    +0.000 Cl
ATOM     26  C   UNL     1       0.971   9.172  20.231  0.00  0.00    +0.000 A 
ENDBRANCH  18  20
ENDBRANCH   7  18
TORSDOF 3
ENDMDL
MODEL 4
REMARK VINA RESULT:      -7.6      1.606      2.704
REMARK  Name = 
REMARK  5 active torsions:
REMARK  status: ('A' for Active; 'I' for Inactive)
REMARK    1  A    between atoms: C_1  and  C_2
REMARK    2  A    between atoms: C_2  and  C_3
REMARK    3  A    between atoms: C_8  and  C_9
REMARK    4  A    between atoms: C_15  and  C_16
REMARK    5  A    between atoms: C_16  and  C_18
REMARK                            x       y       z     vdW  Elec       q    Type
REMARK                         _______ _______ _______ _____ _____    ______ ____
ROOT
ATOM      1  C   UNL     1       4.005   3.596  18.790  0.00  0.00    +0.000 C 
ATOM      2  O   UNL     1       3.784   2.384  18.833  0.00  0.00    +0.000 OA
ATOM      3  N   UNL     1       3.344   4.496  19.620  0.00  0.00    +0.000 N 
ATOM      4  C   UNL     1       2.534   3.970  20.717  0.00  0.00    +0.000 C 
ATOM      5  C   UNL     1       1.083   4.415  20.561  0.00  0.00    +0.000 C 
ATOM      6  C   UNL     1       0.982   5.939  20.464  0.00  0.00    +0.000 C 
ATOM      7  C   UNL     1       1.887   6.488  19.351  0.00  0.00    +0.000 C 
ATOM      8  C   UNL     1       3.313   5.959  19.508  0.00  0.00    +0.000 C 
ENDROOT
BRANCH   1  16
ATOM      9  C   UNL     1       7.425   6.833  17.881  0.00  0.00    +0.000 C 
ATOM     10  C   UNL     1       7.039   5.418  17.430  0.00  0.00    +0.000 C 
ATOM     11  C   UNL     1       8.196   4.459  17.738  0.00  0.00    +0.000 C 
ATOM     12  C   UNL     1       6.659   5.450  15.954  0.00  0.00    +0.000 C 
ATOM     13  C   UNL     1       5.946   4.183  15.586  0.00  0.00    +0.000 C 
ATOM     14  O   UNL     1       6.037   3.683  14.467  0.00  0.00    +0.000 OA
ATOM     15  C   UNL     1       5.018   3.614  16.574  0.00  0.00    +0.000 C 
ATOM     16  C   UNL     1       5.032   4.121  17.816  0.00  0.00    +0.000 C 
ATOM     17  O   UNL     1       5.940   5.048  18.257  0.00  0.00    +0.000 OA
ENDBRANCH   1  16
BRANCH   7  18
ATOM     18  C   UNL     1       1.950   8.014  19.365  0.00  0.00    +0.000 C 
ATOM     19  O   UNL     1       2.582   8.633  18.510  0.00  0.00    +0.000 OA
BRANCH  18  20
ATOM     20  C   UNL     1       1.188   8.798  20.396  0.00  0.00    +0.000 A 
ATOM     21  C   UNL     1       1.335   8.604  21.777  0.00  0.00    +0.000 A 
ATOM     22  C   UNL     1       0.579   9.356  22.684  0.00  0.00    +0.000 A 
ATOM     23  C   UNL     1      -0.319  10.316  22.220  0.00  0.00    +0.000 A 
ATOM     24  C   UNL     1      -0.465  10.516  20.851  0.00  0.00    +0.000 A 
ATOM     25 CL   UNL     1      -1.563  11.712  20.279  0.00  0.00    +0.000 Cl
ATOM     26  C   UNL     1       0.275   9.762  19.941  0.00  0.00    +0.000 A 
ENDBRANCH  18  20
ENDBRANCH   7  18
TORSDOF 3
ENDMDL
MODEL 5
REMARK VINA RESULT:      -7.6      7.657     10.281
REMARK  Name = 
REMARK  5 active torsions:
REMARK  status: ('A' for Active; 'I' for Inactive)
REMARK    1  A    between atoms: C_1  and  C_2
REMARK    2  A    between atoms: C_2  and  C_3
REMARK    3  A    between atoms: C_8  and  C_9
REMARK    4  A    between atoms: C_15  and  C_16
REMARK    5  A    between atoms: C_16  and  C_18
REMARK                            x       y       z     vdW  Elec       q    Type
REMARK                         _______ _______ _______ _____ _____    ______ ____
ROOT
ATOM      1  C   UNL     1      -1.088  10.819  18.734  0.00  0.00    +0.000 C 
ATOM      2  O   UNL     1       0.023  10.589  18.253  0.00  0.00    +0.000 OA
ATOM      3  N   UNL     1      -2.263  10.523  18.050  0.00  0.00    +0.000 N 
ATOM      4  C   UNL     1      -2.179   9.723  16.830  0.00  0.00    +0.000 C 
ATOM      5  C   UNL     1      -2.732  10.508  15.645  0.00  0.00    +0.000 C 
ATOM      6  C   UNL     1      -4.164  10.977  15.916  0.00  0.00    +0.000 C 
ATOM      7  C   UNL     1      -4.254  11.762  17.233  0.00  0.00    +0.000 C 
ATOM      8  C   UNL     1      -3.623  10.966  18.376  0.00  0.00    +0.000 C 
ENDROOT
BRANCH   1  16
ATOM      9  C   UNL     1      -2.025  14.710  21.377  0.00  0.00    +0.000 C 
ATOM     10  C   UNL     1      -2.036  13.184  21.542  0.00  0.00    +0.000 C 
ATOM     11  C   UNL     1      -3.449  12.730  21.927  0.00  0.00    +0.000 C 
ATOM     12  C   UNL     1      -0.975  12.785  22.561  0.00  0.00    +0.000 C 
ATOM     13  C   UNL     1      -0.720  11.309  22.476  0.00  0.00    +0.000 C 
ATOM     14  O   UNL     1      -0.408  10.642  23.460  0.00  0.00    +0.000 OA
ATOM     15  C   UNL     1      -0.727  10.694  21.141  0.00  0.00    +0.000 C 
ATOM     16  C   UNL     1      -1.181  11.428  20.113  0.00  0.00    +0.000 C 
ATOM     17  O   UNL     1      -1.753  12.665  20.246  0.00  0.00    +0.000 OA
ENDBRANCH   1  16
BRANCH   7  18
ATOM     18  C   UNL     1      -5.700  12.070  17.619  0.00  0.00    +0.000 C 
ATOM     19  O   UNL     1      -6.358  12.908  17.004  0.00  0.00    +0.000 OA
BRANCH  18  20
ATOM     20  C   UNL     1      -6.370  11.307  18.727  0.00  0.00    +0.000 A 
ATOM     21  C   UNL     1      -6.622   9.928  18.671  0.00  0.00    +0.000 A 
ATOM     22  C   UNL     1      -7.268   9.282  19.731  0.00  0.00    +0.000 A 
ATOM     23  C   UNL     1      -7.657  10.003  20.859  0.00  0.00    +0.000 A 
ATOM     24  C   UNL     1      -7.404  11.370  20.922  0.00  0.00    +0.000 A 
ATOM     25 CL   UNL     1      -7.870  12.258  22.321  0.00  0.00    +0.000 Cl
ATOM     26  C   UNL     1      -6.772  12.024  19.864  0.00  0.00    +0.000 A 
ENDBRANCH  18  20
ENDBRANCH   7  18
TORSDOF 3
ENDMDL
MODEL 6
REMARK VINA RESULT:      -7.6      8.753     11.456
REMARK  Name = 
REMARK  5 active torsions:
REMARK  status: ('A' for Active; 'I' for Inactive)
REMARK    1  A    between atoms: C_1  and  C_2
REMARK    2  A    between atoms: C_2  and  C_3
REMARK    3  A    between atoms: C_8  and  C_9
REMARK    4  A    between atoms: C_15  and  C_16
REMARK    5  A    between atoms: C_16  and  C_18
REMARK                            x       y       z     vdW  Elec       q    Type
REMARK                         _______ _______ _______ _____ _____    ______ ____
ROOT
ATOM      1  C   UNL     1      -5.242  12.781  22.953  0.00  0.00    +0.000 C 
ATOM      2  O   UNL     1      -5.753  12.458  24.028  0.00  0.00    +0.000 OA
ATOM      3  N   UNL     1      -5.975  12.827  21.772  0.00  0.00    +0.000 N 
ATOM      4  C   UNL     1      -7.429  12.704  21.847  0.00  0.00    +0.000 C 
ATOM      5  C   UNL     1      -7.898  11.491  21.051  0.00  0.00    +0.000 C 
ATOM      6  C   UNL     1      -7.411  11.563  19.601  0.00  0.00    +0.000 C 
ATOM      7  C   UNL     1      -5.889  11.757  19.533  0.00  0.00    +0.000 C 
ATOM      8  C   UNL     1      -5.459  12.938  20.403  0.00  0.00    +0.000 C 
ENDROOT
BRANCH   1  16
ATOM      9  C   UNL     1      -0.701  11.264  22.657  0.00  0.00    +0.000 C 
ATOM     10  C   UNL     1      -1.506  12.534  22.349  0.00  0.00    +0.000 C 
ATOM     11  C   UNL     1      -1.365  12.870  20.860  0.00  0.00    +0.000 C 
ATOM     12  C   UNL     1      -1.040  13.657  23.268  0.00  0.00    +0.000 C 
ATOM     13  C   UNL     1      -2.033  14.781  23.242  0.00  0.00    +0.000 C 
ATOM     14  O   UNL     1      -1.695  15.955  23.378  0.00  0.00    +0.000 OA
ATOM     15  C   UNL     1      -3.458  14.426  23.177  0.00  0.00    +0.000 C 
ATOM     16  C   UNL     1      -3.777  13.149  22.917  0.00  0.00    +0.000 C 
ATOM     17  O   UNL     1      -2.866  12.181  22.585  0.00  0.00    +0.000 OA
ENDBRANCH   1  16
BRANCH   7  18
ATOM     18  C   UNL     1      -5.409  12.026  18.108  0.00  0.00    +0.000 C 
ATOM     19  O   UNL     1      -5.942  12.886  17.409  0.00  0.00    +0.000 OA
BRANCH  18  20
ATOM     20  C   UNL     1      -4.229  11.281  17.549  0.00  0.00    +0.000 A 
ATOM     21  C   UNL     1      -3.151  10.846  18.333  0.00  0.00    +0.000 A 
ATOM     22  C   UNL     1      -2.073  10.174  17.745  0.00  0.00    +0.000 A 
ATOM     23  C   UNL     1      -2.069   9.919  16.374  0.00  0.00    +0.000 A 
ATOM     24  C   UNL     1      -3.140  10.344  15.593  0.00  0.00    +0.000 A 
ATOM     25 CL   UNL     1      -3.142  10.016  13.904  0.00  0.00    +0.000 Cl
ATOM     26  C   UNL     1      -4.211  11.026  16.169  0.00  0.00    +0.000 A 
ENDBRANCH  18  20
ENDBRANCH   7  18
TORSDOF 3
ENDMDL
MODEL 7
REMARK VINA RESULT:      -7.5      6.928     11.007
REMARK  Name = 
REMARK  5 active torsions:
REMARK  status: ('A' for Active; 'I' for Inactive)
REMARK    1  A    between atoms: C_1  and  C_2
REMARK    2  A    between atoms: C_2  and  C_3
REMARK    3  A    between atoms: C_8  and  C_9
REMARK    4  A    between atoms: C_15  and  C_16
REMARK    5  A    between atoms: C_16  and  C_18
REMARK                            x       y       z     vdW  Elec       q    Type
REMARK                         _______ _______ _______ _____ _____    ______ ____
ROOT
ATOM      1  C   UNL     1      -5.309  11.813  18.123  0.00  0.00    +0.000 C 
ATOM      2  O   UNL     1      -6.322  11.592  17.455  0.00  0.00    +0.000 OA
ATOM      3  N   UNL     1      -4.031  11.581  17.624  0.00  0.00    +0.000 N 
ATOM      4  C   UNL     1      -3.881  11.277  16.202  0.00  0.00    +0.000 C 
ATOM      5  C   UNL     1      -3.240   9.905  16.021  0.00  0.00    +0.000 C 
ATOM      6  C   UNL     1      -1.902   9.821  16.761  0.00  0.00    +0.000 C 
ATOM      7  C   UNL     1      -2.059  10.204  18.240  0.00  0.00    +0.000 C 
ATOM      8  C   UNL     1      -2.771  11.551  18.373  0.00  0.00    +0.000 C 
ENDROOT
BRANCH   1  16
ATOM      9  C   UNL     1      -3.698  14.868  21.451  0.00  0.00    +0.000 C 
ATOM     10  C   UNL     1      -5.005  14.145  21.097  0.00  0.00    +0.000 C 
ATOM     11  C   UNL     1      -6.103  15.185  20.846  0.00  0.00    +0.000 C 
ATOM     12  C   UNL     1      -5.349  13.161  22.210  0.00  0.00    +0.000 C 
ATOM     13  C   UNL     1      -6.400  12.203  21.733  0.00  0.00    +0.000 C 
ATOM     14  O   UNL     1      -7.243  11.727  22.491  0.00  0.00    +0.000 OA
ATOM     15  C   UNL     1      -6.316  11.740  20.341  0.00  0.00    +0.000 C 
ATOM     16  C   UNL     1      -5.457  12.364  19.521  0.00  0.00    +0.000 C 
ATOM     17  O   UNL     1      -4.745  13.485  19.862  0.00  0.00    +0.000 OA
ENDBRANCH   1  16
BRANCH   7  18
ATOM     18  C   UNL     1      -0.710  10.315  18.949  0.00  0.00    +0.000 C 
ATOM     19  O   UNL     1       0.330  10.488  18.315  0.00  0.00    +0.000 OA
BRANCH  18  20
ATOM     20  C   UNL     1      -0.634  10.276  20.449  0.00  0.00    +0.000 A 
ATOM     21  C   UNL     1      -0.236   9.143  21.172  0.00  0.00    +0.000 A 
ATOM     22  C   UNL     1      -0.205   9.168  22.571  0.00  0.00    +0.000 A 
ATOM     23  C   UNL     1      -0.559  10.329  23.259  0.00  0.00    +0.000 A 
ATOM     24  C   UNL     1      -0.949  11.458  22.546  0.00  0.00    +0.000 A 
ATOM     25 CL   UNL     1      -1.371  12.895  23.394  0.00  0.00    +0.000 Cl
ATOM     26  C   UNL     1      -0.995  11.436  21.152  0.00  0.00    +0.000 A 
ENDBRANCH  18  20
ENDBRANCH   7  18
TORSDOF 3
ENDMDL
MODEL 8
REMARK VINA RESULT:      -7.4      5.855     10.552
REMARK  Name = 
REMARK  5 active torsions:
REMARK  status: ('A' for Active; 'I' for Inactive)
REMARK    1  A    between atoms: C_1  and  C_2
REMARK    2  A    between atoms: C_2  and  C_3
REMARK    3  A    between atoms: C_8  and  C_9
REMARK    4  A    between atoms: C_15  and  C_16
REMARK    5  A    between atoms: C_16  and  C_18
REMARK                            x       y       z     vdW  Elec       q    Type
REMARK                         _______ _______ _______ _____ _____    ______ ____
ROOT
ATOM      1  C   UNL     1      -4.390  12.351  19.701  0.00  0.00    +0.000 C 
ATOM      2  O   UNL     1      -5.563  12.105  19.414  0.00  0.00    +0.000 OA
ATOM      3  N   UNL     1      -3.333  11.957  18.886  0.00  0.00    +0.000 N 
ATOM      4  C   UNL     1      -3.635  11.436  17.554  0.00  0.00    +0.000 C 
ATOM      5  C   UNL     1      -3.110  10.011  17.414  0.00  0.00    +0.000 C 
ATOM      6  C   UNL     1      -1.612   9.944  17.722  0.00  0.00    +0.000 C 
ATOM      7  C   UNL     1      -1.297  10.552  19.096  0.00  0.00    +0.000 C 
ATOM      8  C   UNL     1      -1.904  11.951  19.216  0.00  0.00    +0.000 C 
ENDROOT
BRANCH   1  16
ATOM      9  C   UNL     1      -4.238  12.316  24.495  0.00  0.00    +0.000 C 
ATOM     10  C   UNL     1      -3.570  13.065  23.334  0.00  0.00    +0.000 C 
ATOM     11  C   UNL     1      -2.054  12.852  23.404  0.00  0.00    +0.000 C 
ATOM     12  C   UNL     1      -3.976  14.533  23.387  0.00  0.00    +0.000 C 
ATOM     13  C   UNL     1      -3.640  15.201  22.087  0.00  0.00    +0.000 C 
ATOM     14  O   UNL     1      -3.313  16.384  22.025  0.00  0.00    +0.000 OA
ATOM     15  C   UNL     1      -3.840  14.426  20.854  0.00  0.00    +0.000 C 
ATOM     16  C   UNL     1      -4.088  13.112  20.970  0.00  0.00    +0.000 C 
ATOM     17  O   UNL     1      -4.043  12.423  22.153  0.00  0.00    +0.000 OA
ENDBRANCH   1  16
BRANCH   7  18
ATOM     18  C   UNL     1       0.206  10.672  19.339  0.00  0.00    +0.000 C 
ATOM     19  O   UNL     1       0.691  11.686  19.840  0.00  0.00    +0.000 OA
BRANCH  18  20
ATOM     20  C   UNL     1       1.122   9.523  19.024  0.00  0.00    +0.000 A 
ATOM     21  C   UNL     1       1.930   9.473  17.879  0.00  0.00    +0.000 A 
ATOM     22  C   UNL     1       2.747   8.363  17.636  0.00  0.00    +0.000 A 
ATOM     23  C   UNL     1       2.773   7.301  18.539  0.00  0.00    +0.000 A 
ATOM     24  C   UNL     1       1.978   7.348  19.679  0.00  0.00    +0.000 A 
ATOM     25 CL   UNL     1       2.021   6.044  20.802  0.00  0.00    +0.000 Cl
ATOM     26  C   UNL     1       1.151   8.445  19.922  0.00  0.00    +0.000 A 
ENDBRANCH  18  20
ENDBRANCH   7  18
TORSDOF 3
ENDMDL
MODEL 9
REMARK VINA RESULT:      -7.3      6.624     11.199
REMARK  Name = 
REMARK  5 active torsions:
REMARK  status: ('A' for Active; 'I' for Inactive)
REMARK    1  A    between atoms: C_1  and  C_2
REMARK    2  A    between atoms: C_2  and  C_3
REMARK    3  A    between atoms: C_8  and  C_9
REMARK    4  A    between atoms: C_15  and  C_16
REMARK    5  A    between atoms: C_16  and  C_18
REMARK                            x       y       z     vdW  Elec       q    Type
REMARK                         _______ _______ _______ _____ _____    ______ ____
ROOT
ATOM      1  C   UNL     1      -5.512  11.929  18.234  0.00  0.00    +0.000 C 
ATOM      2  O   UNL     1      -6.526  11.521  17.664  0.00  0.00    +0.000 OA
ATOM      3  N   UNL     1      -4.237  11.709  17.720  0.00  0.00    +0.000 N 
ATOM      4  C   UNL     1      -4.113  11.175  16.365  0.00  0.00    +0.000 C 
ATOM      5  C   UNL     1      -3.369   9.844  16.389  0.00  0.00    +0.000 C 
ATOM      6  C   UNL     1      -2.004   9.989  17.067  0.00  0.00    +0.000 C 
ATOM      7  C   UNL     1      -2.139  10.610  18.466  0.00  0.00    +0.000 C 
ATOM      8  C   UNL     1      -2.953  11.903  18.402  0.00  0.00    +0.000 C 
ENDROOT
BRANCH   1  16
ATOM      9  C   UNL     1      -5.007  16.123  20.507  0.00  0.00    +0.000 C 
ATOM     10  C   UNL     1      -5.844  14.842  20.638  0.00  0.00    +0.000 C 
ATOM     11  C   UNL     1      -7.332  15.203  20.555  0.00  0.00    +0.000 C 
ATOM     12  C   UNL     1      -5.467  14.130  21.932  0.00  0.00    +0.000 C 
ATOM     13  C   UNL     1      -5.992  12.725  21.910  0.00  0.00    +0.000 C 
ATOM     14  O   UNL     1      -6.350  12.145  22.933  0.00  0.00    +0.000 OA
ATOM     15  C   UNL     1      -5.945  12.002  20.631  0.00  0.00    +0.000 C 
ATOM     16  C   UNL     1      -5.655  12.702  19.523  0.00  0.00    +0.000 C 
ATOM     17  O   UNL     1      -5.523  14.065  19.488  0.00  0.00    +0.000 OA
ENDBRANCH   1  16
BRANCH   7  18
ATOM     18  C   UNL     1      -0.780  10.943  19.079  0.00  0.00    +0.000 C 
ATOM     19  O   UNL     1      -0.434  12.109  19.264  0.00  0.00    +0.000 OA
BRANCH  18  20
ATOM     20  C   UNL     1       0.142   9.844  19.527  0.00  0.00    +0.000 A 
ATOM     21  C   UNL     1       0.114   9.291  20.815  0.00  0.00    +0.000 A 
ATOM     22  C   UNL     1       1.014   8.282  21.173  0.00  0.00    +0.000 A 
ATOM     23  C   UNL     1       1.941   7.807  20.246  0.00  0.00    +0.000 A 
ATOM     24  C   UNL     1       1.969   8.348  18.964  0.00  0.00    +0.000 A 
ATOM     25 CL   UNL     1       3.103   7.753  17.814  0.00  0.00    +0.000 Cl
ATOM     26  C   UNL     1       1.084   9.364  18.603  0.00  0.00    +0.000 A 
ENDBRANCH  18  20
ENDBRANCH   7  18
TORSDOF 3
ENDMDL
