MODEL 1
REMARK VINA RESULT:      -7.3      0.000      0.000
REMARK  Name = 
REMARK  5 active torsions:
REMARK  status: ('A' for Active; 'I' for Inactive)
REMARK    1  A    between atoms: C_1  and  N_2
REMARK    2  A    between atoms: N_2  and  C_3
REMARK    3  A    between atoms: N_2  and  C_4
REMARK    4  A    between atoms: C_4  and  C_5
REMARK    5  A    between atoms: C_5  and  N_6
REMARK                            x       y       z     vdW  Elec       q    Type
REMARK                         _______ _______ _______ _____ _____    ______ ____
ROOT
ATOM      1  N   UNL     1       4.116   5.146  17.145  0.00  0.00    +0.000 N 
ATOM      2  C   UNL     1       4.224   3.787  16.917  0.00  0.00    +0.000 C 
ATOM      3  N   UNL     1       3.662   2.814  17.557  0.00  0.00    +0.000 NA
ATOM      4  C   UNL     1       2.840   3.202  18.635  0.00  0.00    +0.000 A 
ATOM      5  C   UNL     1       2.201   2.201  19.375  0.00  0.00    +0.000 A 
ATOM      6  C   UNL     1       1.391   2.530  20.458  0.00  0.00    +0.000 A 
ATOM      7  C   UNL     1       1.210   3.868  20.812  0.00  0.00    +0.000 A 
ATOM      8  C   UNL     1       1.837   4.891  20.083  0.00  0.00    +0.000 A 
ATOM      9  C   UNL     1       1.669   6.239  20.419  0.00  0.00    +0.000 A 
ATOM     10  C   UNL     1       2.300   7.235  19.679  0.00  0.00    +0.000 A 
ATOM     11  C   UNL     1       3.113   6.899  18.595  0.00  0.00    +0.000 A 
ATOM     12  C   UNL     1       3.311   5.560  18.228  0.00  0.00    +0.000 A 
ATOM     13  C   UNL     1       2.661   4.555  18.982  0.00  0.00    +0.000 A 
ENDROOT
BRANCH   1  14
ATOM     14  C   UNL     1       4.935   6.099  16.395  0.00  0.00    +0.000 C 
BRANCH  14  15
ATOM     15  C   UNL     1       6.247   5.438  15.913  0.00  0.00    +0.000 C 
BRANCH  15  17
ATOM     16  C   UNL     1       7.258   7.003  17.439  0.00  0.00    +0.000 C 
ATOM     17  N   UNL     1       7.427   5.711  16.763  0.00  0.00    +0.000 NA
ATOM     18  C   UNL     1       7.646   4.662  17.760  0.00  0.00    +0.000 C 
ENDBRANCH  15  17
ENDBRANCH  14  15
ENDBRANCH   1  14
TORSDOF 3
ENDMDL
MODEL 2
REMARK VINA RESULT:      -6.9      1.102      2.867
REMARK  Name = 
REMARK  5 active torsions:
REMARK  status: ('A' for Active; 'I' for Inactive)
REMARK    1  A    between atoms: C_1  and  N_2
REMARK    2  A    between atoms: N_2  and  C_3
REMARK    3  A    between atoms: N_2  and  C_4
REMARK    4  A    between atoms: C_4  and  C_5
REMARK    5  A    between atoms: C_5  and  N_6
REMARK                            x       y       z     vdW  Elec       q    Type
REMARK                         _______ _______ _______ _____ _____    ______ ____
ROOT
ATOM      1  N   UNL     1       4.065   5.873  17.532  0.00  0.00    +0.000 N 
ATOM      2  C   UNL     1       3.469   6.820  18.342  0.00  0.00    +0.000 C 
ATOM      3  N   UNL     1       2.642   6.640  19.320  0.00  0.00    +0.000 NA
ATOM      4  C   UNL     1       2.304   5.296  19.579  0.00  0.00    +0.000 A 
ATOM      5  C   UNL     1       1.412   5.026  20.622  0.00  0.00    +0.000 A 
ATOM      6  C   UNL     1       1.034   3.717  20.909  0.00  0.00    +0.000 A 
ATOM      7  C   UNL     1       1.548   2.662  20.154  0.00  0.00    +0.000 A 
ATOM      8  C   UNL     1       2.448   2.906  19.105  0.00  0.00    +0.000 A 
ATOM      9  C   UNL     1       2.977   1.864  18.336  0.00  0.00    +0.000 A 
ATOM     10  C   UNL     1       3.870   2.132  17.301  0.00  0.00    +0.000 A 
ATOM     11  C   UNL     1       4.244   3.448  17.017  0.00  0.00    +0.000 A 
ATOM     12  C   UNL     1       3.732   4.521  17.761  0.00  0.00    +0.000 A 
ATOM     13  C   UNL     1       2.831   4.238  18.814  0.00  0.00    +0.000 A 
ENDROOT
BRANCH   1  14
ATOM     14  C   UNL     1       4.878   6.275  16.383  0.00  0.00    +0.000 C 
BRANCH  14  15
ATOM     15  C   UNL     1       6.316   6.632  16.824  0.00  0.00    +0.000 C 
BRANCH  15  17
ATOM     16  C   UNL     1       7.596   4.690  17.446  0.00  0.00    +0.000 C 
ATOM     17  N   UNL     1       7.355   5.675  16.384  0.00  0.00    +0.000 NA
ATOM     18  C   UNL     1       6.984   4.982  15.150  0.00  0.00    +0.000 C 
ENDBRANCH  15  17
ENDBRANCH  14  15
ENDBRANCH   1  14
TORSDOF 3
ENDMDL
MODEL 3
REMARK VINA RESULT:      -6.7      0.779      1.094
REMARK  Name = 
REMARK  5 active torsions:
REMARK  status: ('A' for Active; 'I' for Inactive)
REMARK    1  A    between atoms: C_1  and  N_2
REMARK    2  A    between atoms: N_2  and  C_3
REMARK    3  A    between atoms: N_2  and  C_4
REMARK    4  A    between atoms: C_4  and  C_5
REMARK    5  A    between atoms: C_5  and  N_6
REMARK                            x       y       z     vdW  Elec       q    Type
REMARK                         _______ _______ _______ _____ _____    ______ ____
ROOT
ATOM      1  N   UNL     1       3.939   5.646  17.333  0.00  0.00    +0.000 N 
ATOM      2  C   UNL     1       4.115   4.331  16.946  0.00  0.00    +0.000 C 
ATOM      3  N   UNL     1       3.601   3.262  17.463  0.00  0.00    +0.000 NA
ATOM      4  C   UNL     1       2.759   3.479  18.573  0.00  0.00    +0.000 A 
ATOM      5  C   UNL     1       2.170   2.367  19.185  0.00  0.00    +0.000 A 
ATOM      6  C   UNL     1       1.343   2.525  20.293  0.00  0.00    +0.000 A 
ATOM      7  C   UNL     1       1.095   3.801  20.802  0.00  0.00    +0.000 A 
ATOM      8  C   UNL     1       1.671   4.933  20.203  0.00  0.00    +0.000 A 
ATOM      9  C   UNL     1       1.435   6.221  20.694  0.00  0.00    +0.000 A 
ATOM     10  C   UNL     1       2.017   7.328  20.082  0.00  0.00    +0.000 A 
ATOM     11  C   UNL     1       2.848   7.163  18.971  0.00  0.00    +0.000 A 
ATOM     12  C   UNL     1       3.113   5.888  18.451  0.00  0.00    +0.000 A 
ATOM     13  C   UNL     1       2.512   4.770  19.076  0.00  0.00    +0.000 A 
ENDROOT
BRANCH   1  14
ATOM     14  C   UNL     1       4.710   6.720  16.706  0.00  0.00    +0.000 C 
BRANCH  14  15
ATOM     15  C   UNL     1       6.222   6.399  16.732  0.00  0.00    +0.000 C 
BRANCH  15  17
ATOM     16  C   UNL     1       7.745   5.933  18.537  0.00  0.00    +0.000 C 
ATOM     17  N   UNL     1       6.960   6.981  17.874  0.00  0.00    +0.000 NA
ATOM     18  C   UNL     1       7.847   8.071  17.465  0.00  0.00    +0.000 C 
ENDBRANCH  15  17
ENDBRANCH  14  15
ENDBRANCH   1  14
TORSDOF 3
ENDMDL
MODEL 4
REMARK VINA RESULT:      -6.7      0.984      1.335
REMARK  Name = 
REMARK  5 active torsions:
REMARK  status: ('A' for Active; 'I' for Inactive)
REMARK    1  A    between atoms: C_1  and  N_2
REMARK    2  A    between atoms: N_2  and  C_3
REMARK    3  A    between atoms: N_2  and  C_4
REMARK    4  A    between atoms: C_4  and  C_5
REMARK    5  A    between atoms: C_5  and  N_6
REMARK                            x       y       z     vdW  Elec       q    Type
REMARK                         _______ _______ _______ _____ _____    ______ ____
ROOT
ATOM      1  N   UNL     1       4.203   5.071  17.279  0.00  0.00    +0.000 N 
ATOM      2  C   UNL     1       4.287   3.710  17.056  0.00  0.00    +0.000 C 
ATOM      3  N   UNL     1       3.672   2.752  17.670  0.00  0.00    +0.000 NA
ATOM      4  C   UNL     1       2.811   3.162  18.709  0.00  0.00    +0.000 A 
ATOM      5  C   UNL     1       2.114   2.178  19.419  0.00  0.00    +0.000 A 
ATOM      6  C   UNL     1       1.263   2.529  20.464  0.00  0.00    +0.000 A 
ATOM      7  C   UNL     1       1.100   3.871  20.809  0.00  0.00    +0.000 A 
ATOM      8  C   UNL     1       1.786   4.877  20.110  0.00  0.00    +0.000 A 
ATOM      9  C   UNL     1       1.635   6.229  20.437  0.00  0.00    +0.000 A 
ATOM     10  C   UNL     1       2.324   7.209  19.727  0.00  0.00    +0.000 A 
ATOM     11  C   UNL     1       3.178   6.851  18.680  0.00  0.00    +0.000 A 
ATOM     12  C   UNL     1       3.359   5.507  18.324  0.00  0.00    +0.000 A 
ATOM     13  C   UNL     1       2.650   4.519  19.047  0.00  0.00    +0.000 A 
ENDROOT
BRANCH   1  14
ATOM     14  C   UNL     1       5.079   6.003  16.568  0.00  0.00    +0.000 C 
BRANCH  14  15
ATOM     15  C   UNL     1       5.223   5.598  15.083  0.00  0.00    +0.000 C 
BRANCH  15  17
ATOM     16  C   UNL     1       7.394   4.889  15.845  0.00  0.00    +0.000 C 
ATOM     17  N   UNL     1       6.600   5.254  14.665  0.00  0.00    +0.000 NA
ATOM     18  C   UNL     1       6.629   4.156  13.698  0.00  0.00    +0.000 C 
ENDBRANCH  15  17
ENDBRANCH  14  15
ENDBRANCH   1  14
TORSDOF 3
ENDMDL
MODEL 5
REMARK VINA RESULT:      -6.5      1.063      1.523
REMARK  Name = 
REMARK  5 active torsions:
REMARK  status: ('A' for Active; 'I' for Inactive)
REMARK    1  A    between atoms: C_1  and  N_2
REMARK    2  A    between atoms: N_2  and  C_3
REMARK    3  A    between atoms: N_2  and  C_4
REMARK    4  A    between atoms: C_4  and  C_5
REMARK    5  A    between atoms: C_5  and  N_6
REMARK                            x       y       z     vdW  Elec       q    Type
REMARK                         _______ _______ _______ _____ _____    ______ ____
ROOT
ATOM      1  N   UNL     1       4.183   3.635  17.029  0.00  0.00    +0.000 N 
ATOM      2  C   UNL     1       3.938   2.324  17.392  0.00  0.00    +0.000 C 
ATOM      3  N   UNL     1       3.201   1.879  18.357  0.00  0.00    +0.000 NA
ATOM      4  C   UNL     1       2.579   2.871  19.143  0.00  0.00    +0.000 A 
ATOM      5  C   UNL     1       1.768   2.461  20.207  0.00  0.00    +0.000 A 
ATOM      6  C   UNL     1       1.143   3.401  21.023  0.00  0.00    +0.000 A 
ATOM      7  C   UNL     1       1.323   4.763  20.780  0.00  0.00    +0.000 A 
ATOM      8  C   UNL     1       2.128   5.199  19.715  0.00  0.00    +0.000 A 
ATOM      9  C   UNL     1       2.319   6.560  19.452  0.00  0.00    +0.000 A 
ATOM     10  C   UNL     1       3.122   6.967  18.389  0.00  0.00    +0.000 A 
ATOM     11  C   UNL     1       3.747   6.020  17.575  0.00  0.00    +0.000 A 
ATOM     12  C   UNL     1       3.584   4.647  17.809  0.00  0.00    +0.000 A 
ATOM     13  C   UNL     1       2.762   4.243  18.887  0.00  0.00    +0.000 A 
ENDROOT
BRANCH   1  14
ATOM     14  C   UNL     1       5.155   3.952  15.982  0.00  0.00    +0.000 C 
BRANCH  14  15
ATOM     15  C   UNL     1       6.585   4.028  16.563  0.00  0.00    +0.000 C 
BRANCH  15  17
ATOM     16  C   UNL     1       7.144   5.218  14.546  0.00  0.00    +0.000 C 
ATOM     17  N   UNL     1       7.436   5.088  15.978  0.00  0.00    +0.000 NA
ATOM     18  C   UNL     1       7.242   6.381  16.636  0.00  0.00    +0.000 C 
ENDBRANCH  15  17
ENDBRANCH  14  15
ENDBRANCH   1  14
TORSDOF 3
ENDMDL
MODEL 6
REMARK VINA RESULT:      -6.4      1.191      2.888
REMARK  Name = 
REMARK  5 active torsions:
REMARK  status: ('A' for Active; 'I' for Inactive)
REMARK    1  A    between atoms: C_1  and  N_2
REMARK    2  A    between atoms: N_2  and  C_3
REMARK    3  A    between atoms: N_2  and  C_4
REMARK    4  A    between atoms: C_4  and  C_5
REMARK    5  A    between atoms: C_5  and  N_6
REMARK                            x       y       z     vdW  Elec       q    Type
REMARK                         _______ _______ _______ _____ _____    ______ ____
ROOT
ATOM      1  N   UNL     1       4.157   5.852  17.427  0.00  0.00    +0.000 N 
ATOM      2  C   UNL     1       3.556   6.836  18.189  0.00  0.00    +0.000 C 
ATOM      3  N   UNL     1       2.717   6.703  19.164  0.00  0.00    +0.000 NA
ATOM      4  C   UNL     1       2.369   5.372  19.476  0.00  0.00    +0.000 A 
ATOM      5  C   UNL     1       1.463   5.152  20.520  0.00  0.00    +0.000 A 
ATOM      6  C   UNL     1       1.075   3.859  20.859  0.00  0.00    +0.000 A 
ATOM      7  C   UNL     1       1.591   2.770  20.156  0.00  0.00    +0.000 A 
ATOM      8  C   UNL     1       2.504   2.964  19.107  0.00  0.00    +0.000 A 
ATOM      9  C   UNL     1       3.037   1.887  18.390  0.00  0.00    +0.000 A 
ATOM     10  C   UNL     1       3.942   2.106  17.355  0.00  0.00    +0.000 A 
ATOM     11  C   UNL     1       4.327   3.406  17.019  0.00  0.00    +0.000 A 
ATOM     12  C   UNL     1       3.813   4.512  17.710  0.00  0.00    +0.000 A 
ATOM     13  C   UNL     1       2.899   4.280  18.764  0.00  0.00    +0.000 A 
ENDROOT
BRANCH   1  14
ATOM     14  C   UNL     1       4.985   6.200  16.272  0.00  0.00    +0.000 C 
BRANCH  14  15
ATOM     15  C   UNL     1       6.487   6.058  16.608  0.00  0.00    +0.000 C 
BRANCH  15  17
ATOM     16  C   UNL     1       7.639   5.776  18.703  0.00  0.00    +0.000 C 
ATOM     17  N   UNL     1       6.908   6.728  17.858  0.00  0.00    +0.000 NA
ATOM     18  C   UNL     1       7.746   7.901  17.604  0.00  0.00    +0.000 C 
ENDBRANCH  15  17
ENDBRANCH  14  15
ENDBRANCH   1  14
TORSDOF 3
ENDMDL
MODEL 7
REMARK VINA RESULT:      -6.4      1.540      1.975
REMARK  Name = 
REMARK  5 active torsions:
REMARK  status: ('A' for Active; 'I' for Inactive)
REMARK    1  A    between atoms: C_1  and  N_2
REMARK    2  A    between atoms: N_2  and  C_3
REMARK    3  A    between atoms: N_2  and  C_4
REMARK    4  A    between atoms: C_4  and  C_5
REMARK    5  A    between atoms: C_5  and  N_6
REMARK                            x       y       z     vdW  Elec       q    Type
REMARK                         _______ _______ _______ _____ _____    ______ ____
ROOT
ATOM      1  N   UNL     1       4.401   4.340  17.045  0.00  0.00    +0.000 N 
ATOM      2  C   UNL     1       4.306   2.969  17.194  0.00  0.00    +0.000 C 
ATOM      3  N   UNL     1       3.582   2.296  18.029  0.00  0.00    +0.000 NA
ATOM      4  C   UNL     1       2.800   3.075  18.906  0.00  0.00    +0.000 A 
ATOM      5  C   UNL     1       1.993   2.413  19.839  0.00  0.00    +0.000 A 
ATOM      6  C   UNL     1       1.212   3.136  20.737  0.00  0.00    +0.000 A 
ATOM      7  C   UNL     1       1.229   4.530  20.710  0.00  0.00    +0.000 A 
ATOM      8  C   UNL     1       2.027   5.218  19.781  0.00  0.00    +0.000 A 
ATOM      9  C   UNL     1       2.057   6.616  19.734  0.00  0.00    +0.000 A 
ATOM     10  C   UNL     1       2.854   7.274  18.801  0.00  0.00    +0.000 A 
ATOM     11  C   UNL     1       3.637   6.544  17.904  0.00  0.00    +0.000 A 
ATOM     12  C   UNL     1       3.638   5.142  17.921  0.00  0.00    +0.000 A 
ATOM     13  C   UNL     1       2.820   4.482  18.868  0.00  0.00    +0.000 A 
ENDROOT
BRANCH   1  14
ATOM     14  C   UNL     1       5.378   4.927  16.128  0.00  0.00    +0.000 C 
BRANCH  14  15
ATOM     15  C   UNL     1       5.864   3.882  15.098  0.00  0.00    +0.000 C 
BRANCH  15  17
ATOM     16  C   UNL     1       7.484   5.081  13.780  0.00  0.00    +0.000 C 
ATOM     17  N   UNL     1       6.169   4.429  13.757  0.00  0.00    +0.000 NA
ATOM     18  C   UNL     1       6.153   3.396  12.720  0.00  0.00    +0.000 C 
ENDBRANCH  15  17
ENDBRANCH  14  15
ENDBRANCH   1  14
TORSDOF 3
ENDMDL
MODEL 8
REMARK VINA RESULT:      -6.4      1.621      2.209
REMARK  Name = 
REMARK  5 active torsions:
REMARK  status: ('A' for Active; 'I' for Inactive)
REMARK    1  A    between atoms: C_1  and  N_2
REMARK    2  A    between atoms: N_2  and  C_3
REMARK    3  A    between atoms: N_2  and  C_4
REMARK    4  A    between atoms: C_4  and  C_5
REMARK    5  A    between atoms: C_5  and  N_6
REMARK                            x       y       z     vdW  Elec       q    Type
REMARK                         _______ _______ _______ _____ _____    ______ ____
ROOT
ATOM      1  N   UNL     1       4.504   4.718  16.884  0.00  0.00    +0.000 N 
ATOM      2  C   UNL     1       4.495   3.383  17.240  0.00  0.00    +0.000 C 
ATOM      3  N   UNL     1       3.870   2.813  18.218  0.00  0.00    +0.000 NA
ATOM      4  C   UNL     1       3.107   3.679  19.027  0.00  0.00    +0.000 A 
ATOM      5  C   UNL     1       2.405   3.131  20.107  0.00  0.00    +0.000 A 
ATOM      6  C   UNL     1       1.648   3.946  20.945  0.00  0.00    +0.000 A 
ATOM      7  C   UNL     1       1.585   5.320  20.711  0.00  0.00    +0.000 A 
ATOM      8  C   UNL     1       2.277   5.893  19.632  0.00  0.00    +0.000 A 
ATOM      9  C   UNL     1       2.226   7.268  19.376  0.00  0.00    +0.000 A 
ATOM     10  C   UNL     1       2.920   7.812  18.299  0.00  0.00    +0.000 A 
ATOM     11  C   UNL     1       3.679   6.990  17.462  0.00  0.00    +0.000 A 
ATOM     12  C   UNL     1       3.759   5.609  17.687  0.00  0.00    +0.000 A 
ATOM     13  C   UNL     1       3.046   5.064  18.780  0.00  0.00    +0.000 A 
ENDROOT
BRANCH   1  14
ATOM     14  C   UNL     1       5.380   5.203  15.818  0.00  0.00    +0.000 C 
BRANCH  14  15
ATOM     15  C   UNL     1       5.199   4.365  14.531  0.00  0.00    +0.000 C 
BRANCH  15  17
ATOM     16  C   UNL     1       6.181   3.483  12.518  0.00  0.00    +0.000 C 
ATOM     17  N   UNL     1       6.461   3.944  13.883  0.00  0.00    +0.000 NA
ATOM     18  C   UNL     1       7.450   5.022  13.842  0.00  0.00    +0.000 C 
ENDBRANCH  15  17
ENDBRANCH  14  15
ENDBRANCH   1  14
TORSDOF 3
ENDMDL
MODEL 9
REMARK VINA RESULT:      -6.3      1.650      3.413
REMARK  Name = 
REMARK  5 active torsions:
REMARK  status: ('A' for Active; 'I' for Inactive)
REMARK    1  A    between atoms: C_1  and  N_2
REMARK    2  A    between atoms: N_2  and  C_3
REMARK    3  A    between atoms: N_2  and  C_4
REMARK    4  A    between atoms: C_4  and  C_5
REMARK    5  A    between atoms: C_5  and  N_6
REMARK                            x       y       z     vdW  Elec       q    Type
REMARK                         _______ _______ _______ _____ _____    ______ ____
ROOT
ATOM      1  N   UNL     1       4.700   4.525  16.925  0.00  0.00    +0.000 N 
ATOM      2  C   UNL     1       4.723   5.904  17.009  0.00  0.00    +0.000 C 
ATOM      3  N   UNL     1       4.065   6.674  17.814  0.00  0.00    +0.000 NA
ATOM      4  C   UNL     1       3.208   6.008  18.713  0.00  0.00    +0.000 A 
ATOM      5  C   UNL     1       2.463   6.778  19.613  0.00  0.00    +0.000 A 
ATOM      6  C   UNL     1       1.590   6.170  20.512  0.00  0.00    +0.000 A 
ATOM      7  C   UNL     1       1.455   4.782  20.520  0.00  0.00    +0.000 A 
ATOM      8  C   UNL     1       2.194   3.986  19.630  0.00  0.00    +0.000 A 
ATOM      9  C   UNL     1       2.076   2.592  19.623  0.00  0.00    +0.000 A 
ATOM     10  C   UNL     1       2.822   1.825  18.732  0.00  0.00    +0.000 A 
ATOM     11  C   UNL     1       3.694   2.440  17.832  0.00  0.00    +0.000 A 
ATOM     12  C   UNL     1       3.838   3.835  17.804  0.00  0.00    +0.000 A 
ATOM     13  C   UNL     1       3.081   4.606  18.717  0.00  0.00    +0.000 A 
ENDROOT
BRANCH   1  14
ATOM     14  C   UNL     1       5.417   3.828  15.857  0.00  0.00    +0.000 C 
BRANCH  14  15
ATOM     15  C   UNL     1       6.050   4.836  14.870  0.00  0.00    +0.000 C 
BRANCH  15  17
ATOM     16  C   UNL     1       5.966   3.552  12.834  0.00  0.00    +0.000 C 
ATOM     17  N   UNL     1       6.855   4.223  13.790  0.00  0.00    +0.000 NA
ATOM     18  C   UNL     1       7.678   5.207  13.085  0.00  0.00    +0.000 C 
ENDBRANCH  15  17
ENDBRANCH  14  15
ENDBRANCH   1  14
TORSDOF 3
ENDMDL
