MODEL 1
REMARK VINA RESULT:      -6.7      0.000      0.000
REMARK  Name = 
REMARK  12 active torsions:
REMARK  status: ('A' for Active; 'I' for Inactive)
REMARK    1  A    between atoms: C_1  and  O_2
REMARK    2  A    between atoms: O_2  and  C_3
REMARK    3  A    between atoms: C_5  and  C_6
REMARK    4  A    between atoms: C_10  and  C_11
REMARK    5  A    between atoms: C_11  and  C_13
REMARK    6  A    between atoms: C_13  and  C_14
REMARK    7  A    between atoms: C_13  and  C_15
REMARK    8  A    between atoms: C_13  and  C_16
REMARK    9  A    between atoms: C_21  and  O_22
REMARK   10  A    between atoms: O_22  and  C_23
REMARK   11  A    between atoms: C_24  and  O_25
REMARK   12  A    between atoms: O_25  and  C_26
REMARK                            x       y       z     vdW  Elec       q    Type
REMARK                         _______ _______ _______ _____ _____    ______ ____
ROOT
ATOM      1  C   UNL     1       4.158   6.565  17.701  0.00  0.00    +0.000 C 
ATOM      2  C   UNL     1       3.928   5.298  17.336  0.00  0.00    +0.000 A 
ATOM      3  S   UNL     1       2.411   4.491  17.408  0.00  0.00    +0.000 S 
ATOM      4  C   UNL     1       3.239   3.017  17.787  0.00  0.00    +0.000 A 
ATOM      5  C   UNL     1       2.767   2.017  18.547  0.00  0.00    +0.000 C 
ATOM      6  N   UNL     1       4.525   3.055  17.309  0.00  0.00    +0.000 N 
ATOM      7  C   UNL     1       5.025   4.320  17.069  0.00  0.00    +0.000 A 
ATOM      8  O   UNL     1       6.186   4.588  16.805  0.00  0.00    +0.000 OA
ATOM      9  H   UNL     1       5.184   2.294  17.396  0.00  0.00    +0.000 HD
ENDROOT
BRANCH   1  12
ATOM     10  C   UNL     1       1.612   8.105  20.025  0.00  0.00    +0.000 A 
ATOM     11  C   UNL     1       2.467   7.171  19.411  0.00  0.00    +0.000 A 
ATOM     12  C   UNL     1       3.151   7.485  18.236  0.00  0.00    +0.000 A 
ATOM     13  C   UNL     1       2.884   8.695  17.607  0.00  0.00    +0.000 A 
ATOM     14  C   UNL     1       1.991   9.627  18.170  0.00  0.00    +0.000 A 
ATOM     15  C   UNL     1       1.361   9.353  19.405  0.00  0.00    +0.000 A 
BRANCH  10  17
ATOM     16  C   UNL     1       1.132   8.756  22.263  0.00  0.00    +0.000 C 
ATOM     17  O   UNL     1       0.987   7.810  21.206  0.00  0.00    +0.000 OA
ENDBRANCH  10  17
BRANCH  14  18
ATOM     18  O   UNL     1       1.908  10.752  17.379  0.00  0.00    +0.000 OA
ATOM     19  C   UNL     1       2.490  11.964  17.834  0.00  0.00    +0.000 C 
ENDBRANCH  14  18
BRANCH  15  20
ATOM     20  O   UNL     1       0.498  10.309  19.876  0.00  0.00    +0.000 OA
ATOM     21  C   UNL     1      -0.836  10.344  19.394  0.00  0.00    +0.000 C 
ENDBRANCH  15  20
ENDBRANCH   1  12
BRANCH   5  22
ATOM     22  C   UNL     1       1.559   2.206  19.415  0.00  0.00    +0.000 C 
ATOM     23  O   UNL     1       0.463   1.808  19.030  0.00  0.00    +0.000 OA
BRANCH  22  24
ATOM     24  C   UNL     1       1.668   3.047  20.691  0.00  0.00    +0.000 C 
ATOM     25  C   UNL     1       1.203   2.202  21.884  0.00  0.00    +0.000 C 
ATOM     26  C   UNL     1       3.155   3.410  20.893  0.00  0.00    +0.000 C 
ATOM     27  C   UNL     1       0.856   4.341  20.590  0.00  0.00    +0.000 C 
ENDBRANCH  22  24
ENDBRANCH   5  22
TORSDOF 6
ENDMDL
MODEL 2
REMARK VINA RESULT:      -6.7      1.820      4.701
REMARK  Name = 
REMARK  12 active torsions:
REMARK  status: ('A' for Active; 'I' for Inactive)
REMARK    1  A    between atoms: C_1  and  O_2
REMARK    2  A    between atoms: O_2  and  C_3
REMARK    3  A    between atoms: C_5  and  C_6
REMARK    4  A    between atoms: C_10  and  C_11
REMARK    5  A    between atoms: C_11  and  C_13
REMARK    6  A    between atoms: C_13  and  C_14
REMARK    7  A    between atoms: C_13  and  C_15
REMARK    8  A    between atoms: C_13  and  C_16
REMARK    9  A    between atoms: C_21  and  O_22
REMARK   10  A    between atoms: O_22  and  C_23
REMARK   11  A    between atoms: C_24  and  O_25
REMARK   12  A    between atoms: O_25  and  C_26
REMARK                            x       y       z     vdW  Elec       q    Type
REMARK                         _______ _______ _______ _____ _____    ______ ____
ROOT
ATOM      1  C   UNL     1       1.491   5.564  20.528  0.00  0.00    +0.000 C 
ATOM      2  C   UNL     1       2.551   4.798  20.244  0.00  0.00    +0.000 A 
ATOM      3  S   UNL     1       4.093   5.364  19.734  0.00  0.00    +0.000 S 
ATOM      4  C   UNL     1       4.259   3.952  18.744  0.00  0.00    +0.000 A 
ATOM      5  C   UNL     1       4.926   3.874  17.583  0.00  0.00    +0.000 C 
ATOM      6  N   UNL     1       3.491   2.928  19.240  0.00  0.00    +0.000 N 
ATOM      7  C   UNL     1       2.457   3.317  20.068  0.00  0.00    +0.000 A 
ATOM      8  O   UNL     1       1.563   2.595  20.477  0.00  0.00    +0.000 OA
ATOM      9  H   UNL     1       3.451   2.003  18.834  0.00  0.00    +0.000 HD
ENDROOT
BRANCH   1  12
ATOM     10  C   UNL     1       1.453   9.054  19.086  0.00  0.00    +0.000 A 
ATOM     11  C   UNL     1       1.632   7.663  19.215  0.00  0.00    +0.000 A 
ATOM     12  C   UNL     1       1.462   7.027  20.445  0.00  0.00    +0.000 A 
ATOM     13  C   UNL     1       1.229   7.802  21.576  0.00  0.00    +0.000 A 
ATOM     14  C   UNL     1       1.100   9.200  21.486  0.00  0.00    +0.000 A 
ATOM     15  C   UNL     1       1.184   9.844  20.230  0.00  0.00    +0.000 A 
BRANCH  10  17
ATOM     16  C   UNL     1       2.540  10.699  17.756  0.00  0.00    +0.000 C 
ATOM     17  O   UNL     1       1.568   9.663  17.866  0.00  0.00    +0.000 OA
ENDBRANCH  10  17
BRANCH  14  18
ATOM     18  O   UNL     1       0.854   9.742  22.728  0.00  0.00    +0.000 OA
ATOM     19  C   UNL     1      -0.488   9.874  23.174  0.00  0.00    +0.000 C 
ENDBRANCH  14  18
BRANCH  15  20
ATOM     20  O   UNL     1       1.058  11.209  20.233  0.00  0.00    +0.000 OA
ATOM     21  C   UNL     1      -0.218  11.793  20.019  0.00  0.00    +0.000 C 
ENDBRANCH  15  20
ENDBRANCH   1  12
BRANCH   5  22
ATOM     22  C   UNL     1       5.362   5.110  16.853  0.00  0.00    +0.000 C 
ATOM     23  O   UNL     1       4.530   5.804  16.277  0.00  0.00    +0.000 OA
BRANCH  22  24
ATOM     24  C   UNL     1       6.857   5.400  16.682  0.00  0.00    +0.000 C 
ATOM     25  C   UNL     1       7.247   5.157  15.219  0.00  0.00    +0.000 C 
ATOM     26  C   UNL     1       7.091   6.888  17.016  0.00  0.00    +0.000 C 
ATOM     27  C   UNL     1       7.713   4.546  17.623  0.00  0.00    +0.000 C 
ENDBRANCH  22  24
ENDBRANCH   5  22
TORSDOF 6
ENDMDL
MODEL 3
REMARK VINA RESULT:      -6.6      1.806      4.178
REMARK  Name = 
REMARK  12 active torsions:
REMARK  status: ('A' for Active; 'I' for Inactive)
REMARK    1  A    between atoms: C_1  and  O_2
REMARK    2  A    between atoms: O_2  and  C_3
REMARK    3  A    between atoms: C_5  and  C_6
REMARK    4  A    between atoms: C_10  and  C_11
REMARK    5  A    between atoms: C_11  and  C_13
REMARK    6  A    between atoms: C_13  and  C_14
REMARK    7  A    between atoms: C_13  and  C_15
REMARK    8  A    between atoms: C_13  and  C_16
REMARK    9  A    between atoms: C_21  and  O_22
REMARK   10  A    between atoms: O_22  and  C_23
REMARK   11  A    between atoms: C_24  and  O_25
REMARK   12  A    between atoms: O_25  and  C_26
REMARK                            x       y       z     vdW  Elec       q    Type
REMARK                         _______ _______ _______ _____ _____    ______ ____
ROOT
ATOM      1  C   UNL     1       1.688   5.418  20.722  0.00  0.00    +0.000 C 
ATOM      2  C   UNL     1       2.793   4.700  20.489  0.00  0.00    +0.000 A 
ATOM      3  S   UNL     1       4.221   5.274  19.722  0.00  0.00    +0.000 S 
ATOM      4  C   UNL     1       4.447   3.706  19.021  0.00  0.00    +0.000 A 
ATOM      5  C   UNL     1       5.020   3.443  17.837  0.00  0.00    +0.000 C 
ATOM      6  N   UNL     1       3.832   2.747  19.787  0.00  0.00    +0.000 N 
ATOM      7  C   UNL     1       2.837   3.213  20.623  0.00  0.00    +0.000 A 
ATOM      8  O   UNL     1       2.058   2.520  21.257  0.00  0.00    +0.000 OA
ATOM      9  H   UNL     1       3.853   1.758  19.581  0.00  0.00    +0.000 HD
ENDROOT
BRANCH   1  12
ATOM     10  C   UNL     1       0.893   9.100  20.986  0.00  0.00    +0.000 A 
ATOM     11  C   UNL     1       0.938   7.720  21.260  0.00  0.00    +0.000 A 
ATOM     12  C   UNL     1       1.502   6.824  20.352  0.00  0.00    +0.000 A 
ATOM     13  C   UNL     1       1.914   7.295  19.111  0.00  0.00    +0.000 A 
ATOM     14  C   UNL     1       1.831   8.663  18.788  0.00  0.00    +0.000 A 
ATOM     15  C   UNL     1       1.341   9.591  19.735  0.00  0.00    +0.000 A 
BRANCH  10  17
ATOM     16  C   UNL     1       0.077   9.453  23.193  0.00  0.00    +0.000 C 
ATOM     17  O   UNL     1       0.388   9.980  21.905  0.00  0.00    +0.000 OA
ENDBRANCH  10  17
BRANCH  14  18
ATOM     18  O   UNL     1       2.315   8.888  17.518  0.00  0.00    +0.000 OA
ATOM     19  C   UNL     1       3.387   8.093  17.034  0.00  0.00    +0.000 C 
ENDBRANCH  14  18
BRANCH  15  20
ATOM     20  O   UNL     1       1.283  10.900  19.335  0.00  0.00    +0.000 OA
ATOM     21  C   UNL     1       0.083  11.405  18.769  0.00  0.00    +0.000 C 
ENDBRANCH  15  20
ENDBRANCH   1  12
BRANCH   5  22
ATOM     22  C   UNL     1       5.265   4.531  16.835  0.00  0.00    +0.000 C 
ATOM     23  O   UNL     1       4.374   4.857  16.056  0.00  0.00    +0.000 OA
BRANCH  22  24
ATOM     24  C   UNL     1       6.677   5.106  16.672  0.00  0.00    +0.000 C 
ATOM     25  C   UNL     1       7.119   4.932  15.213  0.00  0.00    +0.000 C 
ATOM     26  C   UNL     1       6.614   6.614  16.993  0.00  0.00    +0.000 C 
ATOM     27  C   UNL     1       7.674   4.443  17.626  0.00  0.00    +0.000 C 
ENDBRANCH  22  24
ENDBRANCH   5  22
TORSDOF 6
ENDMDL
MODEL 4
REMARK VINA RESULT:      -6.6      3.174      6.575
REMARK  Name = 
REMARK  12 active torsions:
REMARK  status: ('A' for Active; 'I' for Inactive)
REMARK    1  A    between atoms: C_1  and  O_2
REMARK    2  A    between atoms: O_2  and  C_3
REMARK    3  A    between atoms: C_5  and  C_6
REMARK    4  A    between atoms: C_10  and  C_11
REMARK    5  A    between atoms: C_11  and  C_13
REMARK    6  A    between atoms: C_13  and  C_14
REMARK    7  A    between atoms: C_13  and  C_15
REMARK    8  A    between atoms: C_13  and  C_16
REMARK    9  A    between atoms: C_21  and  O_22
REMARK   10  A    between atoms: O_22  and  C_23
REMARK   11  A    between atoms: C_24  and  O_25
REMARK   12  A    between atoms: O_25  and  C_26
REMARK                            x       y       z     vdW  Elec       q    Type
REMARK                         _______ _______ _______ _____ _____    ______ ____
ROOT
ATOM      1  C   UNL     1       5.828   5.929  18.940  0.00  0.00    +0.000 C 
ATOM      2  C   UNL     1       6.191   6.299  17.706  0.00  0.00    +0.000 A 
ATOM      3  S   UNL     1       5.363   5.901  16.253  0.00  0.00    +0.000 S 
ATOM      4  C   UNL     1       6.887   5.827  15.432  0.00  0.00    +0.000 A 
ATOM      5  C   UNL     1       7.187   5.034  14.392  0.00  0.00    +0.000 C 
ATOM      6  N   UNL     1       7.815   6.606  16.076  0.00  0.00    +0.000 N 
ATOM      7  C   UNL     1       7.529   6.887  17.397  0.00  0.00    +0.000 A 
ATOM      8  O   UNL     1       8.290   7.415  18.193  0.00  0.00    +0.000 OA
ATOM      9  H   UNL     1       8.767   6.731  15.760  0.00  0.00    +0.000 HD
ENDROOT
BRANCH   1  12
ATOM     10  C   UNL     1       3.643   2.902  19.508  0.00  0.00    +0.000 A 
ATOM     11  C   UNL     1       4.692   3.728  19.061  0.00  0.00    +0.000 A 
ATOM     12  C   UNL     1       4.659   5.107  19.264  0.00  0.00    +0.000 A 
ATOM     13  C   UNL     1       3.515   5.678  19.810  0.00  0.00    +0.000 A 
ATOM     14  C   UNL     1       2.427   4.883  20.217  0.00  0.00    +0.000 A 
ATOM     15  C   UNL     1       2.489   3.475  20.094  0.00  0.00    +0.000 A 
BRANCH  10  17
ATOM     16  C   UNL     1       3.827   1.055  18.019  0.00  0.00    +0.000 C 
ATOM     17  O   UNL     1       3.708   1.544  19.353  0.00  0.00    +0.000 OA
ENDBRANCH  10  17
BRANCH  14  18
ATOM     18  O   UNL     1       1.426   5.669  20.743  0.00  0.00    +0.000 OA
ATOM     19  C   UNL     1       1.555   7.082  20.694  0.00  0.00    +0.000 C 
ENDBRANCH  14  18
BRANCH  15  20
ATOM     20  O   UNL     1       1.382   2.777  20.503  0.00  0.00    +0.000 OA
ATOM     21  C   UNL     1       1.229   2.454  21.876  0.00  0.00    +0.000 C 
ENDBRANCH  15  20
ENDBRANCH   1  12
BRANCH   5  22
ATOM     22  C   UNL     1       6.304   3.884  14.012  0.00  0.00    +0.000 C 
ATOM     23  O   UNL     1       5.860   3.141  14.882  0.00  0.00    +0.000 OA
BRANCH  22  24
ATOM     24  C   UNL     1       6.105   3.540  12.532  0.00  0.00    +0.000 C 
ATOM     25  C   UNL     1       4.658   3.861  12.137  0.00  0.00    +0.000 C 
ATOM     26  C   UNL     1       7.053   4.436  11.707  0.00  0.00    +0.000 C 
ATOM     27  C   UNL     1       6.437   2.074  12.239  0.00  0.00    +0.000 C 
ENDBRANCH  22  24
ENDBRANCH   5  22
TORSDOF 6
ENDMDL
MODEL 5
REMARK VINA RESULT:      -6.5      1.234      2.539
REMARK  Name = 
REMARK  12 active torsions:
REMARK  status: ('A' for Active; 'I' for Inactive)
REMARK    1  A    between atoms: C_1  and  O_2
REMARK    2  A    between atoms: O_2  and  C_3
REMARK    3  A    between atoms: C_5  and  C_6
REMARK    4  A    between atoms: C_10  and  C_11
REMARK    5  A    between atoms: C_11  and  C_13
REMARK    6  A    between atoms: C_13  and  C_14
REMARK    7  A    between atoms: C_13  and  C_15
REMARK    8  A    between atoms: C_13  and  C_16
REMARK    9  A    between atoms: C_21  and  O_22
REMARK   10  A    between atoms: O_22  and  C_23
REMARK   11  A    between atoms: C_24  and  O_25
REMARK   12  A    between atoms: O_25  and  C_26
REMARK                            x       y       z     vdW  Elec       q    Type
REMARK                         _______ _______ _______ _____ _____    ______ ____
ROOT
ATOM      1  C   UNL     1       3.406   7.554  17.765  0.00  0.00    +0.000 C 
ATOM      2  C   UNL     1       3.328   6.285  17.346  0.00  0.00    +0.000 A 
ATOM      3  S   UNL     1       1.986   5.232  17.570  0.00  0.00    +0.000 S 
ATOM      4  C   UNL     1       3.084   3.902  17.725  0.00  0.00    +0.000 A 
ATOM      5  C   UNL     1       2.896   2.802  18.471  0.00  0.00    +0.000 C 
ATOM      6  N   UNL     1       4.263   4.177  17.077  0.00  0.00    +0.000 N 
ATOM      7  C   UNL     1       4.514   5.517  16.860  0.00  0.00    +0.000 A 
ATOM      8  O   UNL     1       5.566   5.988  16.458  0.00  0.00    +0.000 OA
ATOM      9  H   UNL     1       5.040   3.534  17.017  0.00  0.00    +0.000 HD
ENDROOT
BRANCH   1  12
ATOM     10  C   UNL     1       0.397   9.721  18.480  0.00  0.00    +0.000 A 
ATOM     11  C   UNL     1       1.506   9.147  17.830  0.00  0.00    +0.000 A 
ATOM     12  C   UNL     1       2.356   8.265  18.499  0.00  0.00    +0.000 A 
ATOM     13  C   UNL     1       2.164   8.050  19.858  0.00  0.00    +0.000 A 
ATOM     14  C   UNL     1       1.095   8.652  20.548  0.00  0.00    +0.000 A 
ATOM     15  C   UNL     1       0.178   9.479  19.858  0.00  0.00    +0.000 A 
BRANCH  10  17
ATOM     16  C   UNL     1      -1.645   9.942  17.280  0.00  0.00    +0.000 C 
ATOM     17  O   UNL     1      -0.462  10.542  17.802  0.00  0.00    +0.000 OA
ENDBRANCH  10  17
BRANCH  14  18
ATOM     18  O   UNL     1       1.101   8.273  21.872  0.00  0.00    +0.000 OA
ATOM     19  C   UNL     1       1.523   9.204  22.858  0.00  0.00    +0.000 C 
ENDBRANCH  14  18
BRANCH  15  20
ATOM     20  O   UNL     1      -0.826  10.035  20.607  0.00  0.00    +0.000 OA
ATOM     21  C   UNL     1      -0.725  11.391  21.014  0.00  0.00    +0.000 C 
ENDBRANCH  15  20
ENDBRANCH   1  12
BRANCH   5  22
ATOM     22  C   UNL     1       1.816   2.745  19.509  0.00  0.00    +0.000 C 
ATOM     23  O   UNL     1       0.648   2.579  19.168  0.00  0.00    +0.000 OA
BRANCH  22  24
ATOM     24  C   UNL     1       2.152   3.068  20.969  0.00  0.00    +0.000 C 
ATOM     25  C   UNL     1       1.104   2.412  21.878  0.00  0.00    +0.000 C 
ATOM     26  C   UNL     1       3.533   2.454  21.284  0.00  0.00    +0.000 C 
ATOM     27  C   UNL     1       2.219   4.578  21.216  0.00  0.00    +0.000 C 
ENDBRANCH  22  24
ENDBRANCH   5  22
TORSDOF 6
ENDMDL
MODEL 6
REMARK VINA RESULT:      -6.5      1.282      1.836
REMARK  Name = 
REMARK  12 active torsions:
REMARK  status: ('A' for Active; 'I' for Inactive)
REMARK    1  A    between atoms: C_1  and  O_2
REMARK    2  A    between atoms: O_2  and  C_3
REMARK    3  A    between atoms: C_5  and  C_6
REMARK    4  A    between atoms: C_10  and  C_11
REMARK    5  A    between atoms: C_11  and  C_13
REMARK    6  A    between atoms: C_13  and  C_14
REMARK    7  A    between atoms: C_13  and  C_15
REMARK    8  A    between atoms: C_13  and  C_16
REMARK    9  A    between atoms: C_21  and  O_22
REMARK   10  A    between atoms: O_22  and  C_23
REMARK   11  A    between atoms: C_24  and  O_25
REMARK   12  A    between atoms: O_25  and  C_26
REMARK                            x       y       z     vdW  Elec       q    Type
REMARK                         _______ _______ _______ _____ _____    ______ ____
ROOT
ATOM      1  C   UNL     1       3.266   7.637  17.875  0.00  0.00    +0.000 C 
ATOM      2  C   UNL     1       3.263   6.377  17.422  0.00  0.00    +0.000 A 
ATOM      3  S   UNL     1       1.981   5.246  17.606  0.00  0.00    +0.000 S 
ATOM      4  C   UNL     1       3.152   3.975  17.735  0.00  0.00    +0.000 A 
ATOM      5  C   UNL     1       3.020   2.847  18.449  0.00  0.00    +0.000 C 
ATOM      6  N   UNL     1       4.317   4.334  17.104  0.00  0.00    +0.000 N 
ATOM      7  C   UNL     1       4.494   5.691  16.926  0.00  0.00    +0.000 A 
ATOM      8  O   UNL     1       5.520   6.231  16.544  0.00  0.00    +0.000 OA
ATOM      9  H   UNL     1       5.129   3.737  17.034  0.00  0.00    +0.000 HD
ENDROOT
BRANCH   1  12
ATOM     10  C   UNL     1       1.066   8.723  20.745  0.00  0.00    +0.000 A 
ATOM     11  C   UNL     1       2.009   8.011  19.980  0.00  0.00    +0.000 A 
ATOM     12  C   UNL     1       2.173   8.268  18.618  0.00  0.00    +0.000 A 
ATOM     13  C   UNL     1       1.306   9.158  17.994  0.00  0.00    +0.000 A 
ATOM     14  C   UNL     1       0.317   9.844  18.724  0.00  0.00    +0.000 A 
ATOM     15  C   UNL     1       0.202   9.653  20.120  0.00  0.00    +0.000 A 
BRANCH  10  17
ATOM     16  C   UNL     1       1.693   9.365  22.949  0.00  0.00    +0.000 C 
ATOM     17  O   UNL     1       0.950   8.503  22.091  0.00  0.00    +0.000 OA
ENDBRANCH  10  17
BRANCH  14  18
ATOM     18  O   UNL     1      -0.400  10.679  17.896  0.00  0.00    +0.000 OA
ATOM     19  C   UNL     1      -1.688  10.277  17.452  0.00  0.00    +0.000 C 
ENDBRANCH  14  18
BRANCH  15  20
ATOM     20  O   UNL     1      -0.795  10.351  20.752  0.00  0.00    +0.000 OA
ATOM     21  C   UNL     1      -0.549  11.680  21.188  0.00  0.00    +0.000 C 
ENDBRANCH  15  20
ENDBRANCH   1  12
BRANCH   5  22
ATOM     22  C   UNL     1       1.938   2.701  19.477  0.00  0.00    +0.000 C 
ATOM     23  O   UNL     1       0.781   2.495  19.120  0.00  0.00    +0.000 OA
BRANCH  22  24
ATOM     24  C   UNL     1       2.251   2.984  20.950  0.00  0.00    +0.000 C 
ATOM     25  C   UNL     1       2.264   4.502  21.173  0.00  0.00    +0.000 C 
ATOM     26  C   UNL     1       1.118   2.369  21.800  0.00  0.00    +0.000 C 
ATOM     27  C   UNL     1       3.581   2.358  21.379  0.00  0.00    +0.000 C 
ENDBRANCH  22  24
ENDBRANCH   5  22
TORSDOF 6
ENDMDL
MODEL 7
REMARK VINA RESULT:      -6.4      1.863      2.635
REMARK  Name = 
REMARK  12 active torsions:
REMARK  status: ('A' for Active; 'I' for Inactive)
REMARK    1  A    between atoms: C_1  and  O_2
REMARK    2  A    between atoms: O_2  and  C_3
REMARK    3  A    between atoms: C_5  and  C_6
REMARK    4  A    between atoms: C_10  and  C_11
REMARK    5  A    between atoms: C_11  and  C_13
REMARK    6  A    between atoms: C_13  and  C_14
REMARK    7  A    between atoms: C_13  and  C_15
REMARK    8  A    between atoms: C_13  and  C_16
REMARK    9  A    between atoms: C_21  and  O_22
REMARK   10  A    between atoms: O_22  and  C_23
REMARK   11  A    between atoms: C_24  and  O_25
REMARK   12  A    between atoms: O_25  and  C_26
REMARK                            x       y       z     vdW  Elec       q    Type
REMARK                         _______ _______ _______ _____ _____    ______ ____
ROOT
ATOM      1  C   UNL     1       2.932   8.643  17.757  0.00  0.00    +0.000 C 
ATOM      2  C   UNL     1       3.152   7.337  17.566  0.00  0.00    +0.000 A 
ATOM      3  S   UNL     1       2.123   6.058  18.078  0.00  0.00    +0.000 S 
ATOM      4  C   UNL     1       3.522   5.075  18.359  0.00  0.00    +0.000 A 
ATOM      5  C   UNL     1       3.642   4.118  19.292  0.00  0.00    +0.000 C 
ATOM      6  N   UNL     1       4.567   5.496  17.575  0.00  0.00    +0.000 N 
ATOM      7  C   UNL     1       4.469   6.795  17.115  0.00  0.00    +0.000 A 
ATOM      8  O   UNL     1       5.354   7.418  16.550  0.00  0.00    +0.000 OA
ATOM      9  H   UNL     1       5.475   5.054  17.557  0.00  0.00    +0.000 HD
ENDROOT
BRANCH   1  12
ATOM     10  C   UNL     1       0.746  10.035  20.503  0.00  0.00    +0.000 A 
ATOM     11  C   UNL     1       1.781   9.354  19.836  0.00  0.00    +0.000 A 
ATOM     12  C   UNL     1       1.770   9.210  18.448  0.00  0.00    +0.000 A 
ATOM     13  C   UNL     1       0.658   9.644  17.737  0.00  0.00    +0.000 A 
ATOM     14  C   UNL     1      -0.417  10.280  18.384  0.00  0.00    +0.000 A 
ATOM     15  C   UNL     1      -0.375  10.509  19.779  0.00  0.00    +0.000 A 
BRANCH  10  17
ATOM     16  C   UNL     1       0.033   9.313  22.655  0.00  0.00    +0.000 C 
ATOM     17  O   UNL     1       0.791  10.220  21.858  0.00  0.00    +0.000 OA
ENDBRANCH  10  17
BRANCH  14  18
ATOM     18  O   UNL     1      -1.386  10.636  17.472  0.00  0.00    +0.000 OA
ATOM     19  C   UNL     1      -2.455   9.739  17.210  0.00  0.00    +0.000 C 
ENDBRANCH  14  18
BRANCH  15  20
ATOM     20  O   UNL     1      -1.468  11.124  20.331  0.00  0.00    +0.000 OA
ATOM     21  C   UNL     1      -1.494  12.539  20.436  0.00  0.00    +0.000 C 
ENDBRANCH  15  20
ENDBRANCH   1  12
BRANCH   5  22
ATOM     22  C   UNL     1       2.656   4.000  20.415  0.00  0.00    +0.000 C 
ATOM     23  O   UNL     1       2.738   4.751  21.382  0.00  0.00    +0.000 OA
BRANCH  22  24
ATOM     24  C   UNL     1       1.663   2.832  20.429  0.00  0.00    +0.000 C 
ATOM     25  C   UNL     1       1.493   2.342  21.873  0.00  0.00    +0.000 C 
ATOM     26  C   UNL     1       0.304   3.360  19.922  0.00  0.00    +0.000 C 
ATOM     27  C   UNL     1       2.117   1.689  19.516  0.00  0.00    +0.000 C 
ENDBRANCH  22  24
ENDBRANCH   5  22
TORSDOF 6
ENDMDL
MODEL 8
REMARK VINA RESULT:      -6.4      1.856      4.722
REMARK  Name = 
REMARK  12 active torsions:
REMARK  status: ('A' for Active; 'I' for Inactive)
REMARK    1  A    between atoms: C_1  and  O_2
REMARK    2  A    between atoms: O_2  and  C_3
REMARK    3  A    between atoms: C_5  and  C_6
REMARK    4  A    between atoms: C_10  and  C_11
REMARK    5  A    between atoms: C_11  and  C_13
REMARK    6  A    between atoms: C_13  and  C_14
REMARK    7  A    between atoms: C_13  and  C_15
REMARK    8  A    between atoms: C_13  and  C_16
REMARK    9  A    between atoms: C_21  and  O_22
REMARK   10  A    between atoms: O_22  and  C_23
REMARK   11  A    between atoms: C_24  and  O_25
REMARK   12  A    between atoms: O_25  and  C_26
REMARK                            x       y       z     vdW  Elec       q    Type
REMARK                         _______ _______ _______ _____ _____    ______ ____
ROOT
ATOM      1  C   UNL     1       1.492   5.472  20.491  0.00  0.00    +0.000 C 
ATOM      2  C   UNL     1       2.556   4.721  20.184  0.00  0.00    +0.000 A 
ATOM      3  S   UNL     1       4.101   5.310  19.712  0.00  0.00    +0.000 S 
ATOM      4  C   UNL     1       4.278   3.941  18.664  0.00  0.00    +0.000 A 
ATOM      5  C   UNL     1       4.955   3.913  17.507  0.00  0.00    +0.000 C 
ATOM      6  N   UNL     1       3.507   2.896  19.110  0.00  0.00    +0.000 N 
ATOM      7  C   UNL     1       2.466   3.249  19.945  0.00  0.00    +0.000 A 
ATOM      8  O   UNL     1       1.569   2.508  20.316  0.00  0.00    +0.000 OA
ATOM      9  H   UNL     1       3.473   1.989  18.666  0.00  0.00    +0.000 HD
ENDROOT
BRANCH   1  12
ATOM     10  C   UNL     1       1.274   9.015  19.203  0.00  0.00    +0.000 A 
ATOM     11  C   UNL     1       1.460   7.621  19.252  0.00  0.00    +0.000 A 
ATOM     12  C   UNL     1       1.460   6.937  20.468  0.00  0.00    +0.000 A 
ATOM     13  C   UNL     1       1.393   7.668  21.649  0.00  0.00    +0.000 A 
ATOM     14  C   UNL     1       1.261   9.069  21.632  0.00  0.00    +0.000 A 
ATOM     15  C   UNL     1       1.173   9.761  20.402  0.00  0.00    +0.000 A 
BRANCH  10  17
ATOM     16  C   UNL     1      -0.076   9.927  17.468  0.00  0.00    +0.000 C 
ATOM     17  O   UNL     1       1.220   9.671  18.003  0.00  0.00    +0.000 OA
ENDBRANCH  10  17
BRANCH  14  18
ATOM     18  O   UNL     1       1.195   9.563  22.916  0.00  0.00    +0.000 OA
ATOM     19  C   UNL     1      -0.056   9.582  23.588  0.00  0.00    +0.000 C 
ENDBRANCH  14  18
BRANCH  15  20
ATOM     20  O   UNL     1       1.057  11.125  20.475  0.00  0.00    +0.000 OA
ATOM     21  C   UNL     1      -0.231  11.712  20.580  0.00  0.00    +0.000 C 
ENDBRANCH  15  20
ENDBRANCH   1  12
BRANCH   5  22
ATOM     22  C   UNL     1       5.395   5.178  16.833  0.00  0.00    +0.000 C 
ATOM     23  O   UNL     1       4.559   5.926  16.334  0.00  0.00    +0.000 OA
BRANCH  22  24
ATOM     24  C   UNL     1       6.889   5.441  16.618  0.00  0.00    +0.000 C 
ATOM     25  C   UNL     1       7.198   6.895  16.996  0.00  0.00    +0.000 C 
ATOM     26  C   UNL     1       7.675   4.507  17.564  0.00  0.00    +0.000 C 
ATOM     27  C   UNL     1       7.315   5.150  15.176  0.00  0.00    +0.000 C 
ENDBRANCH  22  24
ENDBRANCH   5  22
TORSDOF 6
ENDMDL
MODEL 9
REMARK VINA RESULT:      -6.3      6.228     10.192
REMARK  Name = 
REMARK  12 active torsions:
REMARK  status: ('A' for Active; 'I' for Inactive)
REMARK    1  A    between atoms: C_1  and  O_2
REMARK    2  A    between atoms: O_2  and  C_3
REMARK    3  A    between atoms: C_5  and  C_6
REMARK    4  A    between atoms: C_10  and  C_11
REMARK    5  A    between atoms: C_11  and  C_13
REMARK    6  A    between atoms: C_13  and  C_14
REMARK    7  A    between atoms: C_13  and  C_15
REMARK    8  A    between atoms: C_13  and  C_16
REMARK    9  A    between atoms: C_21  and  O_22
REMARK   10  A    between atoms: O_22  and  C_23
REMARK   11  A    between atoms: C_24  and  O_25
REMARK   12  A    between atoms: O_25  and  C_26
REMARK                            x       y       z     vdW  Elec       q    Type
REMARK                         _______ _______ _______ _____ _____    ______ ____
ROOT
ATOM      1  C   UNL     1      -0.942  13.522  20.458  0.00  0.00    +0.000 C 
ATOM      2  C   UNL     1      -1.074  13.620  21.787  0.00  0.00    +0.000 A 
ATOM      3  S   UNL     1      -1.899  12.502  22.801  0.00  0.00    +0.000 S 
ATOM      4  C   UNL     1      -2.392  13.819  23.813  0.00  0.00    +0.000 A 
ATOM      5  C   UNL     1      -3.530  13.889  24.521  0.00  0.00    +0.000 C 
ATOM      6  N   UNL     1      -1.514  14.867  23.694  0.00  0.00    +0.000 N 
ATOM      7  C   UNL     1      -0.752  14.867  22.543  0.00  0.00    +0.000 A 
ATOM      8  O   UNL     1      -0.039  15.781  22.162  0.00  0.00    +0.000 OA
ATOM      9  H   UNL     1      -1.592  15.732  24.211  0.00  0.00    +0.000 HD
ENDROOT
BRANCH   1  12
ATOM     10  C   UNL     1      -3.397  11.421  18.504  0.00  0.00    +0.000 A 
ATOM     11  C   UNL     1      -2.865  12.354  19.414  0.00  0.00    +0.000 A 
ATOM     12  C   UNL     1      -1.490  12.441  19.635  0.00  0.00    +0.000 A 
ATOM     13  C   UNL     1      -0.653  11.509  19.031  0.00  0.00    +0.000 A 
ATOM     14  C   UNL     1      -1.164  10.530  18.158  0.00  0.00    +0.000 A 
ATOM     15  C   UNL     1      -2.545  10.490  17.862  0.00  0.00    +0.000 A 
BRANCH  10  17
ATOM     16  C   UNL     1      -5.212  12.145  17.147  0.00  0.00    +0.000 C 
ATOM     17  O   UNL     1      -4.742  11.379  18.253  0.00  0.00    +0.000 OA
ENDBRANCH  10  17
BRANCH  14  18
ATOM     18  O   UNL     1      -0.145   9.740  17.672  0.00  0.00    +0.000 OA
ATOM     19  C   UNL     1       1.084   9.679  18.381  0.00  0.00    +0.000 C 
ENDBRANCH  14  18
BRANCH  15  20
ATOM     20  O   UNL     1      -2.960   9.498  17.012  0.00  0.00    +0.000 OA
ATOM     21  C   UNL     1      -2.971   9.737  15.613  0.00  0.00    +0.000 C 
ENDBRANCH  15  20
ENDBRANCH   1  12
BRANCH   5  22
ATOM     22  C   UNL     1      -4.661  12.938  24.270  0.00  0.00    +0.000 C 
ATOM     23  O   UNL     1      -4.579  11.776  24.658  0.00  0.00    +0.000 OA
BRANCH  22  24
ATOM     24  C   UNL     1      -5.832  13.372  23.382  0.00  0.00    +0.000 C 
ATOM     25  C   UNL     1      -7.124  12.744  23.920  0.00  0.00    +0.000 C 
ATOM     26  C   UNL     1      -5.952  14.908  23.475  0.00  0.00    +0.000 C 
ATOM     27  C   UNL     1      -5.607  12.986  21.917  0.00  0.00    +0.000 C 
ENDBRANCH  22  24
ENDBRANCH   5  22
TORSDOF 6
ENDMDL
