MODEL 1
REMARK VINA RESULT:      -8.5      0.000      0.000
REMARK  Name = 
REMARK  5 active torsions:
REMARK  status: ('A' for Active; 'I' for Inactive)
REMARK    1  A    between atoms: C_2  and  O_3
REMARK    2  A    between atoms: C_2  and  C_4
REMARK    3  A    between atoms: C_4  and  N_5
REMARK    4  A    between atoms: C_7  and  C_8
REMARK    5  A    between atoms: C_8  and  C_9
REMARK                            x       y       z     vdW  Elec       q    Type
REMARK                         _______ _______ _______ _____ _____    ______ ____
ROOT
ATOM      1  N   UNL     1       5.336   5.350  18.241  0.00  0.00    +0.000 N 
ATOM      2  C   UNL     1       4.935   6.648  18.061  0.00  0.00    +0.000 A 
ATOM      3  C   UNL     1       3.583   6.650  17.771  0.00  0.00    +0.000 A 
ATOM      4  C   UNL     1       3.127   5.302  17.935  0.00  0.00    +0.000 A 
ATOM      5  C   UNL     1       1.863   4.683  17.838  0.00  0.00    +0.000 A 
ATOM      6  C   UNL     1       1.742   3.312  18.076  0.00  0.00    +0.000 A 
ATOM      7  C   UNL     1       2.862   2.548  18.387  0.00  0.00    +0.000 A 
ATOM      8  C   UNL     1       4.131   3.130  18.466  0.00  0.00    +0.000 A 
ATOM      9  C   UNL     1       4.240   4.513  18.243  0.00  0.00    +0.000 A 
ENDROOT
BRANCH   1  10
ATOM     10  C   UNL     1       6.728   4.926  18.335  0.00  0.00    +0.000 C 
BRANCH  10  12
ATOM     11  O   UNL     1       8.160   6.794  18.738  0.00  0.00    +0.000 OA
ATOM     12  C   UNL     1       7.628   5.787  19.186  0.00  0.00    +0.000 C 
BRANCH  12  13
ATOM     13  O   UNL     1       7.822   5.420  20.472  0.00  0.00    +0.000 OA
ATOM     14  H   UNL     1       7.517   4.524  20.718  0.00  0.00    +0.000 HD
ENDBRANCH  12  13
ENDBRANCH  10  12
ENDBRANCH   1  10
BRANCH   3  15
ATOM     15  C   UNL     1       2.744   7.834  17.390  0.00  0.00    +0.000 C 
BRANCH  15  16
ATOM     16  C   UNL     1       1.945   8.391  18.538  0.00  0.00    +0.000 A 
ATOM     17  N   UNL     1       1.947   7.904  19.763  0.00  0.00    +0.000 NA
ATOM     18  C   UNL     1       1.220   8.727  20.610  0.00  0.00    +0.000 A 
ATOM     19  C   UNL     1       1.034   8.537  21.993  0.00  0.00    +0.000 A 
ATOM     20  C   UNL     1       0.325   9.491  22.720  0.00  0.00    +0.000 A 
ATOM     21  F   UNL     1       0.164   9.323  24.040  0.00  0.00    +0.000 F 
ATOM     22  C   UNL     1      -0.211  10.617  22.112  0.00  0.00    +0.000 A 
ATOM     23  C   UNL     1      -0.063  10.815  20.737  0.00  0.00    +0.000 A 
ATOM     24  C   UNL     1       0.657   9.855  20.004  0.00  0.00    +0.000 A 
ATOM     25  S   UNL     1       1.014   9.823  18.320  0.00  0.00    +0.000 S 
ENDBRANCH  15  16
ENDBRANCH   3  15
TORSDOF 5
ENDMDL
MODEL 2
REMARK VINA RESULT:      -8.2      2.117      3.295
REMARK  Name = 
REMARK  5 active torsions:
REMARK  status: ('A' for Active; 'I' for Inactive)
REMARK    1  A    between atoms: C_2  and  O_3
REMARK    2  A    between atoms: C_2  and  C_4
REMARK    3  A    between atoms: C_4  and  N_5
REMARK    4  A    between atoms: C_7  and  C_8
REMARK    5  A    between atoms: C_8  and  C_9
REMARK                            x       y       z     vdW  Elec       q    Type
REMARK                         _______ _______ _______ _____ _____    ______ ____
ROOT
ATOM      1  N   UNL     1       3.851   4.463  18.437  0.00  0.00    +0.000 N 
ATOM      2  C   UNL     1       2.888   5.387  18.120  0.00  0.00    +0.000 A 
ATOM      3  C   UNL     1       3.518   6.558  17.740  0.00  0.00    +0.000 A 
ATOM      4  C   UNL     1       4.920   6.270  17.684  0.00  0.00    +0.000 A 
ATOM      5  C   UNL     1       6.054   7.024  17.316  0.00  0.00    +0.000 A 
ATOM      6  C   UNL     1       7.321   6.436  17.356  0.00  0.00    +0.000 A 
ATOM      7  C   UNL     1       7.474   5.119  17.777  0.00  0.00    +0.000 A 
ATOM      8  C   UNL     1       6.371   4.355  18.171  0.00  0.00    +0.000 A 
ATOM      9  C   UNL     1       5.099   4.950  18.110  0.00  0.00    +0.000 A 
ENDROOT
BRANCH   1  10
ATOM     10  C   UNL     1       3.582   3.190  19.095  0.00  0.00    +0.000 C 
BRANCH  10  12
ATOM     11  O   UNL     1       2.266   2.147  17.398  0.00  0.00    +0.000 OA
ATOM     12  C   UNL     1       3.191   2.046  18.194  0.00  0.00    +0.000 C 
BRANCH  12  13
ATOM     13  O   UNL     1       3.904   0.902  18.280  0.00  0.00    +0.000 OA
ATOM     14  H   UNL     1       4.698   0.843  17.713  0.00  0.00    +0.000 HD
ENDBRANCH  12  13
ENDBRANCH  10  12
ENDBRANCH   1  10
BRANCH   3  15
ATOM     15  C   UNL     1       2.864   7.869  17.419  0.00  0.00    +0.000 C 
BRANCH  15  16
ATOM     16  C   UNL     1       2.003   8.394  18.538  0.00  0.00    +0.000 A 
ATOM     17  N   UNL     1       2.032   7.952  19.780  0.00  0.00    +0.000 NA
ATOM     18  C   UNL     1       1.224   8.737  20.589  0.00  0.00    +0.000 A 
ATOM     19  C   UNL     1       1.037   8.580  21.976  0.00  0.00    +0.000 A 
ATOM     20  C   UNL     1       0.237   9.494  22.661  0.00  0.00    +0.000 A 
ATOM     21  F   UNL     1       0.074   9.358  23.984  0.00  0.00    +0.000 F 
ATOM     22  C   UNL     1      -0.388  10.546  22.007  0.00  0.00    +0.000 A 
ATOM     23  C   UNL     1      -0.239  10.707  20.627  0.00  0.00    +0.000 A 
ATOM     24  C   UNL     1       0.572   9.789  19.937  0.00  0.00    +0.000 A 
ATOM     25  S   UNL     1       0.953   9.730  18.259  0.00  0.00    +0.000 S 
ENDBRANCH  15  16
ENDBRANCH   3  15
TORSDOF 5
ENDMDL
MODEL 3
REMARK VINA RESULT:      -8.1      1.014      1.104
REMARK  Name = 
REMARK  5 active torsions:
REMARK  status: ('A' for Active; 'I' for Inactive)
REMARK    1  A    between atoms: C_2  and  O_3
REMARK    2  A    between atoms: C_2  and  C_4
REMARK    3  A    between atoms: C_4  and  N_5
REMARK    4  A    between atoms: C_7  and  C_8
REMARK    5  A    between atoms: C_8  and  C_9
REMARK                            x       y       z     vdW  Elec       q    Type
REMARK                         _______ _______ _______ _____ _____    ______ ____
ROOT
ATOM      1  N   UNL     1       5.050   5.215  18.526  0.00  0.00    +0.000 N 
ATOM      2  C   UNL     1       4.728   6.536  18.357  0.00  0.00    +0.000 A 
ATOM      3  C   UNL     1       3.409   6.613  17.949  0.00  0.00    +0.000 A 
ATOM      4  C   UNL     1       2.879   5.285  18.023  0.00  0.00    +0.000 A 
ATOM      5  C   UNL     1       1.602   4.732  17.792  0.00  0.00    +0.000 A 
ATOM      6  C   UNL     1       1.396   3.362  17.970  0.00  0.00    +0.000 A 
ATOM      7  C   UNL     1       2.446   2.534  18.352  0.00  0.00    +0.000 A 
ATOM      8  C   UNL     1       3.729   3.051  18.564  0.00  0.00    +0.000 A 
ATOM      9  C   UNL     1       3.921   4.433  18.401  0.00  0.00    +0.000 A 
ENDROOT
BRANCH   1  10
ATOM     10  C   UNL     1       6.407   4.720  18.729  0.00  0.00    +0.000 C 
BRANCH  10  12
ATOM     11  O   UNL     1       6.769   4.720  16.369  0.00  0.00    +0.000 OA
ATOM     12  C   UNL     1       7.217   4.474  17.481  0.00  0.00    +0.000 C 
BRANCH  12  13
ATOM     13  O   UNL     1       8.468   3.983  17.626  0.00  0.00    +0.000 OA
ATOM     14  H   UNL     1       8.836   3.501  16.860  0.00  0.00    +0.000 HD
ENDBRANCH  12  13
ENDBRANCH  10  12
ENDBRANCH   1  10
BRANCH   3  15
ATOM     15  C   UNL     1       2.664   7.848  17.536  0.00  0.00    +0.000 C 
BRANCH  15  16
ATOM     16  C   UNL     1       1.835   8.441  18.645  0.00  0.00    +0.000 A 
ATOM     17  N   UNL     1       1.812   7.998  19.886  0.00  0.00    +0.000 NA
ATOM     18  C   UNL     1       1.061   8.846  20.686  0.00  0.00    +0.000 A 
ATOM     19  C   UNL     1       0.844   8.704  22.071  0.00  0.00    +0.000 A 
ATOM     20  C   UNL     1       0.113   9.679  22.747  0.00  0.00    +0.000 A 
ATOM     21  F   UNL     1      -0.077   9.557  24.068  0.00  0.00    +0.000 F 
ATOM     22  C   UNL     1      -0.416  10.779  22.087  0.00  0.00    +0.000 A 
ATOM     23  C   UNL     1      -0.237  10.928  20.710  0.00  0.00    +0.000 A 
ATOM     24  C   UNL     1       0.505   9.947  20.028  0.00  0.00    +0.000 A 
ATOM     25  S   UNL     1       0.901   9.858  18.355  0.00  0.00    +0.000 S 
ENDBRANCH  15  16
ENDBRANCH   3  15
TORSDOF 5
ENDMDL
MODEL 4
REMARK VINA RESULT:      -7.9      1.131      1.482
REMARK  Name = 
REMARK  5 active torsions:
REMARK  status: ('A' for Active; 'I' for Inactive)
REMARK    1  A    between atoms: C_2  and  O_3
REMARK    2  A    between atoms: C_2  and  C_4
REMARK    3  A    between atoms: C_4  and  N_5
REMARK    4  A    between atoms: C_7  and  C_8
REMARK    5  A    between atoms: C_8  and  C_9
REMARK                            x       y       z     vdW  Elec       q    Type
REMARK                         _______ _______ _______ _____ _____    ______ ____
ROOT
ATOM      1  N   UNL     1       5.094   5.153  18.326  0.00  0.00    +0.000 N 
ATOM      2  C   UNL     1       4.672   6.453  18.221  0.00  0.00    +0.000 A 
ATOM      3  C   UNL     1       3.316   6.450  17.952  0.00  0.00    +0.000 A 
ATOM      4  C   UNL     1       2.882   5.089  18.050  0.00  0.00    +0.000 A 
ATOM      5  C   UNL     1       1.625   4.457  17.939  0.00  0.00    +0.000 A 
ATOM      6  C   UNL     1       1.526   3.074  18.106  0.00  0.00    +0.000 A 
ATOM      7  C   UNL     1       2.662   2.311  18.360  0.00  0.00    +0.000 A 
ATOM      8  C   UNL     1       3.924   2.907  18.451  0.00  0.00    +0.000 A 
ATOM      9  C   UNL     1       4.010   4.301  18.300  0.00  0.00    +0.000 A 
ENDROOT
BRANCH   1  10
ATOM     10  C   UNL     1       6.493   4.746  18.377  0.00  0.00    +0.000 C 
BRANCH  10  12
ATOM     11  O   UNL     1       7.909   6.664  18.490  0.00  0.00    +0.000 OA
ATOM     12  C   UNL     1       7.436   5.696  19.071  0.00  0.00    +0.000 C 
BRANCH  12  13
ATOM     13  O   UNL     1       7.737   5.455  20.366  0.00  0.00    +0.000 OA
ATOM     14  H   UNL     1       7.327   6.049  21.024  0.00  0.00    +0.000 HD
ENDBRANCH  12  13
ENDBRANCH  10  12
ENDBRANCH   1  10
BRANCH   3  15
ATOM     15  C   UNL     1       2.455   7.640  17.646  0.00  0.00    +0.000 C 
BRANCH  15  16
ATOM     16  C   UNL     1       1.914   8.316  18.879  0.00  0.00    +0.000 A 
ATOM     17  N   UNL     1       1.408   9.533  18.909  0.00  0.00    +0.000 NA
ATOM     18  C   UNL     1       0.873   9.800  20.160  0.00  0.00    +0.000 A 
ATOM     19  C   UNL     1       0.222  10.988  20.547  0.00  0.00    +0.000 A 
ATOM     20  C   UNL     1      -0.319  11.080  21.828  0.00  0.00    +0.000 A 
ATOM     21  F   UNL     1      -0.955  12.201  22.192  0.00  0.00    +0.000 F 
ATOM     22  C   UNL     1      -0.221  10.034  22.735  0.00  0.00    +0.000 A 
ATOM     23  C   UNL     1       0.443   8.856  22.384  0.00  0.00    +0.000 A 
ATOM     24  C   UNL     1       0.984   8.762  21.089  0.00  0.00    +0.000 A 
ATOM     25  S   UNL     1       1.839   7.453  20.366  0.00  0.00    +0.000 S 
ENDBRANCH  15  16
ENDBRANCH   3  15
TORSDOF 5
ENDMDL
MODEL 5
REMARK VINA RESULT:      -7.8      2.702      3.451
REMARK  Name = 
REMARK  5 active torsions:
REMARK  status: ('A' for Active; 'I' for Inactive)
REMARK    1  A    between atoms: C_2  and  O_3
REMARK    2  A    between atoms: C_2  and  C_4
REMARK    3  A    between atoms: C_4  and  N_5
REMARK    4  A    between atoms: C_7  and  C_8
REMARK    5  A    between atoms: C_8  and  C_9
REMARK                            x       y       z     vdW  Elec       q    Type
REMARK                         _______ _______ _______ _____ _____    ______ ____
ROOT
ATOM      1  N   UNL     1       2.976   4.515  18.375  0.00  0.00    +0.000 N 
ATOM      2  C   UNL     1       2.372   5.739  18.503  0.00  0.00    +0.000 A 
ATOM      3  C   UNL     1       3.096   6.659  17.766  0.00  0.00    +0.000 A 
ATOM      4  C   UNL     1       4.089   5.919  17.047  0.00  0.00    +0.000 A 
ATOM      5  C   UNL     1       5.076   6.276  16.105  0.00  0.00    +0.000 A 
ATOM      6  C   UNL     1       5.903   5.290  15.559  0.00  0.00    +0.000 A 
ATOM      7  C   UNL     1       5.775   3.963  15.955  0.00  0.00    +0.000 A 
ATOM      8  C   UNL     1       4.821   3.584  16.906  0.00  0.00    +0.000 A 
ATOM      9  C   UNL     1       3.982   4.579  17.434  0.00  0.00    +0.000 A 
ENDROOT
BRANCH   1  10
ATOM     10  C   UNL     1       2.642   3.347  19.182  0.00  0.00    +0.000 C 
BRANCH  10  12
ATOM     11  O   UNL     1       0.632   2.347  18.370  0.00  0.00    +0.000 OA
ATOM     12  C   UNL     1       1.179   2.988  19.257  0.00  0.00    +0.000 C 
BRANCH  12  13
ATOM     13  O   UNL     1       0.486   3.386  20.347  0.00  0.00    +0.000 OA
ATOM     14  H   UNL     1       0.858   4.140  20.845  0.00  0.00    +0.000 HD
ENDBRANCH  12  13
ENDBRANCH  10  12
ENDBRANCH   1  10
BRANCH   3  15
ATOM     15  C   UNL     1       2.871   8.141  17.705  0.00  0.00    +0.000 C 
BRANCH  15  16
ATOM     16  C   UNL     1       1.932   8.644  18.770  0.00  0.00    +0.000 A 
ATOM     17  N   UNL     1       1.930   8.239  20.024  0.00  0.00    +0.000 NA
ATOM     18  C   UNL     1       1.042   8.996  20.774  0.00  0.00    +0.000 A 
ATOM     19  C   UNL     1       0.802   8.865  22.156  0.00  0.00    +0.000 A 
ATOM     20  C   UNL     1      -0.080   9.748  22.778  0.00  0.00    +0.000 A 
ATOM     21  F   UNL     1      -0.295   9.639  24.095  0.00  0.00    +0.000 F 
ATOM     22  C   UNL     1      -0.735  10.743  22.066  0.00  0.00    +0.000 A 
ATOM     23  C   UNL     1      -0.534  10.875  20.690  0.00  0.00    +0.000 A 
ATOM     24  C   UNL     1       0.360   9.989  20.064  0.00  0.00    +0.000 A 
ATOM     25  S   UNL     1       0.820   9.907  18.406  0.00  0.00    +0.000 S 
ENDBRANCH  15  16
ENDBRANCH   3  15
TORSDOF 5
ENDMDL
MODEL 6
REMARK VINA RESULT:      -7.8      1.671      3.015
REMARK  Name = 
REMARK  5 active torsions:
REMARK  status: ('A' for Active; 'I' for Inactive)
REMARK    1  A    between atoms: C_2  and  O_3
REMARK    2  A    between atoms: C_2  and  C_4
REMARK    3  A    between atoms: C_4  and  N_5
REMARK    4  A    between atoms: C_7  and  C_8
REMARK    5  A    between atoms: C_8  and  C_9
REMARK                            x       y       z     vdW  Elec       q    Type
REMARK                         _______ _______ _______ _____ _____    ______ ____
ROOT
ATOM      1  N   UNL     1       3.933   4.458  18.063  0.00  0.00    +0.000 N 
ATOM      2  C   UNL     1       2.989   5.386  17.706  0.00  0.00    +0.000 A 
ATOM      3  C   UNL     1       3.611   6.615  17.585  0.00  0.00    +0.000 A 
ATOM      4  C   UNL     1       5.016   6.379  17.729  0.00  0.00    +0.000 A 
ATOM      5  C   UNL     1       6.155   7.208  17.653  0.00  0.00    +0.000 A 
ATOM      6  C   UNL     1       7.427   6.658  17.831  0.00  0.00    +0.000 A 
ATOM      7  C   UNL     1       7.577   5.303  18.106  0.00  0.00    +0.000 A 
ATOM      8  C   UNL     1       6.465   4.462  18.212  0.00  0.00    +0.000 A 
ATOM      9  C   UNL     1       5.191   5.021  18.012  0.00  0.00    +0.000 A 
ENDROOT
BRANCH   1  10
ATOM     10  C   UNL     1       3.626   3.103  18.504  0.00  0.00    +0.000 C 
BRANCH  10  12
ATOM     11  O   UNL     1       3.192   3.178  20.851  0.00  0.00    +0.000 OA
ATOM     12  C   UNL     1       3.925   2.792  19.949  0.00  0.00    +0.000 C 
BRANCH  12  13
ATOM     13  O   UNL     1       5.025   2.057  20.224  0.00  0.00    +0.000 OA
ATOM     14  H   UNL     1       5.505   2.285  21.044  0.00  0.00    +0.000 HD
ENDBRANCH  12  13
ENDBRANCH  10  12
ENDBRANCH   1  10
BRANCH   3  15
ATOM     15  C   UNL     1       2.951   7.937  17.323  0.00  0.00    +0.000 C 
BRANCH  15  16
ATOM     16  C   UNL     1       2.074   8.399  18.457  0.00  0.00    +0.000 A 
ATOM     17  N   UNL     1       2.162   7.967  19.700  0.00  0.00    +0.000 NA
ATOM     18  C   UNL     1       1.311   8.691  20.522  0.00  0.00    +0.000 A 
ATOM     19  C   UNL     1       1.165   8.527  21.913  0.00  0.00    +0.000 A 
ATOM     20  C   UNL     1       0.310   9.379  22.610  0.00  0.00    +0.000 A 
ATOM     21  F   UNL     1       0.184   9.238  23.937  0.00  0.00    +0.000 F 
ATOM     22  C   UNL     1      -0.409  10.375  21.965  0.00  0.00    +0.000 A 
ATOM     23  C   UNL     1      -0.301  10.540  20.582  0.00  0.00    +0.000 A 
ATOM     24  C   UNL     1       0.566   9.684  19.879  0.00  0.00    +0.000 A 
ATOM     25  S   UNL     1       0.917   9.646  18.194  0.00  0.00    +0.000 S 
ENDBRANCH  15  16
ENDBRANCH   3  15
TORSDOF 5
ENDMDL
MODEL 7
REMARK VINA RESULT:      -7.6      5.277      8.193
REMARK  Name = 
REMARK  5 active torsions:
REMARK  status: ('A' for Active; 'I' for Inactive)
REMARK    1  A    between atoms: C_2  and  O_3
REMARK    2  A    between atoms: C_2  and  C_4
REMARK    3  A    between atoms: C_4  and  N_5
REMARK    4  A    between atoms: C_7  and  C_8
REMARK    5  A    between atoms: C_8  and  C_9
REMARK                            x       y       z     vdW  Elec       q    Type
REMARK                         _______ _______ _______ _____ _____    ______ ____
ROOT
ATOM      1  N   UNL     1       3.759   4.098  19.727  0.00  0.00    +0.000 N 
ATOM      2  C   UNL     1       5.053   3.782  19.404  0.00  0.00    +0.000 A 
ATOM      3  C   UNL     1       5.517   4.720  18.499  0.00  0.00    +0.000 A 
ATOM      4  C   UNL     1       4.502   5.725  18.395  0.00  0.00    +0.000 A 
ATOM      5  C   UNL     1       4.406   6.943  17.689  0.00  0.00    +0.000 A 
ATOM      6  C   UNL     1       3.257   7.728  17.811  0.00  0.00    +0.000 A 
ATOM      7  C   UNL     1       2.196   7.307  18.607  0.00  0.00    +0.000 A 
ATOM      8  C   UNL     1       2.253   6.093  19.299  0.00  0.00    +0.000 A 
ATOM      9  C   UNL     1       3.420   5.320  19.184  0.00  0.00    +0.000 A 
ENDROOT
BRANCH   1  10
ATOM     10  C   UNL     1       2.862   3.222  20.471  0.00  0.00    +0.000 C 
BRANCH  10  12
ATOM     11  O   UNL     1       0.619   2.883  19.724  0.00  0.00    +0.000 OA
ATOM     12  C   UNL     1       1.790   2.531  19.666  0.00  0.00    +0.000 C 
BRANCH  12  13
ATOM     13  O   UNL     1       2.164   1.512  18.860  0.00  0.00    +0.000 OA
ATOM     14  H   UNL     1       2.145   0.618  19.255  0.00  0.00    +0.000 HD
ENDBRANCH  12  13
ENDBRANCH  10  12
ENDBRANCH   1  10
BRANCH   3  15
ATOM     15  C   UNL     1       6.836   4.708  17.786  0.00  0.00    +0.000 C 
BRANCH  15  16
ATOM     16  C   UNL     1       6.702   4.644  16.287  0.00  0.00    +0.000 A 
ATOM     17  N   UNL     1       7.372   5.398  15.438  0.00  0.00    +0.000 NA
ATOM     18  C   UNL     1       7.123   4.994  14.135  0.00  0.00    +0.000 A 
ATOM     19  C   UNL     1       7.691   5.550  12.972  0.00  0.00    +0.000 A 
ATOM     20  C   UNL     1       7.386   4.989  11.733  0.00  0.00    +0.000 A 
ATOM     21  F   UNL     1       7.941   5.503  10.627  0.00  0.00    +0.000 F 
ATOM     22  C   UNL     1       6.528   3.906  11.618  0.00  0.00    +0.000 A 
ATOM     23  C   UNL     1       5.931   3.354  12.754  0.00  0.00    +0.000 A 
ATOM     24  C   UNL     1       6.243   3.916  14.004  0.00  0.00    +0.000 A 
ATOM     25  S   UNL     1       5.684   3.458  15.567  0.00  0.00    +0.000 S 
ENDBRANCH  15  16
ENDBRANCH   3  15
TORSDOF 5
ENDMDL
MODEL 8
REMARK VINA RESULT:      -7.5      1.861      2.754
REMARK  Name = 
REMARK  5 active torsions:
REMARK  status: ('A' for Active; 'I' for Inactive)
REMARK    1  A    between atoms: C_2  and  O_3
REMARK    2  A    between atoms: C_2  and  C_4
REMARK    3  A    between atoms: C_4  and  N_5
REMARK    4  A    between atoms: C_7  and  C_8
REMARK    5  A    between atoms: C_8  and  C_9
REMARK                            x       y       z     vdW  Elec       q    Type
REMARK                         _______ _______ _______ _____ _____    ______ ____
ROOT
ATOM      1  N   UNL     1       6.803   5.737  18.403  0.00  0.00    +0.000 N 
ATOM      2  C   UNL     1       5.747   5.616  19.269  0.00  0.00    +0.000 A 
ATOM      3  C   UNL     1       4.664   5.120  18.566  0.00  0.00    +0.000 A 
ATOM      4  C   UNL     1       5.141   4.790  17.257  0.00  0.00    +0.000 A 
ATOM      5  C   UNL     1       4.541   4.207  16.121  0.00  0.00    +0.000 A 
ATOM      6  C   UNL     1       5.300   3.997  14.966  0.00  0.00    +0.000 A 
ATOM      7  C   UNL     1       6.636   4.380  14.921  0.00  0.00    +0.000 A 
ATOM      8  C   UNL     1       7.250   4.983  16.024  0.00  0.00    +0.000 A 
ATOM      9  C   UNL     1       6.485   5.172  17.186  0.00  0.00    +0.000 A 
ENDROOT
BRANCH   1  10
ATOM     10  C   UNL     1       8.044   6.435  18.716  0.00  0.00    +0.000 C 
BRANCH  10  12
ATOM     11  O   UNL     1       7.590   8.237  17.217  0.00  0.00    +0.000 OA
ATOM     12  C   UNL     1       8.138   7.865  18.246  0.00  0.00    +0.000 C 
BRANCH  12  13
ATOM     13  O   UNL     1       8.840   8.735  19.006  0.00  0.00    +0.000 OA
ATOM     14  H   UNL     1       9.124   9.561  18.568  0.00  0.00    +0.000 HD
ENDBRANCH  12  13
ENDBRANCH  10  12
ENDBRANCH   1  10
BRANCH   3  15
ATOM     15  C   UNL     1       3.267   4.933  19.079  0.00  0.00    +0.000 C 
BRANCH  15  16
ATOM     16  C   UNL     1       2.548   6.232  19.333  0.00  0.00    +0.000 A 
ATOM     17  N   UNL     1       2.019   6.586  20.488  0.00  0.00    +0.000 NA
ATOM     18  C   UNL     1       1.558   7.893  20.426  0.00  0.00    +0.000 A 
ATOM     19  C   UNL     1       0.964   8.613  21.480  0.00  0.00    +0.000 A 
ATOM     20  C   UNL     1       0.609   9.946  21.276  0.00  0.00    +0.000 A 
ATOM     21  F   UNL     1       0.062  10.639  22.283  0.00  0.00    +0.000 F 
ATOM     22  C   UNL     1       0.817  10.575  20.057  0.00  0.00    +0.000 A 
ATOM     23  C   UNL     1       1.381   9.874  18.988  0.00  0.00    +0.000 A 
ATOM     24  C   UNL     1       1.744   8.531  19.196  0.00  0.00    +0.000 A 
ATOM     25  S   UNL     1       2.459   7.420  18.091  0.00  0.00    +0.000 S 
ENDBRANCH  15  16
ENDBRANCH   3  15
TORSDOF 5
ENDMDL
MODEL 9
REMARK VINA RESULT:      -7.4      2.771      3.834
REMARK  Name = 
REMARK  5 active torsions:
REMARK  status: ('A' for Active; 'I' for Inactive)
REMARK    1  A    between atoms: C_2  and  O_3
REMARK    2  A    between atoms: C_2  and  C_4
REMARK    3  A    between atoms: C_4  and  N_5
REMARK    4  A    between atoms: C_7  and  C_8
REMARK    5  A    between atoms: C_8  and  C_9
REMARK                            x       y       z     vdW  Elec       q    Type
REMARK                         _______ _______ _______ _____ _____    ______ ____
ROOT
ATOM      1  N   UNL     1       2.980   4.542  18.618  0.00  0.00    +0.000 N 
ATOM      2  C   UNL     1       2.086   5.557  18.401  0.00  0.00    +0.000 A 
ATOM      3  C   UNL     1       2.793   6.689  18.036  0.00  0.00    +0.000 A 
ATOM      4  C   UNL     1       4.159   6.287  17.883  0.00  0.00    +0.000 A 
ATOM      5  C   UNL     1       5.332   6.959  17.481  0.00  0.00    +0.000 A 
ATOM      6  C   UNL     1       6.543   6.265  17.418  0.00  0.00    +0.000 A 
ATOM      7  C   UNL     1       6.605   4.921  17.771  0.00  0.00    +0.000 A 
ATOM      8  C   UNL     1       5.462   4.235  18.197  0.00  0.00    +0.000 A 
ATOM      9  C   UNL     1       4.246   4.937  18.239  0.00  0.00    +0.000 A 
ENDROOT
BRANCH   1  10
ATOM     10  C   UNL     1       2.639   3.266  19.235  0.00  0.00    +0.000 C 
BRANCH  10  12
ATOM     11  O   UNL     1       0.576   2.395  18.408  0.00  0.00    +0.000 OA
ATOM     12  C   UNL     1       1.169   2.945  19.327  0.00  0.00    +0.000 C 
BRANCH  12  13
ATOM     13  O   UNL     1       0.521   3.270  20.468  0.00  0.00    +0.000 OA
ATOM     14  H   UNL     1       0.018   2.553  20.900  0.00  0.00    +0.000 HD
ENDBRANCH  12  13
ENDBRANCH  10  12
ENDBRANCH   1  10
BRANCH   3  15
ATOM     15  C   UNL     1       2.238   8.065  17.812  0.00  0.00    +0.000 C 
BRANCH  15  16
ATOM     16  C   UNL     1       1.653   8.679  19.056  0.00  0.00    +0.000 A 
ATOM     17  N   UNL     1       0.986   9.816  19.092  0.00  0.00    +0.000 NA
ATOM     18  C   UNL     1       0.464  10.028  20.359  0.00  0.00    +0.000 A 
ATOM     19  C   UNL     1      -0.330  11.122  20.756  0.00  0.00    +0.000 A 
ATOM     20  C   UNL     1      -0.833  11.160  22.056  0.00  0.00    +0.000 A 
ATOM     21  F   UNL     1      -1.604  12.189  22.430  0.00  0.00    +0.000 F 
ATOM     22  C   UNL     1      -0.562  10.152  22.969  0.00  0.00    +0.000 A 
ATOM     23  C   UNL     1       0.245   9.070  22.607  0.00  0.00    +0.000 A 
ATOM     24  C   UNL     1       0.748   9.029  21.295  0.00  0.00    +0.000 A 
ATOM     25  S   UNL     1       1.748   7.838  20.555  0.00  0.00    +0.000 S 
ENDBRANCH  15  16
ENDBRANCH   3  15
TORSDOF 5
ENDMDL
