MODEL 1
REMARK VINA RESULT:      -8.1      0.000      0.000
REMARK  Name = 
REMARK  5 active torsions:
REMARK  status: ('A' for Active; 'I' for Inactive)
REMARK    1  A    between atoms: N_1  and  C_2
REMARK    2  A    between atoms: C_4  and  C_5
REMARK    3  A    between atoms: C_12  and  S_13
REMARK    4  A    between atoms: S_13  and  N_16
REMARK    5  A    between atoms: N_16  and  C_17
REMARK                            x       y       z     vdW  Elec       q    Type
REMARK                         _______ _______ _______ _____ _____    ______ ____
ROOT
ATOM      1  C   UNL     1       3.369   3.776  17.698  0.00  0.00    +0.000 A 
ATOM      2  C   UNL     1       2.664   4.863  18.238  0.00  0.00    +0.000 A 
ATOM      3  C   UNL     1       3.227   6.150  18.303  0.00  0.00    +0.000 A 
ATOM      4  C   UNL     1       4.504   6.348  17.768  0.00  0.00    +0.000 A 
ATOM      5  C   UNL     1       5.191   5.282  17.183  0.00  0.00    +0.000 A 
ATOM      6  C   UNL     1       4.627   4.002  17.141  0.00  0.00    +0.000 A 
ENDROOT
BRANCH   3   7
ATOM      7  C   UNL     1       2.479   7.275  18.878  0.00  0.00    +0.000 A 
ATOM      8  C   UNL     1       2.054   8.361  18.213  0.00  0.00    +0.000 A 
ATOM      9  S   UNL     1       1.190   9.460  19.253  0.00  0.00    +0.000 S 
ATOM     10  C   UNL     1       1.427   8.392  20.639  0.00  0.00    +0.000 A 
ATOM     11  O   UNL     1       1.023   8.601  21.764  0.00  0.00    +0.000 OA
ATOM     12  N   UNL     1       2.136   7.300  20.207  0.00  0.00    +0.000 N 
ATOM     13  H   UNL     1       2.346   6.560  20.860  0.00  0.00    +0.000 HD
ENDBRANCH   3   7
BRANCH   1  14
ATOM     14  N   UNL     1       2.714   2.554  17.505  0.00  0.00    +0.000 N 
ATOM     15  H   UNL     1       3.127   1.958  16.793  0.00  0.00    +0.000 HD
ATOM     16  H   UNL     1       1.705   2.623  17.406  0.00  0.00    +0.000 HD
ENDBRANCH   1  14
BRANCH   5  17
ATOM     17  S   UNL     1       6.802   5.591  16.508  0.00  0.00    +0.000 S 
ATOM     18  O   UNL     1       7.209   6.897  16.967  0.00  0.00    +0.000 OA
ATOM     19  O   UNL     1       7.632   4.421  16.710  0.00  0.00    +0.000 OA
BRANCH  17  20
ATOM     20  N   UNL     1       6.510   5.749  14.844  0.00  0.00    +0.000 NA
ATOM     21  H   UNL     1       6.939   6.613  14.508  0.00  0.00    +0.000 HD
BRANCH  20  22
ATOM     22  C   UNL     1       6.705   4.563  13.997  0.00  0.00    +0.000 C 
ATOM     23  C   UNL     1       5.400   4.007  13.449  0.00  0.00    +0.000 C 
ATOM     24  C   UNL     1       5.851   3.095  12.323  0.00  0.00    +0.000 C 
ATOM     25  C   UNL     1       7.121   3.737  11.767  0.00  0.00    +0.000 C 
ATOM     26  C   UNL     1       7.465   4.892  12.713  0.00  0.00    +0.000 C 
ENDBRANCH  20  22
ENDBRANCH  17  20
ENDBRANCH   5  17
TORSDOF 5
ENDMDL
MODEL 2
REMARK VINA RESULT:      -7.9      2.839      7.202
REMARK  Name = 
REMARK  5 active torsions:
REMARK  status: ('A' for Active; 'I' for Inactive)
REMARK    1  A    between atoms: N_1  and  C_2
REMARK    2  A    between atoms: C_4  and  C_5
REMARK    3  A    between atoms: C_12  and  S_13
REMARK    4  A    between atoms: S_13  and  N_16
REMARK    5  A    between atoms: N_16  and  C_17
REMARK                            x       y       z     vdW  Elec       q    Type
REMARK                         _______ _______ _______ _____ _____    ______ ____
ROOT
ATOM      1  C   UNL     1       7.172   5.185  18.982  0.00  0.00    +0.000 A 
ATOM      2  C   UNL     1       7.402   5.045  17.605  0.00  0.00    +0.000 A 
ATOM      3  C   UNL     1       6.351   4.807  16.701  0.00  0.00    +0.000 A 
ATOM      4  C   UNL     1       5.044   4.759  17.194  0.00  0.00    +0.000 A 
ATOM      5  C   UNL     1       4.802   4.948  18.557  0.00  0.00    +0.000 A 
ATOM      6  C   UNL     1       5.858   5.166  19.449  0.00  0.00    +0.000 A 
ENDROOT
BRANCH   3   7
ATOM      7  C   UNL     1       6.609   4.656  15.264  0.00  0.00    +0.000 A 
ATOM      8  C   UNL     1       6.032   3.758  14.449  0.00  0.00    +0.000 A 
ATOM      9  S   UNL     1       6.599   3.913  12.809  0.00  0.00    +0.000 S 
ATOM     10  C   UNL     1       7.661   5.248  13.264  0.00  0.00    +0.000 A 
ATOM     11  O   UNL     1       8.390   5.856  12.507  0.00  0.00    +0.000 OA
ATOM     12  N   UNL     1       7.504   5.466  14.609  0.00  0.00    +0.000 N 
ATOM     13  H   UNL     1       8.015   6.216  15.049  0.00  0.00    +0.000 HD
ENDBRANCH   3   7
BRANCH   1  14
ATOM     14  N   UNL     1       8.220   5.581  19.822  0.00  0.00    +0.000 N 
ATOM     15  H   UNL     1       8.249   5.105  20.719  0.00  0.00    +0.000 HD
ATOM     16  H   UNL     1       8.331   6.586  19.919  0.00  0.00    +0.000 HD
ENDBRANCH   1  14
BRANCH   5  17
ATOM     17  S   UNL     1       3.124   4.890  19.128  0.00  0.00    +0.000 S 
ATOM     18  O   UNL     1       2.281   4.866  17.958  0.00  0.00    +0.000 OA
ATOM     19  O   UNL     1       3.012   3.887  20.168  0.00  0.00    +0.000 OA
BRANCH  17  20
ATOM     20  N   UNL     1       2.896   6.414  19.840  0.00  0.00    +0.000 NA
ATOM     21  H   UNL     1       3.797   6.774  20.160  0.00  0.00    +0.000 HD
BRANCH  20  22
ATOM     22  C   UNL     1       2.032   7.375  19.138  0.00  0.00    +0.000 C 
ATOM     23  C   UNL     1       1.546   8.500  20.040  0.00  0.00    +0.000 C 
ATOM     24  C   UNL     1       1.049   9.547  19.060  0.00  0.00    +0.000 C 
ATOM     25  C   UNL     1       1.936   9.400  17.826  0.00  0.00    +0.000 C 
ATOM     26  C   UNL     1       2.789   8.149  18.060  0.00  0.00    +0.000 C 
ENDBRANCH  20  22
ENDBRANCH  17  20
ENDBRANCH   5  17
TORSDOF 5
ENDMDL
MODEL 3
REMARK VINA RESULT:      -7.8      1.087      1.203
REMARK  Name = 
REMARK  5 active torsions:
REMARK  status: ('A' for Active; 'I' for Inactive)
REMARK    1  A    between atoms: N_1  and  C_2
REMARK    2  A    between atoms: C_4  and  C_5
REMARK    3  A    between atoms: C_12  and  S_13
REMARK    4  A    between atoms: S_13  and  N_16
REMARK    5  A    between atoms: N_16  and  C_17
REMARK                            x       y       z     vdW  Elec       q    Type
REMARK                         _______ _______ _______ _____ _____    ______ ____
ROOT
ATOM      1  C   UNL     1       3.385   3.737  17.696  0.00  0.00    +0.000 A 
ATOM      2  C   UNL     1       2.670   4.818  18.233  0.00  0.00    +0.000 A 
ATOM      3  C   UNL     1       3.218   6.112  18.289  0.00  0.00    +0.000 A 
ATOM      4  C   UNL     1       4.490   6.323  17.749  0.00  0.00    +0.000 A 
ATOM      5  C   UNL     1       5.187   5.262  17.167  0.00  0.00    +0.000 A 
ATOM      6  C   UNL     1       4.639   3.975  17.133  0.00  0.00    +0.000 A 
ENDROOT
BRANCH   3   7
ATOM      7  C   UNL     1       2.459   7.231  18.861  0.00  0.00    +0.000 A 
ATOM      8  C   UNL     1       1.993   7.306  20.118  0.00  0.00    +0.000 A 
ATOM      9  S   UNL     1       1.155   8.806  20.409  0.00  0.00    +0.000 S 
ATOM     10  C   UNL     1       1.455   9.337  18.752  0.00  0.00    +0.000 A 
ATOM     11  O   UNL     1       1.098  10.396  18.279  0.00  0.00    +0.000 OA
ATOM     12  N   UNL     1       2.157   8.345  18.117  0.00  0.00    +0.000 N 
ATOM     13  H   UNL     1       2.445   8.480  17.160  0.00  0.00    +0.000 HD
ENDBRANCH   3   7
BRANCH   1  14
ATOM     14  N   UNL     1       2.744   2.506  17.511  0.00  0.00    +0.000 N 
ATOM     15  H   UNL     1       3.157   1.731  18.023  0.00  0.00    +0.000 HD
ATOM     16  H   UNL     1       2.555   2.266  16.543  0.00  0.00    +0.000 HD
ENDBRANCH   1  14
BRANCH   5  17
ATOM     17  S   UNL     1       6.792   5.586  16.484  0.00  0.00    +0.000 S 
ATOM     18  O   UNL     1       7.186   6.898  16.937  0.00  0.00    +0.000 OA
ATOM     19  O   UNL     1       7.636   4.426  16.686  0.00  0.00    +0.000 OA
BRANCH  17  20
ATOM     20  N   UNL     1       6.491   5.736  14.820  0.00  0.00    +0.000 NA
ATOM     21  H   UNL     1       6.915   6.601  14.478  0.00  0.00    +0.000 HD
BRANCH  20  22
ATOM     22  C   UNL     1       6.689   4.547  13.978  0.00  0.00    +0.000 C 
ATOM     23  C   UNL     1       5.386   3.995  13.420  0.00  0.00    +0.000 C 
ATOM     24  C   UNL     1       5.842   3.079  12.300  0.00  0.00    +0.000 C 
ATOM     25  C   UNL     1       7.120   3.713  11.753  0.00  0.00    +0.000 C 
ATOM     26  C   UNL     1       7.461   4.869  12.700  0.00  0.00    +0.000 C 
ENDBRANCH  20  22
ENDBRANCH  17  20
ENDBRANCH   5  17
TORSDOF 5
ENDMDL
MODEL 4
REMARK VINA RESULT:      -7.6      2.513      3.356
REMARK  Name = 
REMARK  5 active torsions:
REMARK  status: ('A' for Active; 'I' for Inactive)
REMARK    1  A    between atoms: N_1  and  C_2
REMARK    2  A    between atoms: C_4  and  C_5
REMARK    3  A    between atoms: C_12  and  S_13
REMARK    4  A    between atoms: S_13  and  N_16
REMARK    5  A    between atoms: N_16  and  C_17
REMARK                            x       y       z     vdW  Elec       q    Type
REMARK                         _______ _______ _______ _____ _____    ______ ____
ROOT
ATOM      1  C   UNL     1       3.317   7.412  17.640  0.00  0.00    +0.000 A 
ATOM      2  C   UNL     1       2.614   6.363  18.252  0.00  0.00    +0.000 A 
ATOM      3  C   UNL     1       3.171   5.078  18.385  0.00  0.00    +0.000 A 
ATOM      4  C   UNL     1       4.478   4.868  17.934  0.00  0.00    +0.000 A 
ATOM      5  C   UNL     1       5.202   5.920  17.369  0.00  0.00    +0.000 A 
ATOM      6  C   UNL     1       4.630   7.189  17.226  0.00  0.00    +0.000 A 
ENDROOT
BRANCH   3   7
ATOM      7  C   UNL     1       2.420   3.990  19.022  0.00  0.00    +0.000 A 
ATOM      8  C   UNL     1       1.645   3.093  18.392  0.00  0.00    +0.000 A 
ATOM      9  S   UNL     1       0.937   1.954  19.504  0.00  0.00    +0.000 S 
ATOM     10  C   UNL     1       1.731   2.740  20.871  0.00  0.00    +0.000 A 
ATOM     11  O   UNL     1       1.640   2.394  22.031  0.00  0.00    +0.000 OA
ATOM     12  N   UNL     1       2.460   3.793  20.380  0.00  0.00    +0.000 N 
ATOM     13  H   UNL     1       3.009   4.351  21.017  0.00  0.00    +0.000 HD
ENDBRANCH   3   7
BRANCH   1  14
ATOM     14  N   UNL     1       2.792   8.709  17.675  0.00  0.00    +0.000 N 
ATOM     15  H   UNL     1       3.351   9.407  17.191  0.00  0.00    +0.000 HD
ATOM     16  H   UNL     1       2.499   9.026  18.594  0.00  0.00    +0.000 HD
ENDBRANCH   1  14
BRANCH   5  17
ATOM     17  S   UNL     1       6.860   5.602  16.824  0.00  0.00    +0.000 S 
ATOM     18  O   UNL     1       7.687   6.659  17.352  0.00  0.00    +0.000 OA
ATOM     19  O   UNL     1       7.172   4.206  17.049  0.00  0.00    +0.000 OA
BRANCH  17  20
ATOM     20  N   UNL     1       6.781   5.861  15.148  0.00  0.00    +0.000 NA
ATOM     21  H   UNL     1       7.386   6.647  14.901  0.00  0.00    +0.000 HD
BRANCH  20  22
ATOM     22  C   UNL     1       6.863   4.685  14.269  0.00  0.00    +0.000 C 
ATOM     23  C   UNL     1       5.498   4.172  13.839  0.00  0.00    +0.000 C 
ATOM     24  C   UNL     1       5.814   3.271  12.661  0.00  0.00    +0.000 C 
ATOM     25  C   UNL     1       7.042   3.890  11.996  0.00  0.00    +0.000 C 
ATOM     26  C   UNL     1       7.506   5.018  12.923  0.00  0.00    +0.000 C 
ENDBRANCH  20  22
ENDBRANCH  17  20
ENDBRANCH   5  17
TORSDOF 5
ENDMDL
MODEL 5
REMARK VINA RESULT:      -7.5      2.956      7.152
REMARK  Name = 
REMARK  5 active torsions:
REMARK  status: ('A' for Active; 'I' for Inactive)
REMARK    1  A    between atoms: N_1  and  C_2
REMARK    2  A    between atoms: C_4  and  C_5
REMARK    3  A    between atoms: C_12  and  S_13
REMARK    4  A    between atoms: S_13  and  N_16
REMARK    5  A    between atoms: N_16  and  C_17
REMARK                            x       y       z     vdW  Elec       q    Type
REMARK                         _______ _______ _______ _____ _____    ______ ____
ROOT
ATOM      1  C   UNL     1       6.954   4.976  18.739  0.00  0.00    +0.000 A 
ATOM      2  C   UNL     1       7.228   5.018  17.364  0.00  0.00    +0.000 A 
ATOM      3  C   UNL     1       6.358   4.444  16.418  0.00  0.00    +0.000 A 
ATOM      4  C   UNL     1       5.169   3.864  16.872  0.00  0.00    +0.000 A 
ATOM      5  C   UNL     1       4.866   3.864  18.235  0.00  0.00    +0.000 A 
ATOM      6  C   UNL     1       5.748   4.421  19.167  0.00  0.00    +0.000 A 
ENDROOT
BRANCH   3   7
ATOM      7  C   UNL     1       6.663   4.490  14.983  0.00  0.00    +0.000 A 
ATOM      8  C   UNL     1       6.108   3.720  14.035  0.00  0.00    +0.000 A 
ATOM      9  S   UNL     1       6.730   4.093  12.451  0.00  0.00    +0.000 S 
ATOM     10  C   UNL     1       7.785   5.341  13.120  0.00  0.00    +0.000 A 
ATOM     11  O   UNL     1       8.543   6.038  12.478  0.00  0.00    +0.000 OA
ATOM     12  N   UNL     1       7.584   5.373  14.476  0.00  0.00    +0.000 N 
ATOM     13  H   UNL     1       8.086   6.049  15.032  0.00  0.00    +0.000 HD
ENDBRANCH   3   7
BRANCH   1  14
ATOM     14  N   UNL     1       7.761   5.698  19.627  0.00  0.00    +0.000 N 
ATOM     15  H   UNL     1       8.072   6.601  19.281  0.00  0.00    +0.000 HD
ATOM     16  H   UNL     1       8.520   5.165  20.040  0.00  0.00    +0.000 HD
ENDBRANCH   1  14
BRANCH   5  17
ATOM     17  S   UNL     1       3.339   3.125  18.755  0.00  0.00    +0.000 S 
ATOM     18  O   UNL     1       3.008   2.112  17.783  0.00  0.00    +0.000 OA
ATOM     19  O   UNL     1       3.415   2.827  20.170  0.00  0.00    +0.000 OA
BRANCH  17  20
ATOM     20  N   UNL     1       2.205   4.370  18.539  0.00  0.00    +0.000 NA
ATOM     21  H   UNL     1       1.288   4.048  18.857  0.00  0.00    +0.000 HD
BRANCH  20  22
ATOM     22  C   UNL     1       2.589   5.727  18.954  0.00  0.00    +0.000 C 
ATOM     23  C   UNL     1       2.206   6.787  17.933  0.00  0.00    +0.000 C 
ATOM     24  C   UNL     1       2.308   8.083  18.716  0.00  0.00    +0.000 C 
ATOM     25  C   UNL     1       1.934   7.719  20.151  0.00  0.00    +0.000 C 
ATOM     26  C   UNL     1       1.816   6.192  20.187  0.00  0.00    +0.000 C 
ENDBRANCH  20  22
ENDBRANCH  17  20
ENDBRANCH   5  17
TORSDOF 5
ENDMDL
MODEL 6
REMARK VINA RESULT:      -7.4      2.762      7.018
REMARK  Name = 
REMARK  5 active torsions:
REMARK  status: ('A' for Active; 'I' for Inactive)
REMARK    1  A    between atoms: N_1  and  C_2
REMARK    2  A    between atoms: C_4  and  C_5
REMARK    3  A    between atoms: C_12  and  S_13
REMARK    4  A    between atoms: S_13  and  N_16
REMARK    5  A    between atoms: N_16  and  C_17
REMARK                            x       y       z     vdW  Elec       q    Type
REMARK                         _______ _______ _______ _____ _____    ______ ____
ROOT
ATOM      1  C   UNL     1       6.775   5.362  18.914  0.00  0.00    +0.000 A 
ATOM      2  C   UNL     1       7.097   5.056  17.583  0.00  0.00    +0.000 A 
ATOM      3  C   UNL     1       6.158   5.193  16.545  0.00  0.00    +0.000 A 
ATOM      4  C   UNL     1       4.889   5.693  16.855  0.00  0.00    +0.000 A 
ATOM      5  C   UNL     1       4.578   6.048  18.169  0.00  0.00    +0.000 A 
ATOM      6  C   UNL     1       5.515   5.890  19.196  0.00  0.00    +0.000 A 
ENDROOT
BRANCH   3   7
ATOM      7  C   UNL     1       6.508   4.862  15.159  0.00  0.00    +0.000 A 
ATOM      8  C   UNL     1       5.992   3.857  14.434  0.00  0.00    +0.000 A 
ATOM      9  S   UNL     1       6.661   3.808  12.826  0.00  0.00    +0.000 S 
ATOM     10  C   UNL     1       7.680   5.208  13.168  0.00  0.00    +0.000 A 
ATOM     11  O   UNL     1       8.451   5.724  12.385  0.00  0.00    +0.000 OA
ATOM     12  N   UNL     1       7.436   5.595  14.461  0.00  0.00    +0.000 N 
ATOM     13  H   UNL     1       7.912   6.404  14.831  0.00  0.00    +0.000 HD
ENDBRANCH   3   7
BRANCH   1  14
ATOM     14  N   UNL     1       7.783   5.367  19.886  0.00  0.00    +0.000 N 
ATOM     15  H   UNL     1       8.526   6.042  19.724  0.00  0.00    +0.000 HD
ATOM     16  H   UNL     1       8.145   4.450  20.128  0.00  0.00    +0.000 HD
ENDBRANCH   1  14
BRANCH   5  17
ATOM     17  S   UNL     1       2.958   6.689  18.504  0.00  0.00    +0.000 S 
ATOM     18  O   UNL     1       2.881   6.915  19.927  0.00  0.00    +0.000 OA
ATOM     19  O   UNL     1       2.656   7.736  17.550  0.00  0.00    +0.000 OA
BRANCH  17  20
ATOM     20  N   UNL     1       1.937   5.372  18.183  0.00  0.00    +0.000 NA
ATOM     21  H   UNL     1       1.878   5.231  17.173  0.00  0.00    +0.000 HD
BRANCH  20  22
ATOM     22  C   UNL     1       2.110   4.157  18.993  0.00  0.00    +0.000 C 
ATOM     23  C   UNL     1       1.137   4.080  20.159  0.00  0.00    +0.000 C 
ATOM     24  C   UNL     1       1.207   2.624  20.581  0.00  0.00    +0.000 C 
ATOM     25  C   UNL     1       1.487   1.844  19.298  0.00  0.00    +0.000 C 
ATOM     26  C   UNL     1       1.758   2.891  18.212  0.00  0.00    +0.000 C 
ENDBRANCH  20  22
ENDBRANCH  17  20
ENDBRANCH   5  17
TORSDOF 5
ENDMDL
MODEL 7
REMARK VINA RESULT:      -7.3      0.832      1.197
REMARK  Name = 
REMARK  5 active torsions:
REMARK  status: ('A' for Active; 'I' for Inactive)
REMARK    1  A    between atoms: N_1  and  C_2
REMARK    2  A    between atoms: C_4  and  C_5
REMARK    3  A    between atoms: C_12  and  S_13
REMARK    4  A    between atoms: S_13  and  N_16
REMARK    5  A    between atoms: N_16  and  C_17
REMARK                            x       y       z     vdW  Elec       q    Type
REMARK                         _______ _______ _______ _____ _____    ______ ____
ROOT
ATOM      1  C   UNL     1       3.296   4.006  17.622  0.00  0.00    +0.000 A 
ATOM      2  C   UNL     1       2.583   5.163  17.970  0.00  0.00    +0.000 A 
ATOM      3  C   UNL     1       3.222   6.406  18.129  0.00  0.00    +0.000 A 
ATOM      4  C   UNL     1       4.597   6.485  17.884  0.00  0.00    +0.000 A 
ATOM      5  C   UNL     1       5.304   5.348  17.488  0.00  0.00    +0.000 A 
ATOM      6  C   UNL     1       4.660   4.114  17.351  0.00  0.00    +0.000 A 
ENDROOT
BRANCH   3   7
ATOM      7  C   UNL     1       2.463   7.606  18.501  0.00  0.00    +0.000 A 
ATOM      8  C   UNL     1       2.168   8.635  17.691  0.00  0.00    +0.000 A 
ATOM      9  S   UNL     1       1.237   9.859  18.511  0.00  0.00    +0.000 S 
ATOM     10  C   UNL     1       1.260   8.924  20.008  0.00  0.00    +0.000 A 
ATOM     11  O   UNL     1       0.735   9.256  21.051  0.00  0.00    +0.000 OA
ATOM     12  N   UNL     1       1.965   7.772  19.770  0.00  0.00    +0.000 N 
ATOM     13  H   UNL     1       2.063   7.093  20.510  0.00  0.00    +0.000 HD
ENDBRANCH   3   7
BRANCH   1  14
ATOM     14  N   UNL     1       2.600   2.830  17.317  0.00  0.00    +0.000 N 
ATOM     15  H   UNL     1       1.878   2.935  16.609  0.00  0.00    +0.000 HD
ATOM     16  H   UNL     1       2.270   2.309  18.124  0.00  0.00    +0.000 HD
ENDBRANCH   1  14
BRANCH   5  17
ATOM     17  S   UNL     1       7.043   5.507  17.178  0.00  0.00    +0.000 S 
ATOM     18  O   UNL     1       7.253   6.818  16.613  0.00  0.00    +0.000 OA
ATOM     19  O   UNL     1       7.775   5.054  18.342  0.00  0.00    +0.000 OA
BRANCH  17  20
ATOM     20  N   UNL     1       7.322   4.404  15.918  0.00  0.00    +0.000 NA
ATOM     21  H   UNL     1       7.088   3.462  16.238  0.00  0.00    +0.000 HD
BRANCH  20  22
ATOM     22  C   UNL     1       6.846   4.764  14.574  0.00  0.00    +0.000 C 
ATOM     23  C   UNL     1       7.979   5.083  13.611  0.00  0.00    +0.000 C 
ATOM     24  C   UNL     1       7.315   5.015  12.249  0.00  0.00    +0.000 C 
ATOM     25  C   UNL     1       6.220   3.958  12.386  0.00  0.00    +0.000 C 
ATOM     26  C   UNL     1       6.165   3.590  13.872  0.00  0.00    +0.000 C 
ENDBRANCH  20  22
ENDBRANCH  17  20
ENDBRANCH   5  17
TORSDOF 5
ENDMDL
MODEL 8
REMARK VINA RESULT:      -7.3      2.531      3.481
REMARK  Name = 
REMARK  5 active torsions:
REMARK  status: ('A' for Active; 'I' for Inactive)
REMARK    1  A    between atoms: N_1  and  C_2
REMARK    2  A    between atoms: C_4  and  C_5
REMARK    3  A    between atoms: C_12  and  S_13
REMARK    4  A    between atoms: S_13  and  N_16
REMARK    5  A    between atoms: N_16  and  C_17
REMARK                            x       y       z     vdW  Elec       q    Type
REMARK                         _______ _______ _______ _____ _____    ______ ____
ROOT
ATOM      1  C   UNL     1       3.297   7.709  17.677  0.00  0.00    +0.000 A 
ATOM      2  C   UNL     1       2.610   6.699  18.368  0.00  0.00    +0.000 A 
ATOM      3  C   UNL     1       3.113   5.388  18.452  0.00  0.00    +0.000 A 
ATOM      4  C   UNL     1       4.353   5.109  17.868  0.00  0.00    +0.000 A 
ATOM      5  C   UNL     1       5.066   6.122  17.223  0.00  0.00    +0.000 A 
ATOM      6  C   UNL     1       4.547   7.418  17.131  0.00  0.00    +0.000 A 
ENDROOT
BRANCH   3   7
ATOM      7  C   UNL     1       2.378   4.340  19.172  0.00  0.00    +0.000 A 
ATOM      8  C   UNL     1       2.434   4.104  20.492  0.00  0.00    +0.000 A 
ATOM      9  S   UNL     1       1.401   2.780  20.957  0.00  0.00    +0.000 S 
ATOM     10  C   UNL     1       0.884   2.549  19.285  0.00  0.00    +0.000 A 
ATOM     11  O   UNL     1       0.094   1.710  18.904  0.00  0.00    +0.000 OA
ATOM     12  N   UNL     1       1.531   3.482  18.516  0.00  0.00    +0.000 N 
ATOM     13  H   UNL     1       1.340   3.522  17.526  0.00  0.00    +0.000 HD
ENDBRANCH   3   7
BRANCH   1  14
ATOM     14  N   UNL     1       2.845   9.031  17.756  0.00  0.00    +0.000 N 
ATOM     15  H   UNL     1       3.217   9.651  17.042  0.00  0.00    +0.000 HD
ATOM     16  H   UNL     1       2.895   9.444  18.683  0.00  0.00    +0.000 HD
ENDBRANCH   1  14
BRANCH   5  17
ATOM     17  S   UNL     1       6.640   5.718  16.511  0.00  0.00    +0.000 S 
ATOM     18  O   UNL     1       7.535   6.805  16.824  0.00  0.00    +0.000 OA
ATOM     19  O   UNL     1       6.967   4.345  16.834  0.00  0.00    +0.000 OA
BRANCH  17  20
ATOM     20  N   UNL     1       6.354   5.814  14.840  0.00  0.00    +0.000 NA
ATOM     21  H   UNL     1       6.741   6.689  14.483  0.00  0.00    +0.000 HD
BRANCH  20  22
ATOM     22  C   UNL     1       6.618   4.616  14.030  0.00  0.00    +0.000 C 
ATOM     23  C   UNL     1       5.355   4.018  13.430  0.00  0.00    +0.000 C 
ATOM     24  C   UNL     1       5.883   3.095  12.347  0.00  0.00    +0.000 C 
ATOM     25  C   UNL     1       7.164   3.755  11.841  0.00  0.00    +0.000 C 
ATOM     26  C   UNL     1       7.434   4.936  12.779  0.00  0.00    +0.000 C 
ENDBRANCH  20  22
ENDBRANCH  17  20
ENDBRANCH   5  17
TORSDOF 5
ENDMDL
MODEL 9
REMARK VINA RESULT:      -7.3      3.039      3.871
REMARK  Name = 
REMARK  5 active torsions:
REMARK  status: ('A' for Active; 'I' for Inactive)
REMARK    1  A    between atoms: N_1  and  C_2
REMARK    2  A    between atoms: C_4  and  C_5
REMARK    3  A    between atoms: C_12  and  S_13
REMARK    4  A    between atoms: S_13  and  N_16
REMARK    5  A    between atoms: N_16  and  C_17
REMARK                            x       y       z     vdW  Elec       q    Type
REMARK                         _______ _______ _______ _____ _____    ______ ____
ROOT
ATOM      1  C   UNL     1       2.390   3.786  21.087  0.00  0.00    +0.000 A 
ATOM      2  C   UNL     1       1.960   5.120  21.143  0.00  0.00    +0.000 A 
ATOM      3  C   UNL     1       2.308   6.052  20.148  0.00  0.00    +0.000 A 
ATOM      4  C   UNL     1       3.065   5.611  19.057  0.00  0.00    +0.000 A 
ATOM      5  C   UNL     1       3.454   4.273  18.969  0.00  0.00    +0.000 A 
ATOM      6  C   UNL     1       3.116   3.360  19.974  0.00  0.00    +0.000 A 
ENDROOT
BRANCH   3   7
ATOM      7  C   UNL     1       1.856   7.446  20.225  0.00  0.00    +0.000 A 
ATOM      8  C   UNL     1       1.658   8.269  19.183  0.00  0.00    +0.000 A 
ATOM      9  S   UNL     1       1.106   9.840  19.695  0.00  0.00    +0.000 S 
ATOM     10  C   UNL     1       1.153   9.345  21.389  0.00  0.00    +0.000 A 
ATOM     11  O   UNL     1       0.853  10.045  22.334  0.00  0.00    +0.000 OA
ATOM     12  N   UNL     1       1.581   8.043  21.431  0.00  0.00    +0.000 N 
ATOM     13  H   UNL     1       1.647   7.574  22.322  0.00  0.00    +0.000 HD
ENDBRANCH   3   7
BRANCH   1  14
ATOM     14  N   UNL     1       1.888   2.858  22.007  0.00  0.00    +0.000 N 
ATOM     15  H   UNL     1       1.583   1.978  21.599  0.00  0.00    +0.000 HD
ATOM     16  H   UNL     1       1.206   3.232  22.660  0.00  0.00    +0.000 HD
ENDBRANCH   1  14
BRANCH   5  17
ATOM     17  S   UNL     1       4.401   3.765  17.558  0.00  0.00    +0.000 S 
ATOM     18  O   UNL     1       4.279   2.331  17.463  0.00  0.00    +0.000 OA
ATOM     19  O   UNL     1       4.087   4.631  16.441  0.00  0.00    +0.000 OA
BRANCH  17  20
ATOM     20  N   UNL     1       6.004   4.069  18.028  0.00  0.00    +0.000 NA
ATOM     21  H   UNL     1       6.634   3.503  17.456  0.00  0.00    +0.000 HD
BRANCH  20  22
ATOM     22  C   UNL     1       6.404   5.468  18.234  0.00  0.00    +0.000 C 
ATOM     23  C   UNL     1       7.681   5.604  19.049  0.00  0.00    +0.000 C 
ATOM     24  C   UNL     1       8.115   7.034  18.789  0.00  0.00    +0.000 C 
ATOM     25  C   UNL     1       7.651   7.346  17.368  0.00  0.00    +0.000 C 
ATOM     26  C   UNL     1       6.798   6.152  16.925  0.00  0.00    +0.000 C 
ENDBRANCH  20  22
ENDBRANCH  17  20
ENDBRANCH   5  17
TORSDOF 5
ENDMDL
