MODEL 1
REMARK VINA RESULT:      -8.1      0.000      0.000
REMARK  Name = 
REMARK  3 active torsions:
REMARK  status: ('A' for Active; 'I' for Inactive)
REMARK    1  A    between atoms: C_1  and  N_2
REMARK    2  A    between atoms: C_10  and  O_11
REMARK    3  A    between atoms: C_15  and  O_16
REMARK                            x       y       z     vdW  Elec       q    Type
REMARK                         _______ _______ _______ _____ _____    ______ ____
ROOT
ATOM      1  C   UNL     1       6.923   4.385  16.078  0.00  0.00    +0.000 C 
ATOM      2  N   UNL     1       5.807   4.420  17.022  0.00  0.00    +0.000 NA
ATOM      3  C   UNL     1       6.252   4.614  18.405  0.00  0.00    +0.000 C 
ATOM      4  C   UNL     1       5.257   5.278  19.300  0.00  0.00    +0.000 C 
ATOM      5  C   UNL     1       3.770   5.027  18.920  0.00  0.00    +0.000 C 
ATOM      6  C   UNL     1       3.258   6.422  18.841  0.00  0.00    +0.000 A 
ATOM      7  C   UNL     1       3.561   7.256  17.751  0.00  0.00    +0.000 A 
ATOM      8  C   UNL     1       2.866   8.455  17.726  0.00  0.00    +0.000 A 
ATOM      9  C   UNL     1       1.959   8.756  18.782  0.00  0.00    +0.000 A 
ATOM     10  C   UNL     1       1.690   7.848  19.836  0.00  0.00    +0.000 A 
ATOM     11  C   UNL     1       2.337   6.659  19.835  0.00  0.00    +0.000 A 
ATOM     12  O   UNL     1       2.139   5.572  20.652  0.00  0.00    +0.000 OA
ATOM     13  C   UNL     1       2.932   4.465  20.083  0.00  0.00    +0.000 C 
ATOM     14  C   UNL     1       2.006   3.270  19.728  0.00  0.00    +0.000 C 
ATOM     15  C   UNL     1       2.261   2.622  18.393  0.00  0.00    +0.000 C 
ATOM     16  C   UNL     1       2.558   3.353  17.305  0.00  0.00    +0.000 C 
ATOM     17  C   UNL     1       3.390   4.606  17.471  0.00  0.00    +0.000 C 
ATOM     18  C   UNL     1       4.571   5.063  16.586  0.00  0.00    +0.000 C 
ATOM     19  C   UNL     1       4.464   6.679  16.620  0.00  0.00    +0.000 C 
ENDROOT
BRANCH  10  20
ATOM     20  O   UNL     1       0.803   8.130  20.815  0.00  0.00    +0.000 OA
ATOM     21  H   UNL     1       1.277   8.208  21.654  0.00  0.00    +0.000 HD
ENDBRANCH  10  20
BRANCH  14  22
ATOM     22  O   UNL     1       2.175   2.225  20.698  0.00  0.00    +0.000 OA
ATOM     23  H   UNL     1       1.324   1.751  20.741  0.00  0.00    +0.000 HD
ENDBRANCH  14  22
TORSDOF 2
ENDMDL
MODEL 2
REMARK VINA RESULT:      -7.5      2.455      4.066
REMARK  Name = 
REMARK  3 active torsions:
REMARK  status: ('A' for Active; 'I' for Inactive)
REMARK    1  A    between atoms: C_1  and  N_2
REMARK    2  A    between atoms: C_10  and  O_11
REMARK    3  A    between atoms: C_15  and  O_16
REMARK                            x       y       z     vdW  Elec       q    Type
REMARK                         _______ _______ _______ _____ _____    ______ ____
ROOT
ATOM      1  C   UNL     1       4.181   1.496  19.848  0.00  0.00    +0.000 C 
ATOM      2  N   UNL     1       4.454   2.759  19.162  0.00  0.00    +0.000 NA
ATOM      3  C   UNL     1       3.896   2.789  17.807  0.00  0.00    +0.000 C 
ATOM      4  C   UNL     1       3.558   4.151  17.295  0.00  0.00    +0.000 C 
ATOM      5  C   UNL     1       4.434   5.300  17.873  0.00  0.00    +0.000 C 
ATOM      6  C   UNL     1       3.387   6.230  18.374  0.00  0.00    +0.000 A 
ATOM      7  C   UNL     1       2.672   5.966  19.555  0.00  0.00    +0.000 A 
ATOM      8  C   UNL     1       1.867   7.007  19.992  0.00  0.00    +0.000 A 
ATOM      9  C   UNL     1       1.799   8.204  19.224  0.00  0.00    +0.000 A 
ATOM     10  C   UNL     1       2.572   8.402  18.053  0.00  0.00    +0.000 A 
ATOM     11  C   UNL     1       3.392   7.401  17.652  0.00  0.00    +0.000 A 
ATOM     12  O   UNL     1       4.333   7.410  16.652  0.00  0.00    +0.000 OA
ATOM     13  C   UNL     1       5.104   6.159  16.785  0.00  0.00    +0.000 C 
ATOM     14  C   UNL     1       6.607   6.477  17.012  0.00  0.00    +0.000 C 
ATOM     15  C   UNL     1       7.290   5.670  18.084  0.00  0.00    +0.000 C 
ATOM     16  C   UNL     1       6.671   5.376  19.240  0.00  0.00    +0.000 C 
ATOM     17  C   UNL     1       5.180   5.113  19.225  0.00  0.00    +0.000 C 
ATOM     18  C   UNL     1       4.428   3.981  19.960  0.00  0.00    +0.000 C 
ATOM     19  C   UNL     1       3.002   4.655  20.330  0.00  0.00    +0.000 C 
ENDROOT
BRANCH  10  20
ATOM     20  O   UNL     1       2.525   9.555  17.350  0.00  0.00    +0.000 OA
ATOM     21  H   UNL     1       3.116  10.198  17.766  0.00  0.00    +0.000 HD
ENDBRANCH  10  20
BRANCH  14  22
ATOM     22  O   UNL     1       7.342   6.212  15.808  0.00  0.00    +0.000 OA
ATOM     23  H   UNL     1       8.284   6.200  16.058  0.00  0.00    +0.000 HD
ENDBRANCH  14  22
TORSDOF 2
ENDMDL
MODEL 3
REMARK VINA RESULT:      -7.5      2.105      3.887
REMARK  Name = 
REMARK  3 active torsions:
REMARK  status: ('A' for Active; 'I' for Inactive)
REMARK    1  A    between atoms: C_1  and  N_2
REMARK    2  A    between atoms: C_10  and  O_11
REMARK    3  A    between atoms: C_15  and  O_16
REMARK                            x       y       z     vdW  Elec       q    Type
REMARK                         _______ _______ _______ _____ _____    ______ ____
ROOT
ATOM      1  C   UNL     1       3.696   1.133  18.953  0.00  0.00    +0.000 C 
ATOM      2  N   UNL     1       3.846   2.552  18.628  0.00  0.00    +0.000 NA
ATOM      3  C   UNL     1       3.063   2.940  17.452  0.00  0.00    +0.000 C 
ATOM      4  C   UNL     1       2.642   4.373  17.421  0.00  0.00    +0.000 C 
ATOM      5  C   UNL     1       3.604   5.351  18.156  0.00  0.00    +0.000 C 
ATOM      6  C   UNL     1       2.659   6.044  19.071  0.00  0.00    +0.000 A 
ATOM      7  C   UNL     1       2.158   5.418  20.225  0.00  0.00    +0.000 A 
ATOM      8  C   UNL     1       1.440   6.248  21.072  0.00  0.00    +0.000 A 
ATOM      9  C   UNL     1       1.241   7.610  20.708  0.00  0.00    +0.000 A 
ATOM     10  C   UNL     1       1.800   8.174  19.534  0.00  0.00    +0.000 A 
ATOM     11  C   UNL     1       2.539   7.372  18.730  0.00  0.00    +0.000 A 
ATOM     12  O   UNL     1       3.294   7.715  17.634  0.00  0.00    +0.000 OA
ATOM     13  C   UNL     1       4.076   6.518  17.270  0.00  0.00    +0.000 C 
ATOM     14  C   UNL     1       5.596   6.833  17.328  0.00  0.00    +0.000 C 
ATOM     15  C   UNL     1       6.453   5.789  17.991  0.00  0.00    +0.000 C 
ATOM     16  C   UNL     1       6.043   5.145  19.097  0.00  0.00    +0.000 C 
ATOM     17  C   UNL     1       4.572   4.823  19.252  0.00  0.00    +0.000 C 
ATOM     18  C   UNL     1       3.958   3.492  19.740  0.00  0.00    +0.000 C 
ATOM     19  C   UNL     1       2.618   3.959  20.520  0.00  0.00    +0.000 C 
ENDROOT
BRANCH  10  20
ATOM     20  O   UNL     1       1.633   9.476  19.215  0.00  0.00    +0.000 OA
ATOM     21  H   UNL     1       1.224   9.533  18.341  0.00  0.00    +0.000 HD
ENDBRANCH  10  20
BRANCH  14  22
ATOM     22  O   UNL     1       6.112   6.961  15.994  0.00  0.00    +0.000 OA
ATOM     23  H   UNL     1       6.414   6.073  15.731  0.00  0.00    +0.000 HD
ENDBRANCH  14  22
TORSDOF 2
ENDMDL
MODEL 4
REMARK VINA RESULT:      -6.8      2.446      4.912
REMARK  Name = 
REMARK  3 active torsions:
REMARK  status: ('A' for Active; 'I' for Inactive)
REMARK    1  A    between atoms: C_1  and  N_2
REMARK    2  A    between atoms: C_10  and  O_11
REMARK    3  A    between atoms: C_15  and  O_16
REMARK                            x       y       z     vdW  Elec       q    Type
REMARK                         _______ _______ _______ _____ _____    ______ ____
ROOT
ATOM      1  C   UNL     1       1.401   8.748  18.404  0.00  0.00    +0.000 C 
ATOM      2  N   UNL     1       2.448   7.739  18.566  0.00  0.00    +0.000 NA
ATOM      3  C   UNL     1       2.626   7.339  19.965  0.00  0.00    +0.000 C 
ATOM      4  C   UNL     1       3.152   5.956  20.163  0.00  0.00    +0.000 C 
ATOM      5  C   UNL     1       4.063   5.435  19.014  0.00  0.00    +0.000 C 
ATOM      6  C   UNL     1       3.394   4.148  18.684  0.00  0.00    +0.000 A 
ATOM      7  C   UNL     1       2.190   4.108  17.962  0.00  0.00    +0.000 A 
ATOM      8  C   UNL     1       1.787   2.840  17.571  0.00  0.00    +0.000 A 
ATOM      9  C   UNL     1       2.574   1.714  17.946  0.00  0.00    +0.000 A 
ATOM     10  C   UNL     1       3.793   1.840  18.657  0.00  0.00    +0.000 A 
ATOM     11  C   UNL     1       4.207   3.083  18.999  0.00  0.00    +0.000 A 
ATOM     12  O   UNL     1       5.405   3.469  19.551  0.00  0.00    +0.000 OA
ATOM     13  C   UNL     1       5.437   4.943  19.504  0.00  0.00    +0.000 C 
ATOM     14  C   UNL     1       6.658   5.427  18.674  0.00  0.00    +0.000 C 
ATOM     15  C   UNL     1       6.384   6.540  17.699  0.00  0.00    +0.000 C 
ATOM     16  C   UNL     1       5.253   6.572  16.973  0.00  0.00    +0.000 C 
ATOM     17  C   UNL     1       3.971   6.062  17.594  0.00  0.00    +0.000 C 
ATOM     18  C   UNL     1       2.576   6.724  17.524  0.00  0.00    +0.000 C 
ATOM     19  C   UNL     1       1.561   5.463  17.518  0.00  0.00    +0.000 C 
ENDROOT
BRANCH  10  20
ATOM     20  O   UNL     1       4.549   0.767  18.979  0.00  0.00    +0.000 OA
ATOM     21  H   UNL     1       4.741   0.268  18.174  0.00  0.00    +0.000 HD
ENDBRANCH  10  20
BRANCH  14  22
ATOM     22  O   UNL     1       7.670   5.933  19.558  0.00  0.00    +0.000 OA
ATOM     23  H   UNL     1       8.240   6.512  19.018  0.00  0.00    +0.000 HD
ENDBRANCH  14  22
TORSDOF 2
ENDMDL
MODEL 5
REMARK VINA RESULT:      -6.4     10.272     11.951
REMARK  Name = 
REMARK  3 active torsions:
REMARK  status: ('A' for Active; 'I' for Inactive)
REMARK    1  A    between atoms: C_1  and  N_2
REMARK    2  A    between atoms: C_10  and  O_11
REMARK    3  A    between atoms: C_15  and  O_16
REMARK                            x       y       z     vdW  Elec       q    Type
REMARK                         _______ _______ _______ _____ _____    ______ ____
ROOT
ATOM      1  C   UNL     1       8.517  13.966  23.930  0.00  0.00    +0.000 C 
ATOM      2  N   UNL     1       8.734  14.394  22.548  0.00  0.00    +0.000 NA
ATOM      3  C   UNL     1       9.936  15.218  22.402  0.00  0.00    +0.000 C 
ATOM      4  C   UNL     1      10.577  15.165  21.054  0.00  0.00    +0.000 C 
ATOM      5  C   UNL     1       9.597  14.886  19.878  0.00  0.00    +0.000 C 
ATOM      6  C   UNL     1      10.260  13.724  19.227  0.00  0.00    +0.000 A 
ATOM      7  C   UNL     1      10.206  12.436  19.788  0.00  0.00    +0.000 A 
ATOM      8  C   UNL     1      10.707  11.428  18.979  0.00  0.00    +0.000 A 
ATOM      9  C   UNL     1      11.249  11.762  17.706  0.00  0.00    +0.000 A 
ATOM     10  C   UNL     1      11.246  13.086  17.201  0.00  0.00    +0.000 A 
ATOM     11  C   UNL     1      10.716  14.063  17.974  0.00  0.00    +0.000 A 
ATOM     12  O   UNL     1      10.467  15.375  17.651  0.00  0.00    +0.000 OA
ATOM     13  C   UNL     1       9.674  15.941  18.759  0.00  0.00    +0.000 C 
ATOM     14  C   UNL     1       8.309  16.460  18.231  0.00  0.00    +0.000 C 
ATOM     15  C   UNL     1       7.109  16.106  19.068  0.00  0.00    +0.000 C 
ATOM     16  C   UNL     1       6.986  14.895  19.638  0.00  0.00    +0.000 C 
ATOM     17  C   UNL     1       8.229  14.195  20.143  0.00  0.00    +0.000 C 
ATOM     18  C   UNL     1       8.396  13.450  21.486  0.00  0.00    +0.000 C 
ATOM     19  C   UNL     1       9.432  12.257  21.129  0.00  0.00    +0.000 C 
ENDROOT
BRANCH  10  20
ATOM     20  O   UNL     1      11.734  13.387  15.977  0.00  0.00    +0.000 OA
ATOM     21  H   UNL     1      11.003  13.397  15.343  0.00  0.00    +0.000 HD
ENDBRANCH  10  20
BRANCH  14  22
ATOM     22  O   UNL     1       8.328  17.895  18.178  0.00  0.00    +0.000 OA
ATOM     23  H   UNL     1       9.240  18.148  17.944  0.00  0.00    +0.000 HD
ENDBRANCH  14  22
TORSDOF 2
ENDMDL
MODEL 6
REMARK VINA RESULT:      -6.3      9.431     10.897
REMARK  Name = 
REMARK  3 active torsions:
REMARK  status: ('A' for Active; 'I' for Inactive)
REMARK    1  A    between atoms: C_1  and  N_2
REMARK    2  A    between atoms: C_10  and  O_11
REMARK    3  A    between atoms: C_15  and  O_16
REMARK                            x       y       z     vdW  Elec       q    Type
REMARK                         _______ _______ _______ _____ _____    ______ ____
ROOT
ATOM      1  C   UNL     1       9.183  17.689  18.190  0.00  0.00    +0.000 C 
ATOM      2  N   UNL     1       9.507  16.341  18.655  0.00  0.00    +0.000 NA
ATOM      3  C   UNL     1      10.582  16.337  19.651  0.00  0.00    +0.000 C 
ATOM      4  C   UNL     1      10.549  15.192  20.610  0.00  0.00    +0.000 C 
ATOM      5  C   UNL     1       9.918  13.887  20.044  0.00  0.00    +0.000 C 
ATOM      6  C   UNL     1       8.894  13.594  21.082  0.00  0.00    +0.000 A 
ATOM      7  C   UNL     1       7.697  14.327  21.162  0.00  0.00    +0.000 A 
ATOM      8  C   UNL     1       6.764  13.821  22.054  0.00  0.00    +0.000 A 
ATOM      9  C   UNL     1       7.089  12.664  22.819  0.00  0.00    +0.000 A 
ATOM     10  C   UNL     1       8.313  11.967  22.662  0.00  0.00    +0.000 A 
ATOM     11  C   UNL     1       9.204  12.437  21.758  0.00  0.00    +0.000 A 
ATOM     12  O   UNL     1      10.375  11.861  21.326  0.00  0.00    +0.000 OA
ATOM     13  C   UNL     1      10.839  12.660  20.176  0.00  0.00    +0.000 C 
ATOM     14  C   UNL     1      10.951  11.765  18.911  0.00  0.00    +0.000 C 
ATOM     15  C   UNL     1      10.402  12.359  17.642  0.00  0.00    +0.000 C 
ATOM     16  C   UNL     1       9.263  13.073  17.638  0.00  0.00    +0.000 C 
ATOM     17  C   UNL     1       8.945  13.947  18.832  0.00  0.00    +0.000 C 
ATOM     18  C   UNL     1       8.405  15.395  18.807  0.00  0.00    +0.000 C 
ATOM     19  C   UNL     1       7.473  15.472  20.129  0.00  0.00    +0.000 C 
ENDROOT
BRANCH  10  20
ATOM     20  O   UNL     1       8.596  10.851  23.369  0.00  0.00    +0.000 OA
ATOM     21  H   UNL     1       9.324  10.383  22.936  0.00  0.00    +0.000 HD
ENDBRANCH  10  20
BRANCH  14  22
ATOM     22  O   UNL     1      12.333  11.490  18.638  0.00  0.00    +0.000 OA
ATOM     23  H   UNL     1      12.356  10.628  18.183  0.00  0.00    +0.000 HD
ENDBRANCH  14  22
TORSDOF 2
ENDMDL
MODEL 7
REMARK VINA RESULT:      -6.3      6.468      8.353
REMARK  Name = 
REMARK  3 active torsions:
REMARK  status: ('A' for Active; 'I' for Inactive)
REMARK    1  A    between atoms: C_1  and  N_2
REMARK    2  A    between atoms: C_10  and  O_11
REMARK    3  A    between atoms: C_15  and  O_16
REMARK                            x       y       z     vdW  Elec       q    Type
REMARK                         _______ _______ _______ _____ _____    ______ ____
ROOT
ATOM      1  C   UNL     1       2.118  12.581  18.244  0.00  0.00    +0.000 C 
ATOM      2  N   UNL     1       1.304  12.162  19.385  0.00  0.00    +0.000 NA
ATOM      3  C   UNL     1       1.450  13.061  20.534  0.00  0.00    +0.000 C 
ATOM      4  C   UNL     1       0.268  13.115  21.445  0.00  0.00    +0.000 C 
ATOM      5  C   UNL     1      -0.575  11.808  21.497  0.00  0.00    +0.000 C 
ATOM      6  C   UNL     1      -1.934  12.336  21.200  0.00  0.00    +0.000 A 
ATOM      7  C   UNL     1      -2.308  12.714  19.899  0.00  0.00    +0.000 A 
ATOM      8  C   UNL     1      -3.655  13.008  19.744  0.00  0.00    +0.000 A 
ATOM      9  C   UNL     1      -4.516  12.941  20.875  0.00  0.00    +0.000 A 
ATOM     10  C   UNL     1      -4.065  12.527  22.153  0.00  0.00    +0.000 A 
ATOM     11  C   UNL     1      -2.759  12.198  22.293  0.00  0.00    +0.000 A 
ATOM     12  O   UNL     1      -2.125  11.636  23.375  0.00  0.00    +0.000 OA
ATOM     13  C   UNL     1      -0.769  11.267  22.926  0.00  0.00    +0.000 C 
ATOM     14  C   UNL     1      -0.543   9.741  23.101  0.00  0.00    +0.000 C 
ATOM     15  C   UNL     1       0.123   9.043  21.946  0.00  0.00    +0.000 C 
ATOM     16  C   UNL     1      -0.181   9.350  20.673  0.00  0.00    +0.000 C 
ATOM     17  C   UNL     1      -0.512  10.786  20.327  0.00  0.00    +0.000 C 
ATOM     18  C   UNL     1      -0.009  11.588  19.105  0.00  0.00    +0.000 C 
ATOM     19  C   UNL     1      -1.248  12.573  18.766  0.00  0.00    +0.000 C 
ENDROOT
BRANCH  10  20
ATOM     20  O   UNL     1      -4.899  12.436  23.212  0.00  0.00    +0.000 OA
ATOM     21  H   UNL     1      -5.338  11.575  23.191  0.00  0.00    +0.000 HD
ENDBRANCH  10  20
BRANCH  14  22
ATOM     22  O   UNL     1       0.312   9.508  24.232  0.00  0.00    +0.000 OA
ATOM     23  H   UNL     1       0.954   8.828  23.954  0.00  0.00    +0.000 HD
ENDBRANCH  14  22
TORSDOF 2
ENDMDL
MODEL 8
REMARK VINA RESULT:      -6.2      9.630     11.312
REMARK  Name = 
REMARK  3 active torsions:
REMARK  status: ('A' for Active; 'I' for Inactive)
REMARK    1  A    between atoms: C_1  and  N_2
REMARK    2  A    between atoms: C_10  and  O_11
REMARK    3  A    between atoms: C_15  and  O_16
REMARK                            x       y       z     vdW  Elec       q    Type
REMARK                         _______ _______ _______ _____ _____    ______ ____
ROOT
ATOM      1  C   UNL     1       6.805  16.062  21.726  0.00  0.00    +0.000 C 
ATOM      2  N   UNL     1       7.545  15.048  20.975  0.00  0.00    +0.000 NA
ATOM      3  C   UNL     1       6.846  14.635  19.756  0.00  0.00    +0.000 C 
ATOM      4  C   UNL     1       7.731  14.141  18.658  0.00  0.00    +0.000 C 
ATOM      5  C   UNL     1       9.055  13.479  19.138  0.00  0.00    +0.000 C 
ATOM      6  C   UNL     1      10.057  14.251  18.355  0.00  0.00    +0.000 A 
ATOM      7  C   UNL     1      10.404  15.568  18.701  0.00  0.00    +0.000 A 
ATOM      8  C   UNL     1      11.480  16.089  17.999  0.00  0.00    +0.000 A 
ATOM      9  C   UNL     1      12.106  15.297  16.995  0.00  0.00    +0.000 A 
ATOM     10  C   UNL     1      11.710  13.964  16.721  0.00  0.00    +0.000 A 
ATOM     11  C   UNL     1      10.687  13.441  17.439  0.00  0.00    +0.000 A 
ATOM     12  O   UNL     1      10.226  12.147  17.462  0.00  0.00    +0.000 OA
ATOM     13  C   UNL     1       9.263  12.061  18.576  0.00  0.00    +0.000 C 
ATOM     14  C   UNL     1       9.726  10.992  19.603  0.00  0.00    +0.000 C 
ATOM     15  C   UNL     1       9.621  11.392  21.050  0.00  0.00    +0.000 C 
ATOM     16  C   UNL     1       9.935  12.634  21.459  0.00  0.00    +0.000 C 
ATOM     17  C   UNL     1       9.629  13.802  20.547  0.00  0.00    +0.000 C 
ATOM     18  C   UNL     1       9.001  15.156  20.948  0.00  0.00    +0.000 C 
ATOM     19  C   UNL     1       9.698  16.209  19.934  0.00  0.00    +0.000 C 
ENDROOT
BRANCH  10  20
ATOM     20  O   UNL     1      12.332  13.209  15.789  0.00  0.00    +0.000 OA
ATOM     21  H   UNL     1      12.404  12.303  16.118  0.00  0.00    +0.000 HD
ENDBRANCH  10  20
BRANCH  14  22
ATOM     22  O   UNL     1       8.914   9.815  19.472  0.00  0.00    +0.000 OA
ATOM     23  H   UNL     1       8.777   9.682  18.516  0.00  0.00    +0.000 HD
ENDBRANCH  14  22
TORSDOF 2
ENDMDL
MODEL 9
REMARK VINA RESULT:      -6.1      9.094     10.250
REMARK  Name = 
REMARK  3 active torsions:
REMARK  status: ('A' for Active; 'I' for Inactive)
REMARK    1  A    between atoms: C_1  and  N_2
REMARK    2  A    between atoms: C_10  and  O_11
REMARK    3  A    between atoms: C_15  and  O_16
REMARK                            x       y       z     vdW  Elec       q    Type
REMARK                         _______ _______ _______ _____ _____    ______ ____
ROOT
ATOM      1  C   UNL     1      12.261  15.559  17.395  0.00  0.00    +0.000 C 
ATOM      2  N   UNL     1      11.483  14.462  17.969  0.00  0.00    +0.000 NA
ATOM      3  C   UNL     1      12.333  13.396  18.506  0.00  0.00    +0.000 C 
ATOM      4  C   UNL     1      11.726  12.605  19.618  0.00  0.00    +0.000 C 
ATOM      5  C   UNL     1      10.174  12.505  19.573  0.00  0.00    +0.000 C 
ATOM      6  C   UNL     1       9.821  12.973  20.940  0.00  0.00    +0.000 A 
ATOM      7  C   UNL     1       9.882  14.332  21.291  0.00  0.00    +0.000 A 
ATOM      8  C   UNL     1       9.348  14.636  22.535  0.00  0.00    +0.000 A 
ATOM      9  C   UNL     1       8.831  13.587  23.346  0.00  0.00    +0.000 A 
ATOM     10  C   UNL     1       8.784  12.239  22.908  0.00  0.00    +0.000 A 
ATOM     11  C   UNL     1       9.265  11.951  21.676  0.00  0.00    +0.000 A 
ATOM     12  O   UNL     1       9.196  10.767  20.981  0.00  0.00    +0.000 OA
ATOM     13  C   UNL     1       9.658  11.054  19.610  0.00  0.00    +0.000 C 
ATOM     14  C   UNL     1       8.541  10.713  18.586  0.00  0.00    +0.000 C 
ATOM     15  C   UNL     1       8.319  11.732  17.501  0.00  0.00    +0.000 C 
ATOM     16  C   UNL     1       8.363  13.051  17.758  0.00  0.00    +0.000 C 
ATOM     17  C   UNL     1       9.341  13.561  18.793  0.00  0.00    +0.000 C 
ATOM     18  C   UNL     1      10.253  14.803  18.679  0.00  0.00    +0.000 C 
ATOM     19  C   UNL     1      10.342  15.347  20.202  0.00  0.00    +0.000 C 
ENDROOT
BRANCH  10  20
ATOM     20  O   UNL     1       8.261  11.256  23.673  0.00  0.00    +0.000 OA
ATOM     21  H   UNL     1       7.383  11.528  23.974  0.00  0.00    +0.000 HD
ENDBRANCH  10  20
BRANCH  14  22
ATOM     22  O   UNL     1       8.870   9.493  17.904  0.00  0.00    +0.000 OA
ATOM     23  H   UNL     1       9.843   9.454  17.866  0.00  0.00    +0.000 HD
ENDBRANCH  14  22
TORSDOF 2
ENDMDL
