MODEL 1
REMARK VINA RESULT:      -8.3      0.000      0.000
REMARK  Name = 
REMARK  13 active torsions:
REMARK  status: ('A' for Active; 'I' for Inactive)
REMARK    1  A    between atoms: CB_1  and  CA_2
REMARK    2  A    between atoms: CA_2  and  N_3
REMARK    3  A    between atoms: CA_2  and  C_28
REMARK    4  A    between atoms: C_4  and  C_6
REMARK    5  A    between atoms: C_9  and  C_10
REMARK    6  A    between atoms: C_10  and  N_11
REMARK    7  A    between atoms: C_12  and  C_14
REMARK    8  A    between atoms: C_19  and  O_21
REMARK    9  A    between atoms: O_21  and  C_22
REMARK   10  A    between atoms: C_22  and  C_23
REMARK   11  A    between atoms: C_22  and  C_24
REMARK   12  A    between atoms: C_22  and  C_25
REMARK   13  A    between atoms: C_28  and  OXT_30
REMARK                            x       y       z     vdW  Elec       q    Type
REMARK                         _______ _______ _______ _____ _____    ______ ____
ROOT
ATOM      1  C   UNK A   0       1.252   8.118  20.756  0.00  0.00    +0.000 C 
ENDROOT
BRANCH   1   5
ATOM      2  C   UNK A   0       2.958   5.106  17.999  0.00  0.00    +0.000 C 
ATOM      3  C   UNK A   0       2.793   4.752  19.481  0.00  0.00    +0.000 C 
ATOM      4  C   UNK A   0       1.835   5.698  20.203  0.00  0.00    +0.000 C 
ATOM      5  C   UNK A   0       2.260   7.168  20.069  0.00  0.00    +0.000 C 
ATOM      6  C   UNK A   0       2.411   7.532  18.582  0.00  0.00    +0.000 C 
ATOM      7  C   UNK A   0       3.355   6.583  17.841  0.00  0.00    +0.000 C 
BRANCH   2   9
ATOM      8  N   ALA A   1       4.807   4.802  16.417  0.00  0.00    +0.000 N 
ATOM      9  C   UNK A   0       3.998   4.190  17.346  0.00  0.00    +0.000 C 
ATOM     10  O   UNK A   0       4.123   3.003  17.632  0.00  0.00    +0.000 OA
ATOM     11  H   ALA A   1       4.717   5.794  16.218  0.00  0.00    +0.000 HD
BRANCH   8  13
ATOM     12  CB  ALA A   1       5.563   4.116  14.181  0.00  0.00    +0.000 C 
ATOM     13  CA  ALA A   1       5.821   4.058  15.681  0.00  0.00    +0.000 C 
BRANCH  13  14
ATOM     14  C   ALA A   1       7.200   4.640  15.990  0.00  0.00    +0.000 C 
ATOM     15  O   ALA A   1       7.834   4.381  17.004  0.00  0.00    +0.000 OA
BRANCH  14  16
ATOM     16  OXT ALA A   1       7.654   5.503  15.049  0.00  0.00    +0.000 OA
ATOM     17  HXT ALA A   1       8.160   5.083  14.327  0.00  0.00    +0.000 HD
ENDBRANCH  14  16
ENDBRANCH  13  14
ENDBRANCH   8  13
ENDBRANCH   2   9
ENDBRANCH   1   5
BRANCH   1  18
ATOM     18  N   UNK A   0       1.091   9.374  20.040  0.00  0.00    +0.000 N 
ATOM     19  C   UNK A   0       0.746  10.550  20.686  0.00  0.00    +0.000 C 
ATOM     20  O   UNK A   0       0.534  10.613  21.899  0.00  0.00    +0.000 OA
ATOM     21  H   UNK A   0       0.868   9.326  19.052  0.00  0.00    +0.000 HD
BRANCH  19  22
ATOM     22  C   UNK A   0       0.677  11.784  19.753  0.00  0.00    +0.000 C 
ATOM     23  C   UNK A   0       0.886  13.061  20.583  0.00  0.00    +0.000 C 
ATOM     24  C   UNK A   0       0.447  14.173  19.643  0.00  0.00    +0.000 C 
ATOM     25  C   UNK A   0      -0.657  13.537  18.808  0.00  0.00    +0.000 C 
ATOM     26  N   UNK A   0      -0.588  12.114  19.094  0.00  0.00    +0.000 N 
ATOM     27  C   UNK A   0      -1.360  11.195  18.440  0.00  0.00    +0.000 C 
ATOM     28  O   UNK A   0      -1.087  10.005  18.397  0.00  0.00    +0.000 OA
BRANCH  27  29
ATOM     29  O   UNK A   0      -2.468  11.770  17.882  0.00  0.00    +0.000 OA
BRANCH  29  30
ATOM     30  C   UNK A   0      -3.397  10.975  17.099  0.00  0.00    +0.000 C 
ATOM     31  C   UNK A   0      -3.770   9.675  17.820  0.00  0.00    +0.000 C 
ATOM     32  C   UNK A   0      -4.673  11.828  16.948  0.00  0.00    +0.000 C 
ATOM     33  C   UNK A   0      -2.829  10.721  15.701  0.00  0.00    +0.000 C 
ENDBRANCH  29  30
ENDBRANCH  27  29
ENDBRANCH  19  22
ENDBRANCH   1  18
TORSDOF 9
ENDMDL
MODEL 2
REMARK VINA RESULT:      -8.3      0.566      1.106
REMARK  Name = 
REMARK  13 active torsions:
REMARK  status: ('A' for Active; 'I' for Inactive)
REMARK    1  A    between atoms: CB_1  and  CA_2
REMARK    2  A    between atoms: CA_2  and  N_3
REMARK    3  A    between atoms: CA_2  and  C_28
REMARK    4  A    between atoms: C_4  and  C_6
REMARK    5  A    between atoms: C_9  and  C_10
REMARK    6  A    between atoms: C_10  and  N_11
REMARK    7  A    between atoms: C_12  and  C_14
REMARK    8  A    between atoms: C_19  and  O_21
REMARK    9  A    between atoms: O_21  and  C_22
REMARK   10  A    between atoms: C_22  and  C_23
REMARK   11  A    between atoms: C_22  and  C_24
REMARK   12  A    between atoms: C_22  and  C_25
REMARK   13  A    between atoms: C_28  and  OXT_30
REMARK                            x       y       z     vdW  Elec       q    Type
REMARK                         _______ _______ _______ _____ _____    ______ ____
ROOT
ATOM      1  C   UNK A   0       1.080   8.163  21.070  0.00  0.00    +0.000 C 
ENDROOT
BRANCH   1   5
ATOM      2  C   UNK A   0       2.723   5.213  18.210  0.00  0.00    +0.000 C 
ATOM      3  C   UNK A   0       2.607   4.833  19.691  0.00  0.00    +0.000 C 
ATOM      4  C   UNK A   0       1.664   5.758  20.458  0.00  0.00    +0.000 C 
ATOM      5  C   UNK A   0       2.074   7.233  20.337  0.00  0.00    +0.000 C 
ATOM      6  C   UNK A   0       2.175   7.624  18.852  0.00  0.00    +0.000 C 
ATOM      7  C   UNK A   0       3.103   6.695  18.066  0.00  0.00    +0.000 C 
BRANCH   2   9
ATOM      8  N   ALA A   1       4.810   4.985  16.944  0.00  0.00    +0.000 N 
ATOM      9  C   UNK A   0       3.749   4.317  17.510  0.00  0.00    +0.000 C 
ATOM     10  O   UNK A   0       3.656   3.094  17.465  0.00  0.00    +0.000 OA
ATOM     11  H   ALA A   1       4.895   5.994  17.021  0.00  0.00    +0.000 HD
BRANCH   8  13
ATOM     12  CB  ALA A   1       5.585   4.312  14.710  0.00  0.00    +0.000 C 
ATOM     13  CA  ALA A   1       5.852   4.278  16.209  0.00  0.00    +0.000 C 
BRANCH  13  14
ATOM     14  C   ALA A   1       7.206   4.921  16.506  0.00  0.00    +0.000 C 
ATOM     15  O   ALA A   1       7.525   6.038  16.124  0.00  0.00    +0.000 OA
BRANCH  14  16
ATOM     16  OXT ALA A   1       8.047   4.125  17.210  0.00  0.00    +0.000 OA
ATOM     17  HXT ALA A   1       8.502   3.446  16.676  0.00  0.00    +0.000 HD
ENDBRANCH  14  16
ENDBRANCH  13  14
ENDBRANCH   8  13
ENDBRANCH   2   9
ENDBRANCH   1   5
BRANCH   1  18
ATOM     18  N   UNK A   0       0.971   9.471  20.444  0.00  0.00    +0.000 N 
ATOM     19  C   UNK A   0       0.168  10.473  20.964  0.00  0.00    +0.000 C 
ATOM     20  O   UNK A   0      -0.520  10.324  21.976  0.00  0.00    +0.000 OA
ATOM     21  H   UNK A   0       1.177   9.535  19.453  0.00  0.00    +0.000 HD
BRANCH  19  22
ATOM     22  C   UNK A   0       0.233  11.805  20.178  0.00  0.00    +0.000 C 
ATOM     23  C   UNK A   0       0.001  12.978  21.144  0.00  0.00    +0.000 C 
ATOM     24  C   UNK A   0      -0.264  14.155  20.218  0.00  0.00    +0.000 C 
ATOM     25  C   UNK A   0      -0.956  13.530  19.014  0.00  0.00    +0.000 C 
ATOM     26  N   UNK A   0      -0.794  12.095  19.175  0.00  0.00    +0.000 N 
ATOM     27  C   UNK A   0      -1.194  11.200  18.223  0.00  0.00    +0.000 C 
ATOM     28  O   UNK A   0      -0.767  10.057  18.162  0.00  0.00    +0.000 OA
BRANCH  27  29
ATOM     29  O   UNK A   0      -2.137  11.734  17.390  0.00  0.00    +0.000 OA
BRANCH  29  30
ATOM     30  C   UNK A   0      -3.170  10.894  16.810  0.00  0.00    +0.000 C 
ATOM     31  C   UNK A   0      -2.748  10.350  15.441  0.00  0.00    +0.000 C 
ATOM     32  C   UNK A   0      -3.347   9.703  17.771  0.00  0.00    +0.000 C 
ATOM     33  C   UNK A   0      -4.498  11.654  16.748  0.00  0.00    +0.000 C 
ENDBRANCH  29  30
ENDBRANCH  27  29
ENDBRANCH  19  22
ENDBRANCH   1  18
TORSDOF 9
ENDMDL
MODEL 3
REMARK VINA RESULT:      -8.1      0.868      1.197
REMARK  Name = 
REMARK  13 active torsions:
REMARK  status: ('A' for Active; 'I' for Inactive)
REMARK    1  A    between atoms: CB_1  and  CA_2
REMARK    2  A    between atoms: CA_2  and  N_3
REMARK    3  A    between atoms: CA_2  and  C_28
REMARK    4  A    between atoms: C_4  and  C_6
REMARK    5  A    between atoms: C_9  and  C_10
REMARK    6  A    between atoms: C_10  and  N_11
REMARK    7  A    between atoms: C_12  and  C_14
REMARK    8  A    between atoms: C_19  and  O_21
REMARK    9  A    between atoms: O_21  and  C_22
REMARK   10  A    between atoms: C_22  and  C_23
REMARK   11  A    between atoms: C_22  and  C_24
REMARK   12  A    between atoms: C_22  and  C_25
REMARK   13  A    between atoms: C_28  and  OXT_30
REMARK                            x       y       z     vdW  Elec       q    Type
REMARK                         _______ _______ _______ _____ _____    ______ ____
ROOT
ATOM      1  C   UNK A   0       1.136   8.164  21.339  0.00  0.00    +0.000 C 
ENDROOT
BRANCH   1   5
ATOM      2  C   UNK A   0       2.368   5.301  18.198  0.00  0.00    +0.000 C 
ATOM      3  C   UNK A   0       2.301   4.828  19.655  0.00  0.00    +0.000 C 
ATOM      4  C   UNK A   0       1.482   5.769  20.536  0.00  0.00    +0.000 C 
ATOM      5  C   UNK A   0       2.007   7.212  20.488  0.00  0.00    +0.000 C 
ATOM      6  C   UNK A   0       2.060   7.697  19.029  0.00  0.00    +0.000 C 
ATOM      7  C   UNK A   0       2.863   6.755  18.130  0.00  0.00    +0.000 C 
BRANCH   2   9
ATOM      8  N   ALA A   1       4.536   4.872  17.137  0.00  0.00    +0.000 N 
ATOM      9  C   UNK A   0       3.276   4.378  17.380  0.00  0.00    +0.000 C 
ATOM     10  O   UNK A   0       2.926   3.271  16.981  0.00  0.00    +0.000 OA
ATOM     11  H   ALA A   1       4.826   5.773  17.505  0.00  0.00    +0.000 HD
BRANCH   8  13
ATOM     12  CB  ALA A   1       5.491   4.589  14.889  0.00  0.00    +0.000 C 
ATOM     13  CA  ALA A   1       5.506   4.129  16.341  0.00  0.00    +0.000 C 
BRANCH  13  14
ATOM     14  C   ALA A   1       6.902   4.327  16.930  0.00  0.00    +0.000 C 
ATOM     15  O   ALA A   1       7.893   4.578  16.258  0.00  0.00    +0.000 OA
BRANCH  14  16
ATOM     16  OXT ALA A   1       6.957   4.169  18.275  0.00  0.00    +0.000 OA
ATOM     17  HXT ALA A   1       7.471   3.393  18.569  0.00  0.00    +0.000 HD
ENDBRANCH  14  16
ENDBRANCH  13  14
ENDBRANCH   8  13
ENDBRANCH   2   9
ENDBRANCH   1   5
BRANCH   1  18
ATOM     18  N   UNK A   0       0.997   9.482  20.739  0.00  0.00    +0.000 N 
ATOM     19  C   UNK A   0       0.113  10.427  21.234  0.00  0.00    +0.000 C 
ATOM     20  O   UNK A   0      -0.625  10.216  22.198  0.00  0.00    +0.000 OA
ATOM     21  H   UNK A   0       1.258   9.583  19.764  0.00  0.00    +0.000 HD
BRANCH  19  22
ATOM     22  C   UNK A   0       0.155  11.781  20.485  0.00  0.00    +0.000 C 
ATOM     23  C   UNK A   0      -0.254  12.908  21.448  0.00  0.00    +0.000 C 
ATOM     24  C   UNK A   0      -0.514  14.089  20.525  0.00  0.00    +0.000 C 
ATOM     25  C   UNK A   0      -1.039  13.449  19.246  0.00  0.00    +0.000 C 
ATOM     26  N   UNK A   0      -0.788  12.026  19.392  0.00  0.00    +0.000 N 
ATOM     27  C   UNK A   0      -1.027  11.131  18.388  0.00  0.00    +0.000 C 
ATOM     28  O   UNK A   0      -0.513  10.023  18.345  0.00  0.00    +0.000 OA
BRANCH  27  29
ATOM     29  O   UNK A   0      -1.922  11.620  17.476  0.00  0.00    +0.000 OA
BRANCH  29  30
ATOM     30  C   UNK A   0      -3.249  11.041  17.362  0.00  0.00    +0.000 C 
ATOM     31  C   UNK A   0      -4.272  11.811  18.206  0.00  0.00    +0.000 C 
ATOM     32  C   UNK A   0      -3.650  11.171  15.880  0.00  0.00    +0.000 C 
ATOM     33  C   UNK A   0      -3.211   9.552  17.715  0.00  0.00    +0.000 C 
ENDBRANCH  29  30
ENDBRANCH  27  29
ENDBRANCH  19  22
ENDBRANCH   1  18
TORSDOF 9
ENDMDL
MODEL 4
REMARK VINA RESULT:      -8.0      1.830      3.606
REMARK  Name = 
REMARK  13 active torsions:
REMARK  status: ('A' for Active; 'I' for Inactive)
REMARK    1  A    between atoms: CB_1  and  CA_2
REMARK    2  A    between atoms: CA_2  and  N_3
REMARK    3  A    between atoms: CA_2  and  C_28
REMARK    4  A    between atoms: C_4  and  C_6
REMARK    5  A    between atoms: C_9  and  C_10
REMARK    6  A    between atoms: C_10  and  N_11
REMARK    7  A    between atoms: C_12  and  C_14
REMARK    8  A    between atoms: C_19  and  O_21
REMARK    9  A    between atoms: O_21  and  C_22
REMARK   10  A    between atoms: C_22  and  C_23
REMARK   11  A    between atoms: C_22  and  C_24
REMARK   12  A    between atoms: C_22  and  C_25
REMARK   13  A    between atoms: C_28  and  OXT_30
REMARK                            x       y       z     vdW  Elec       q    Type
REMARK                         _______ _______ _______ _____ _____    ______ ____
ROOT
ATOM      1  C   UNK A   0       1.167   8.239  21.289  0.00  0.00    +0.000 C 
ENDROOT
BRANCH   1   5
ATOM      2  C   UNK A   0       2.597   5.439  18.175  0.00  0.00    +0.000 C 
ATOM      3  C   UNK A   0       2.621   4.998  19.643  0.00  0.00    +0.000 C 
ATOM      4  C   UNK A   0       1.735   5.872  20.529  0.00  0.00    +0.000 C 
ATOM      5  C   UNK A   0       2.107   7.359  20.432  0.00  0.00    +0.000 C 
ATOM      6  C   UNK A   0       2.067   7.811  18.962  0.00  0.00    +0.000 C 
ATOM      7  C   UNK A   0       2.936   6.933  18.058  0.00  0.00    +0.000 C 
BRANCH   2   9
ATOM      8  N   ALA A   1       4.781   5.192  17.090  0.00  0.00    +0.000 N 
ATOM      9  C   UNK A   0       3.570   4.593  17.349  0.00  0.00    +0.000 C 
ATOM     10  O   UNK A   0       3.312   3.459  16.957  0.00  0.00    +0.000 OA
ATOM     11  H   ALA A   1       4.997   6.116  17.452  0.00  0.00    +0.000 HD
BRANCH   8  13
ATOM     12  CB  ALA A   1       5.587   4.797  14.801  0.00  0.00    +0.000 C 
ATOM     13  CA  ALA A   1       5.802   4.532  16.285  0.00  0.00    +0.000 C 
BRANCH  13  14
ATOM     14  C   ALA A   1       7.182   5.036  16.705  0.00  0.00    +0.000 C 
ATOM     15  O   ALA A   1       8.007   4.348  17.290  0.00  0.00    +0.000 OA
BRANCH  14  16
ATOM     16  OXT ALA A   1       7.407   6.337  16.398  0.00  0.00    +0.000 OA
ATOM     17  HXT ALA A   1       6.952   6.973  16.983  0.00  0.00    +0.000 HD
ENDBRANCH  14  16
ENDBRANCH  13  14
ENDBRANCH   8  13
ENDBRANCH   2   9
ENDBRANCH   1   5
BRANCH   1  18
ATOM     18  N   UNK A   0       0.618   9.361  20.545  0.00  0.00    +0.000 N 
ATOM     19  C   UNK A   0      -0.031  10.413  21.171  0.00  0.00    +0.000 C 
ATOM     20  O   UNK A   0      -0.203  10.465  22.390  0.00  0.00    +0.000 OA
ATOM     21  H   UNK A   0       0.379   9.206  19.571  0.00  0.00    +0.000 HD
BRANCH  19  22
ATOM     22  C   UNK A   0      -0.495  11.531  20.205  0.00  0.00    +0.000 C 
ATOM     23  C   UNK A   0      -1.314  10.907  19.063  0.00  0.00    +0.000 C 
ATOM     24  C   UNK A   0      -1.394  12.023  18.031  0.00  0.00    +0.000 C 
ATOM     25  C   UNK A   0      -0.080  12.776  18.200  0.00  0.00    +0.000 C 
ATOM     26  N   UNK A   0       0.504  12.268  19.429  0.00  0.00    +0.000 N 
ATOM     27  C   UNK A   0       1.646  12.789  19.970  0.00  0.00    +0.000 C 
ATOM     28  O   UNK A   0       1.958  12.636  21.141  0.00  0.00    +0.000 OA
BRANCH  27  29
ATOM     29  O   UNK A   0       2.388  13.459  19.037  0.00  0.00    +0.000 OA
BRANCH  29  30
ATOM     30  C   UNK A   0       2.781  14.839  19.260  0.00  0.00    +0.000 C 
ATOM     31  C   UNK A   0       4.028  14.932  20.146  0.00  0.00    +0.000 C 
ATOM     32  C   UNK A   0       3.128  15.418  17.874  0.00  0.00    +0.000 C 
ATOM     33  C   UNK A   0       1.606  15.640  19.827  0.00  0.00    +0.000 C 
ENDBRANCH  29  30
ENDBRANCH  27  29
ENDBRANCH  19  22
ENDBRANCH   1  18
TORSDOF 9
ENDMDL
MODEL 5
REMARK VINA RESULT:      -7.8      3.323     10.414
REMARK  Name = 
REMARK  13 active torsions:
REMARK  status: ('A' for Active; 'I' for Inactive)
REMARK    1  A    between atoms: CB_1  and  CA_2
REMARK    2  A    between atoms: CA_2  and  N_3
REMARK    3  A    between atoms: CA_2  and  C_28
REMARK    4  A    between atoms: C_4  and  C_6
REMARK    5  A    between atoms: C_9  and  C_10
REMARK    6  A    between atoms: C_10  and  N_11
REMARK    7  A    between atoms: C_12  and  C_14
REMARK    8  A    between atoms: C_19  and  O_21
REMARK    9  A    between atoms: O_21  and  C_22
REMARK   10  A    between atoms: C_22  and  C_23
REMARK   11  A    between atoms: C_22  and  C_24
REMARK   12  A    between atoms: C_22  and  C_25
REMARK   13  A    between atoms: C_28  and  OXT_30
REMARK                            x       y       z     vdW  Elec       q    Type
REMARK                         _______ _______ _______ _____ _____    ______ ____
ROOT
ATOM      1  C   UNK A   0       1.585   7.709  21.515  0.00  0.00    +0.000 C 
ENDROOT
BRANCH   1   5
ATOM      2  C   UNK A   0      -0.653  11.522  21.694  0.00  0.00    +0.000 C 
ATOM      3  C   UNK A   0      -0.863  10.481  22.800  0.00  0.00    +0.000 C 
ATOM      4  C   UNK A   0       0.250   9.435  22.835  0.00  0.00    +0.000 C 
ATOM      5  C   UNK A   0       0.419   8.724  21.484  0.00  0.00    +0.000 C 
ATOM      6  C   UNK A   0       0.647   9.764  20.373  0.00  0.00    +0.000 C 
ATOM      7  C   UNK A   0      -0.451  10.830  20.338  0.00  0.00    +0.000 C 
BRANCH   2   9
ATOM      8  N   ALA A   1      -2.809  12.267  22.592  0.00  0.00    +0.000 N 
ATOM      9  C   UNK A   0      -1.840  12.488  21.642  0.00  0.00    +0.000 C 
ATOM     10  O   UNK A   0      -1.926  13.406  20.831  0.00  0.00    +0.000 OA
ATOM     11  H   ALA A   1      -2.708  11.528  23.281  0.00  0.00    +0.000 HD
BRANCH   8  13
ATOM     12  CB  ALA A   1      -5.061  12.580  21.657  0.00  0.00    +0.000 C 
ATOM     13  CA  ALA A   1      -4.020  13.078  22.650  0.00  0.00    +0.000 C 
BRANCH  13  14
ATOM     14  C   ALA A   1      -4.593  13.030  24.066  0.00  0.00    +0.000 C 
ATOM     15  O   ALA A   1      -5.124  12.040  24.550  0.00  0.00    +0.000 OA
BRANCH  14  16
ATOM     16  OXT ALA A   1      -4.491  14.202  24.738  0.00  0.00    +0.000 OA
ATOM     17  HXT ALA A   1      -4.829  14.978  24.250  0.00  0.00    +0.000 HD
ENDBRANCH  14  16
ENDBRANCH  13  14
ENDBRANCH   8  13
ENDBRANCH   2   9
ENDBRANCH   1   5
BRANCH   1  18
ATOM     18  N   UNK A   0       1.693   6.942  20.284  0.00  0.00    +0.000 N 
ATOM     19  C   UNK A   0       2.066   5.608  20.278  0.00  0.00    +0.000 C 
ATOM     20  O   UNK A   0       2.346   4.985  21.304  0.00  0.00    +0.000 OA
ATOM     21  H   UNK A   0       1.859   7.456  19.426  0.00  0.00    +0.000 HD
BRANCH  19  22
ATOM     22  C   UNK A   0       2.070   4.962  18.871  0.00  0.00    +0.000 C 
ATOM     23  C   UNK A   0       1.830   3.449  19.005  0.00  0.00    +0.000 C 
ATOM     24  C   UNK A   0       2.209   2.905  17.636  0.00  0.00    +0.000 C 
ATOM     25  C   UNK A   0       3.319   3.837  17.162  0.00  0.00    +0.000 C 
ATOM     26  N   UNK A   0       3.308   4.955  18.090  0.00  0.00    +0.000 N 
ATOM     27  C   UNK A   0       4.100   6.056  17.921  0.00  0.00    +0.000 C 
ATOM     28  O   UNK A   0       3.870   7.130  18.455  0.00  0.00    +0.000 OA
BRANCH  27  29
ATOM     29  O   UNK A   0       5.175   5.788  17.119  0.00  0.00    +0.000 OA
BRANCH  29  30
ATOM     30  C   UNK A   0       6.513   5.719  17.677  0.00  0.00    +0.000 C 
ATOM     31  C   UNK A   0       6.482   5.354  19.166  0.00  0.00    +0.000 C 
ATOM     32  C   UNK A   0       7.239   4.591  16.918  0.00  0.00    +0.000 C 
ATOM     33  C   UNK A   0       7.265   7.026  17.416  0.00  0.00    +0.000 C 
ENDBRANCH  29  30
ENDBRANCH  27  29
ENDBRANCH  19  22
ENDBRANCH   1  18
TORSDOF 9
ENDMDL
MODEL 6
REMARK VINA RESULT:      -7.8      3.490     10.517
REMARK  Name = 
REMARK  13 active torsions:
REMARK  status: ('A' for Active; 'I' for Inactive)
REMARK    1  A    between atoms: CB_1  and  CA_2
REMARK    2  A    between atoms: CA_2  and  N_3
REMARK    3  A    between atoms: CA_2  and  C_28
REMARK    4  A    between atoms: C_4  and  C_6
REMARK    5  A    between atoms: C_9  and  C_10
REMARK    6  A    between atoms: C_10  and  N_11
REMARK    7  A    between atoms: C_12  and  C_14
REMARK    8  A    between atoms: C_19  and  O_21
REMARK    9  A    between atoms: O_21  and  C_22
REMARK   10  A    between atoms: C_22  and  C_23
REMARK   11  A    between atoms: C_22  and  C_24
REMARK   12  A    between atoms: C_22  and  C_25
REMARK   13  A    between atoms: C_28  and  OXT_30
REMARK                            x       y       z     vdW  Elec       q    Type
REMARK                         _______ _______ _______ _____ _____    ______ ____
ROOT
ATOM      1  C   UNK A   0       1.778   7.894  21.436  0.00  0.00    +0.000 C 
ENDROOT
BRANCH   1   5
ATOM      2  C   UNK A   0      -0.859  11.391  22.066  0.00  0.00    +0.000 C 
ATOM      3  C   UNK A   0      -0.872  10.252  23.092  0.00  0.00    +0.000 C 
ATOM      4  C   UNK A   0       0.352   9.346  22.972  0.00  0.00    +0.000 C 
ATOM      5  C   UNK A   0       0.505   8.763  21.559  0.00  0.00    +0.000 C 
ATOM      6  C   UNK A   0       0.536   9.904  20.527  0.00  0.00    +0.000 C 
ATOM      7  C   UNK A   0      -0.675  10.832  20.647  0.00  0.00    +0.000 C 
BRANCH   2   9
ATOM      8  N   ALA A   1      -2.694  12.281  23.426  0.00  0.00    +0.000 N 
ATOM      9  C   UNK A   0      -2.148  12.212  22.166  0.00  0.00    +0.000 C 
ATOM     10  O   UNK A   0      -2.658  12.784  21.207  0.00  0.00    +0.000 OA
ATOM     11  H   ALA A   1      -2.242  11.834  24.218  0.00  0.00    +0.000 HD
BRANCH   8  13
ATOM     12  CB  ALA A   1      -4.767  12.289  24.748  0.00  0.00    +0.000 C 
ATOM     13  CA  ALA A   1      -3.941  12.993  23.679  0.00  0.00    +0.000 C 
BRANCH  13  14
ATOM     14  C   ALA A   1      -3.628  14.420  24.127  0.00  0.00    +0.000 C 
ATOM     15  O   ALA A   1      -3.468  15.354  23.352  0.00  0.00    +0.000 OA
BRANCH  14  16
ATOM     16  OXT ALA A   1      -3.509  14.560  25.469  0.00  0.00    +0.000 OA
ATOM     17  HXT ALA A   1      -2.613  14.384  25.815  0.00  0.00    +0.000 HD
ENDBRANCH  14  16
ENDBRANCH  13  14
ENDBRANCH   8  13
ENDBRANCH   2   9
ENDBRANCH   1   5
BRANCH   1  18
ATOM     18  N   UNK A   0       1.758   7.037  20.261  0.00  0.00    +0.000 N 
ATOM     19  C   UNK A   0       2.052   5.684  20.331  0.00  0.00    +0.000 C 
ATOM     20  O   UNK A   0       2.366   5.119  21.380  0.00  0.00    +0.000 OA
ATOM     21  H   UNK A   0       1.895   7.477  19.357  0.00  0.00    +0.000 HD
BRANCH  19  22
ATOM     22  C   UNK A   0       1.924   4.942  18.978  0.00  0.00    +0.000 C 
ATOM     23  C   UNK A   0       1.665   3.449  19.240  0.00  0.00    +0.000 C 
ATOM     24  C   UNK A   0       1.915   2.801  17.887  0.00  0.00    +0.000 C 
ATOM     25  C   UNK A   0       3.000   3.667  17.258  0.00  0.00    +0.000 C 
ATOM     26  N   UNK A   0       3.091   4.847  18.099  0.00  0.00    +0.000 N 
ATOM     27  C   UNK A   0       3.888   5.912  17.787  0.00  0.00    +0.000 C 
ATOM     28  O   UNK A   0       3.727   7.027  18.259  0.00  0.00    +0.000 OA
BRANCH  27  29
ATOM     29  O   UNK A   0       4.886   5.560  16.920  0.00  0.00    +0.000 OA
BRANCH  29  30
ATOM     30  C   UNK A   0       6.269   5.526  17.360  0.00  0.00    +0.000 C 
ATOM     31  C   UNK A   0       6.391   4.970  18.784  0.00  0.00    +0.000 C 
ATOM     32  C   UNK A   0       7.003   4.568  16.402  0.00  0.00    +0.000 C 
ATOM     33  C   UNK A   0       6.904   6.912  17.223  0.00  0.00    +0.000 C 
ENDBRANCH  29  30
ENDBRANCH  27  29
ENDBRANCH  19  22
ENDBRANCH   1  18
TORSDOF 9
ENDMDL
MODEL 7
REMARK VINA RESULT:      -7.7      2.123      3.483
REMARK  Name = 
REMARK  13 active torsions:
REMARK  status: ('A' for Active; 'I' for Inactive)
REMARK    1  A    between atoms: CB_1  and  CA_2
REMARK    2  A    between atoms: CA_2  and  N_3
REMARK    3  A    between atoms: CA_2  and  C_28
REMARK    4  A    between atoms: C_4  and  C_6
REMARK    5  A    between atoms: C_9  and  C_10
REMARK    6  A    between atoms: C_10  and  N_11
REMARK    7  A    between atoms: C_12  and  C_14
REMARK    8  A    between atoms: C_19  and  O_21
REMARK    9  A    between atoms: O_21  and  C_22
REMARK   10  A    between atoms: C_22  and  C_23
REMARK   11  A    between atoms: C_22  and  C_24
REMARK   12  A    between atoms: C_22  and  C_25
REMARK   13  A    between atoms: C_28  and  OXT_30
REMARK                            x       y       z     vdW  Elec       q    Type
REMARK                         _______ _______ _______ _____ _____    ______ ____
ROOT
ATOM      1  C   UNK A   0       1.247   8.236  20.763  0.00  0.00    +0.000 C 
ENDROOT
BRANCH   1   5
ATOM      2  C   UNK A   0       2.922   5.175  18.041  0.00  0.00    +0.000 C 
ATOM      3  C   UNK A   0       2.788   4.853  19.534  0.00  0.00    +0.000 C 
ATOM      4  C   UNK A   0       1.836   5.808  20.253  0.00  0.00    +0.000 C 
ATOM      5  C   UNK A   0       2.249   7.277  20.078  0.00  0.00    +0.000 C 
ATOM      6  C   UNK A   0       2.368   7.610  18.581  0.00  0.00    +0.000 C 
ATOM      7  C   UNK A   0       3.305   6.650  17.843  0.00  0.00    +0.000 C 
BRANCH   2   9
ATOM      8  N   ALA A   1       4.838   4.879  16.540  0.00  0.00    +0.000 N 
ATOM      9  C   UNK A   0       3.955   4.252  17.389  0.00  0.00    +0.000 C 
ATOM     10  O   UNK A   0       4.016   3.046  17.610  0.00  0.00    +0.000 OA
ATOM     11  H   ALA A   1       4.801   5.884  16.394  0.00  0.00    +0.000 HD
BRANCH   8  13
ATOM     12  CB  ALA A   1       5.613   4.189  14.311  0.00  0.00    +0.000 C 
ATOM     13  CA  ALA A   1       5.858   4.133  15.813  0.00  0.00    +0.000 C 
BRANCH  13  14
ATOM     14  C   ALA A   1       7.235   4.714  16.132  0.00  0.00    +0.000 C 
ATOM     15  O   ALA A   1       7.916   4.359  17.085  0.00  0.00    +0.000 OA
BRANCH  14  16
ATOM     16  OXT ALA A   1       7.628   5.691  15.280  0.00  0.00    +0.000 OA
ATOM     17  HXT ALA A   1       7.575   6.594  15.648  0.00  0.00    +0.000 HD
ENDBRANCH  14  16
ENDBRANCH  13  14
ENDBRANCH   8  13
ENDBRANCH   2   9
ENDBRANCH   1   5
BRANCH   1  18
ATOM     18  N   UNK A   0       1.350   9.600  20.268  0.00  0.00    +0.000 N 
ATOM     19  C   UNK A   0       0.257  10.285  19.763  0.00  0.00    +0.000 C 
ATOM     20  O   UNK A   0      -0.867   9.787  19.681  0.00  0.00    +0.000 OA
ATOM     21  H   UNK A   0       2.260   9.915  19.949  0.00  0.00    +0.000 HD
BRANCH  19  22
ATOM     22  C   UNK A   0       0.568  11.740  19.337  0.00  0.00    +0.000 C 
ATOM     23  C   UNK A   0       1.889  11.769  18.552  0.00  0.00    +0.000 C 
ATOM     24  C   UNK A   0       2.249  13.246  18.512  0.00  0.00    +0.000 C 
ATOM     25  C   UNK A   0       1.702  13.795  19.824  0.00  0.00    +0.000 C 
ATOM     26  N   UNK A   0       0.862  12.741  20.365  0.00  0.00    +0.000 N 
ATOM     27  C   UNK A   0       0.107  12.908  21.492  0.00  0.00    +0.000 C 
ATOM     28  O   UNK A   0      -0.849  12.199  21.765  0.00  0.00    +0.000 OA
BRANCH  27  29
ATOM     29  O   UNK A   0       0.576  13.933  22.268  0.00  0.00    +0.000 OA
BRANCH  29  30
ATOM     30  C   UNK A   0      -0.292  15.037  22.637  0.00  0.00    +0.000 C 
ATOM     31  C   UNK A   0      -1.114  14.711  23.889  0.00  0.00    +0.000 C 
ATOM     32  C   UNK A   0       0.636  16.224  22.962  0.00  0.00    +0.000 C 
ATOM     33  C   UNK A   0      -1.175  15.436  21.452  0.00  0.00    +0.000 C 
ENDBRANCH  29  30
ENDBRANCH  27  29
ENDBRANCH  19  22
ENDBRANCH   1  18
TORSDOF 9
ENDMDL
MODEL 8
REMARK VINA RESULT:      -7.7      1.584      3.351
REMARK  Name = 
REMARK  13 active torsions:
REMARK  status: ('A' for Active; 'I' for Inactive)
REMARK    1  A    between atoms: CB_1  and  CA_2
REMARK    2  A    between atoms: CA_2  and  N_3
REMARK    3  A    between atoms: CA_2  and  C_28
REMARK    4  A    between atoms: C_4  and  C_6
REMARK    5  A    between atoms: C_9  and  C_10
REMARK    6  A    between atoms: C_10  and  N_11
REMARK    7  A    between atoms: C_12  and  C_14
REMARK    8  A    between atoms: C_19  and  O_21
REMARK    9  A    between atoms: O_21  and  C_22
REMARK   10  A    between atoms: C_22  and  C_23
REMARK   11  A    between atoms: C_22  and  C_24
REMARK   12  A    between atoms: C_22  and  C_25
REMARK   13  A    between atoms: C_28  and  OXT_30
REMARK                            x       y       z     vdW  Elec       q    Type
REMARK                         _______ _______ _______ _____ _____    ______ ____
ROOT
ATOM      1  C   UNK A   0       1.240   8.437  21.242  0.00  0.00    +0.000 C 
ENDROOT
BRANCH   1   5
ATOM      2  C   UNK A   0       2.554   5.531  18.174  0.00  0.00    +0.000 C 
ATOM      3  C   UNK A   0       2.565   5.115  19.649  0.00  0.00    +0.000 C 
ATOM      4  C   UNK A   0       1.716   6.037  20.522  0.00  0.00    +0.000 C 
ATOM      5  C   UNK A   0       2.143   7.508  20.398  0.00  0.00    +0.000 C 
ATOM      6  C   UNK A   0       2.117   7.935  18.921  0.00  0.00    +0.000 C 
ATOM      7  C   UNK A   0       2.950   7.009  18.031  0.00  0.00    +0.000 C 
BRANCH   2   9
ATOM      8  N   ALA A   1       4.698   5.208  17.031  0.00  0.00    +0.000 N 
ATOM      9  C   UNK A   0       3.493   4.635  17.362  0.00  0.00    +0.000 C 
ATOM     10  O   UNK A   0       3.213   3.484  17.037  0.00  0.00    +0.000 OA
ATOM     11  H   ALA A   1       4.933   6.147  17.337  0.00  0.00    +0.000 HD
BRANCH   8  13
ATOM     12  CB  ALA A   1       5.442   4.713  14.740  0.00  0.00    +0.000 C 
ATOM     13  CA  ALA A   1       5.686   4.497  16.228  0.00  0.00    +0.000 C 
BRANCH  13  14
ATOM     14  C   ALA A   1       7.086   4.988  16.596  0.00  0.00    +0.000 C 
ATOM     15  O   ALA A   1       7.785   4.463  17.452  0.00  0.00    +0.000 OA
BRANCH  14  16
ATOM     16  OXT ALA A   1       7.480   6.087  15.908  0.00  0.00    +0.000 OA
ATOM     17  HXT ALA A   1       6.877   6.348  15.185  0.00  0.00    +0.000 HD
ENDBRANCH  14  16
ENDBRANCH  13  14
ENDBRANCH   8  13
ENDBRANCH   2   9
ENDBRANCH   1   5
BRANCH   1  18
ATOM     18  N   UNK A   0       0.462   9.354  20.424  0.00  0.00    +0.000 N 
ATOM     19  C   UNK A   0      -0.438  10.251  20.976  0.00  0.00    +0.000 C 
ATOM     20  O   UNK A   0      -0.655  10.325  22.187  0.00  0.00    +0.000 OA
ATOM     21  H   UNK A   0       0.297   9.095  19.457  0.00  0.00    +0.000 HD
BRANCH  19  22
ATOM     22  C   UNK A   0      -1.126  11.172  19.939  0.00  0.00    +0.000 C 
ATOM     23  C   UNK A   0      -1.460  10.357  18.679  0.00  0.00    +0.000 C 
ATOM     24  C   UNK A   0      -1.786  11.421  17.642  0.00  0.00    +0.000 C 
ATOM     25  C   UNK A   0      -0.893  12.596  18.025  0.00  0.00    +0.000 C 
ATOM     26  N   UNK A   0      -0.364  12.269  19.338  0.00  0.00    +0.000 N 
ATOM     27  C   UNK A   0       0.399  13.142  20.061  0.00  0.00    +0.000 C 
ATOM     28  O   UNK A   0       0.555  13.049  21.269  0.00  0.00    +0.000 OA
BRANCH  27  29
ATOM     29  O   UNK A   0       0.975  14.091  19.262  0.00  0.00    +0.000 OA
BRANCH  29  30
ATOM     30  C   UNK A   0       2.386  14.017  18.928  0.00  0.00    +0.000 C 
ATOM     31  C   UNK A   0       2.826  15.216  18.079  0.00  0.00    +0.000 C 
ATOM     32  C   UNK A   0       3.149  14.065  20.266  0.00  0.00    +0.000 C 
ATOM     33  C   UNK A   0       2.701  12.681  18.250  0.00  0.00    +0.000 C 
ENDBRANCH  29  30
ENDBRANCH  27  29
ENDBRANCH  19  22
ENDBRANCH   1  18
TORSDOF 9
ENDMDL
MODEL 9
REMARK VINA RESULT:      -7.6      2.080      2.910
REMARK  Name = 
REMARK  13 active torsions:
REMARK  status: ('A' for Active; 'I' for Inactive)
REMARK    1  A    between atoms: CB_1  and  CA_2
REMARK    2  A    between atoms: CA_2  and  N_3
REMARK    3  A    between atoms: CA_2  and  C_28
REMARK    4  A    between atoms: C_4  and  C_6
REMARK    5  A    between atoms: C_9  and  C_10
REMARK    6  A    between atoms: C_10  and  N_11
REMARK    7  A    between atoms: C_12  and  C_14
REMARK    8  A    between atoms: C_19  and  O_21
REMARK    9  A    between atoms: O_21  and  C_22
REMARK   10  A    between atoms: C_22  and  C_23
REMARK   11  A    between atoms: C_22  and  C_24
REMARK   12  A    between atoms: C_22  and  C_25
REMARK   13  A    between atoms: C_28  and  OXT_30
REMARK                            x       y       z     vdW  Elec       q    Type
REMARK                         _______ _______ _______ _____ _____    ______ ____
ROOT
ATOM      1  C   UNK A   0       1.193   8.224  20.957  0.00  0.00    +0.000 C 
ENDROOT
BRANCH   1   5
ATOM      2  C   UNK A   0       2.761   5.238  18.092  0.00  0.00    +0.000 C 
ATOM      3  C   UNK A   0       2.609   4.849  19.568  0.00  0.00    +0.000 C 
ATOM      4  C   UNK A   0       1.692   5.803  20.331  0.00  0.00    +0.000 C 
ATOM      5  C   UNK A   0       2.160   7.263  20.228  0.00  0.00    +0.000 C 
ATOM      6  C   UNK A   0       2.297   7.663  18.749  0.00  0.00    +0.000 C 
ATOM      7  C   UNK A   0       3.200   6.705  17.967  0.00  0.00    +0.000 C 
BRANCH   2   9
ATOM      8  N   ALA A   1       4.857   4.939  16.857  0.00  0.00    +0.000 N 
ATOM      9  C   UNK A   0       3.761   4.309  17.398  0.00  0.00    +0.000 C 
ATOM     10  O   UNK A   0       3.619   3.091  17.336  0.00  0.00    +0.000 OA
ATOM     11  H   ALA A   1       4.982   5.943  16.947  0.00  0.00    +0.000 HD
BRANCH   8  13
ATOM     12  CB  ALA A   1       5.655   4.281  14.626  0.00  0.00    +0.000 C 
ATOM     13  CA  ALA A   1       5.881   4.199  16.130  0.00  0.00    +0.000 C 
BRANCH  13  14
ATOM     14  C   ALA A   1       7.258   4.767  16.475  0.00  0.00    +0.000 C 
ATOM     15  O   ALA A   1       8.081   4.178  17.163  0.00  0.00    +0.000 OA
BRANCH  14  16
ATOM     16  OXT ALA A   1       7.480   6.007  15.976  0.00  0.00    +0.000 OA
ATOM     17  HXT ALA A   1       6.730   6.379  15.473  0.00  0.00    +0.000 HD
ENDBRANCH  14  16
ENDBRANCH  13  14
ENDBRANCH   8  13
ENDBRANCH   2   9
ENDBRANCH   1   5
BRANCH   1  18
ATOM     18  N   UNK A   0       0.830   9.375  20.144  0.00  0.00    +0.000 N 
ATOM     19  C   UNK A   0       0.883  10.669  20.635  0.00  0.00    +0.000 C 
ATOM     20  O   UNK A   0       1.221  10.936  21.790  0.00  0.00    +0.000 OA
ATOM     21  H   UNK A   0       0.199   9.219  19.366  0.00  0.00    +0.000 HD
BRANCH  19  22
ATOM     22  C   UNK A   0       0.507  11.753  19.595  0.00  0.00    +0.000 C 
ATOM     23  C   UNK A   0       1.770  12.530  19.192  0.00  0.00    +0.000 C 
ATOM     24  C   UNK A   0       1.222  13.753  18.472  0.00  0.00    +0.000 C 
ATOM     25  C   UNK A   0      -0.101  14.033  19.175  0.00  0.00    +0.000 C 
ATOM     26  N   UNK A   0      -0.358  12.863  19.998  0.00  0.00    +0.000 N 
ATOM     27  C   UNK A   0      -1.519  12.700  20.700  0.00  0.00    +0.000 C 
ATOM     28  O   UNK A   0      -1.908  11.613  21.100  0.00  0.00    +0.000 OA
BRANCH  27  29
ATOM     29  O   UNK A   0      -2.152  13.893  20.916  0.00  0.00    +0.000 OA
BRANCH  29  30
ATOM     30  C   UNK A   0      -2.199  14.474  22.245  0.00  0.00    +0.000 C 
ATOM     31  C   UNK A   0      -2.304  16.002  22.187  0.00  0.00    +0.000 C 
ATOM     32  C   UNK A   0      -3.477  13.925  22.911  0.00  0.00    +0.000 C 
ATOM     33  C   UNK A   0      -0.997  14.007  23.071  0.00  0.00    +0.000 C 
ENDBRANCH  29  30
ENDBRANCH  27  29
ENDBRANCH  19  22
ENDBRANCH   1  18
TORSDOF 9
ENDMDL
