MODEL 1
REMARK VINA RESULT:      -7.4      0.000      0.000
REMARK  Name = 
REMARK  7 active torsions:
REMARK  status: ('A' for Active; 'I' for Inactive)
REMARK    1  A    between atoms: C_1  and  O_2
REMARK    2  A    between atoms: O_2  and  C_3
REMARK    3  A    between atoms: C_3  and  N_4
REMARK    4  A    between atoms: C_3  and  C_8
REMARK    5  A    between atoms: C_5  and  C_6
REMARK    6  A    between atoms: N_10  and  C_11
REMARK    7  A    between atoms: C_11  and  C_12
REMARK                            x       y       z     vdW  Elec       q    Type
REMARK                         _______ _______ _______ _____ _____    ______ ____
ROOT
ATOM      1  C   UNL     1       7.351   4.752  17.721  0.00  0.00    +0.000 C 
ATOM      2  O   UNL     1       8.407   4.117  17.724  0.00  0.00    +0.000 OA
ATOM      3  N   UNL     1       6.449   4.568  18.737  0.00  0.00    +0.000 N 
ATOM      4  H   UNL     1       6.728   3.893  19.437  0.00  0.00    +0.000 HD
ENDROOT
BRANCH   1   5
ATOM      5  C   UNL     1       7.009   5.803  16.613  0.00  0.00    +0.000 C 
BRANCH   5   6
ATOM      6  N   UNL     1       7.072   5.213  15.299  0.00  0.00    +0.000 N 
ATOM      7  C   UNL     1       6.152   4.291  14.878  0.00  0.00    +0.000 C 
ATOM      8  C   UNL     1       6.313   3.888  13.437  0.00  0.00    +0.000 C 
ATOM      9  O   UNL     1       5.280   3.813  15.590  0.00  0.00    +0.000 OA
ATOM     10  H   UNL     1       7.826   5.517  14.698  0.00  0.00    +0.000 HD
ENDBRANCH   5   6
BRANCH   5  12
ATOM     11  C   UNL     1       7.720   7.767  17.771  0.00  0.00    +0.000 C 
ATOM     12  O   UNL     1       7.837   6.960  16.608  0.00  0.00    +0.000 OA
ENDBRANCH   5  12
ENDBRANCH   1   5
BRANCH   3  13
ATOM     13  C   UNL     1       5.203   5.280  18.937  0.00  0.00    +0.000 C 
BRANCH  13  14
ATOM     14  C   UNL     1       4.026   4.394  18.643  0.00  0.00    +0.000 A 
ATOM     15  C   UNL     1       2.855   4.921  18.084  0.00  0.00    +0.000 A 
ATOM     16  C   UNL     1       1.776   4.084  17.796  0.00  0.00    +0.000 A 
ATOM     17  C   UNL     1       1.857   2.720  18.070  0.00  0.00    +0.000 A 
ATOM     18  C   UNL     1       3.011   2.189  18.640  0.00  0.00    +0.000 A 
ATOM     19  C   UNL     1       4.091   3.023  18.929  0.00  0.00    +0.000 A 
ENDBRANCH  13  14
ENDBRANCH   3  13
TORSDOF 5
ENDMDL
MODEL 2
REMARK VINA RESULT:      -7.3      0.546      1.161
REMARK  Name = 
REMARK  7 active torsions:
REMARK  status: ('A' for Active; 'I' for Inactive)
REMARK    1  A    between atoms: C_1  and  O_2
REMARK    2  A    between atoms: O_2  and  C_3
REMARK    3  A    between atoms: C_3  and  N_4
REMARK    4  A    between atoms: C_3  and  C_8
REMARK    5  A    between atoms: C_5  and  C_6
REMARK    6  A    between atoms: N_10  and  C_11
REMARK    7  A    between atoms: C_11  and  C_12
REMARK                            x       y       z     vdW  Elec       q    Type
REMARK                         _______ _______ _______ _____ _____    ______ ____
ROOT
ATOM      1  C   UNL     1       7.222   4.709  17.595  0.00  0.00    +0.000 C 
ATOM      2  O   UNL     1       8.281   4.095  17.743  0.00  0.00    +0.000 OA
ATOM      3  N   UNL     1       6.212   4.544  18.508  0.00  0.00    +0.000 N 
ATOM      4  H   UNL     1       6.419   3.898  19.259  0.00  0.00    +0.000 HD
ENDROOT
BRANCH   1   5
ATOM      5  C   UNL     1       6.994   5.715  16.418  0.00  0.00    +0.000 C 
BRANCH   5   6
ATOM      6  N   UNL     1       7.209   5.080  15.142  0.00  0.00    +0.000 N 
ATOM      7  C   UNL     1       6.196   4.452  14.469  0.00  0.00    +0.000 C 
ATOM      8  C   UNL     1       6.588   3.962  13.102  0.00  0.00    +0.000 C 
ATOM      9  O   UNL     1       5.072   4.280  14.921  0.00  0.00    +0.000 OA
ATOM     10  H   UNL     1       8.145   5.125  14.762  0.00  0.00    +0.000 HD
ENDBRANCH   5   6
BRANCH   5  12
ATOM     11  C   UNL     1       7.611   7.686  17.618  0.00  0.00    +0.000 C 
ATOM     12  O   UNL     1       7.805   6.883  16.462  0.00  0.00    +0.000 OA
ENDBRANCH   5  12
ENDBRANCH   1   5
BRANCH   3  13
ATOM     13  C   UNL     1       4.941   5.238  18.539  0.00  0.00    +0.000 C 
BRANCH  13  14
ATOM     14  C   UNL     1       3.798   4.268  18.451  0.00  0.00    +0.000 A 
ATOM     15  C   UNL     1       4.006   2.952  18.021  0.00  0.00    +0.000 A 
ATOM     16  C   UNL     1       2.939   2.054  17.964  0.00  0.00    +0.000 A 
ATOM     17  C   UNL     1       1.658   2.467  18.328  0.00  0.00    +0.000 A 
ATOM     18  C   UNL     1       1.438   3.778  18.743  0.00  0.00    +0.000 A 
ATOM     19  C   UNL     1       2.502   4.677  18.801  0.00  0.00    +0.000 A 
ENDBRANCH  13  14
ENDBRANCH   3  13
TORSDOF 5
ENDMDL
MODEL 3
REMARK VINA RESULT:      -7.1      1.137      1.320
REMARK  Name = 
REMARK  7 active torsions:
REMARK  status: ('A' for Active; 'I' for Inactive)
REMARK    1  A    between atoms: C_1  and  O_2
REMARK    2  A    between atoms: O_2  and  C_3
REMARK    3  A    between atoms: C_3  and  N_4
REMARK    4  A    between atoms: C_3  and  C_8
REMARK    5  A    between atoms: C_5  and  C_6
REMARK    6  A    between atoms: N_10  and  C_11
REMARK    7  A    between atoms: C_11  and  C_12
REMARK                            x       y       z     vdW  Elec       q    Type
REMARK                         _______ _______ _______ _____ _____    ______ ____
ROOT
ATOM      1  C   UNL     1       6.842   5.040  17.827  0.00  0.00    +0.000 C 
ATOM      2  O   UNL     1       7.821   4.374  18.169  0.00  0.00    +0.000 OA
ATOM      3  N   UNL     1       5.686   4.969  18.562  0.00  0.00    +0.000 N 
ATOM      4  H   UNL     1       5.725   4.345  19.357  0.00  0.00    +0.000 HD
ENDROOT
BRANCH   1   5
ATOM      5  C   UNL     1       6.876   6.007  16.597  0.00  0.00    +0.000 C 
BRANCH   5   6
ATOM      6  N   UNL     1       7.072   5.279  15.368  0.00  0.00    +0.000 N 
ATOM      7  C   UNL     1       6.084   4.505  14.823  0.00  0.00    +0.000 C 
ATOM      8  C   UNL     1       6.437   3.928  13.479  0.00  0.00    +0.000 C 
ATOM      9  O   UNL     1       5.010   4.275  15.364  0.00  0.00    +0.000 OA
ATOM     10  H   UNL     1       7.975   5.372  14.923  0.00  0.00    +0.000 HD
ENDBRANCH   5   6
BRANCH   5  12
ATOM     11  C   UNL     1       7.651   7.988  17.681  0.00  0.00    +0.000 C 
ATOM     12  O   UNL     1       7.868   7.024  16.660  0.00  0.00    +0.000 OA
ENDBRANCH   5  12
ENDBRANCH   1   5
BRANCH   3  13
ATOM     13  C   UNL     1       4.473   5.734  18.356  0.00  0.00    +0.000 C 
BRANCH  13  14
ATOM     14  C   UNL     1       3.272   4.977  18.845  0.00  0.00    +0.000 A 
ATOM     15  C   UNL     1       2.850   5.085  20.176  0.00  0.00    +0.000 A 
ATOM     16  C   UNL     1       1.719   4.393  20.612  0.00  0.00    +0.000 A 
ATOM     17  C   UNL     1       1.010   3.582  19.727  0.00  0.00    +0.000 A 
ATOM     18  C   UNL     1       1.432   3.456  18.406  0.00  0.00    +0.000 A 
ATOM     19  C   UNL     1       2.560   4.147  17.966  0.00  0.00    +0.000 A 
ENDBRANCH  13  14
ENDBRANCH   3  13
TORSDOF 5
ENDMDL
MODEL 4
REMARK VINA RESULT:      -7.0      1.105      1.175
REMARK  Name = 
REMARK  7 active torsions:
REMARK  status: ('A' for Active; 'I' for Inactive)
REMARK    1  A    between atoms: C_1  and  O_2
REMARK    2  A    between atoms: O_2  and  C_3
REMARK    3  A    between atoms: C_3  and  N_4
REMARK    4  A    between atoms: C_3  and  C_8
REMARK    5  A    between atoms: C_5  and  C_6
REMARK    6  A    between atoms: N_10  and  C_11
REMARK    7  A    between atoms: C_11  and  C_12
REMARK                            x       y       z     vdW  Elec       q    Type
REMARK                         _______ _______ _______ _____ _____    ______ ____
ROOT
ATOM      1  C   UNL     1       7.118   4.533  17.254  0.00  0.00    +0.000 C 
ATOM      2  O   UNL     1       8.202   4.111  17.658  0.00  0.00    +0.000 OA
ATOM      3  N   UNL     1       5.957   4.060  17.811  0.00  0.00    +0.000 N 
ATOM      4  H   UNL     1       6.085   3.365  18.535  0.00  0.00    +0.000 HD
ENDROOT
BRANCH   1   5
ATOM      5  C   UNL     1       7.008   5.634  16.146  0.00  0.00    +0.000 C 
BRANCH   5   6
ATOM      6  N   UNL     1       7.406   5.118  14.860  0.00  0.00    +0.000 N 
ATOM      7  C   UNL     1       6.510   4.526  14.011  0.00  0.00    +0.000 C 
ATOM      8  C   UNL     1       7.090   4.167  12.670  0.00  0.00    +0.000 C 
ATOM      9  O   UNL     1       5.345   4.286  14.298  0.00  0.00    +0.000 OA
ATOM     10  H   UNL     1       8.380   5.220  14.610  0.00  0.00    +0.000 HD
ENDBRANCH   5   6
BRANCH   5  12
ATOM     11  C   UNL     1       7.392   7.510  17.572  0.00  0.00    +0.000 C 
ATOM     12  O   UNL     1       7.766   6.811  16.393  0.00  0.00    +0.000 OA
ENDBRANCH   5  12
ENDBRANCH   1   5
BRANCH   3  13
ATOM     13  C   UNL     1       4.607   4.496  17.518  0.00  0.00    +0.000 C 
BRANCH  13  14
ATOM     14  C   UNL     1       3.637   3.951  18.526  0.00  0.00    +0.000 A 
ATOM     15  C   UNL     1       2.265   4.205  18.410  0.00  0.00    +0.000 A 
ATOM     16  C   UNL     1       1.371   3.675  19.341  0.00  0.00    +0.000 A 
ATOM     17  C   UNL     1       1.842   2.897  20.398  0.00  0.00    +0.000 A 
ATOM     18  C   UNL     1       3.206   2.652  20.531  0.00  0.00    +0.000 A 
ATOM     19  C   UNL     1       4.102   3.180  19.602  0.00  0.00    +0.000 A 
ENDBRANCH  13  14
ENDBRANCH   3  13
TORSDOF 5
ENDMDL
MODEL 5
REMARK VINA RESULT:      -6.9      1.615      1.803
REMARK  Name = 
REMARK  7 active torsions:
REMARK  status: ('A' for Active; 'I' for Inactive)
REMARK    1  A    between atoms: C_1  and  O_2
REMARK    2  A    between atoms: O_2  and  C_3
REMARK    3  A    between atoms: C_3  and  N_4
REMARK    4  A    between atoms: C_3  and  C_8
REMARK    5  A    between atoms: C_5  and  C_6
REMARK    6  A    between atoms: N_10  and  C_11
REMARK    7  A    between atoms: C_11  and  C_12
REMARK                            x       y       z     vdW  Elec       q    Type
REMARK                         _______ _______ _______ _____ _____    ______ ____
ROOT
ATOM      1  C   UNL     1       6.478   5.547  19.015  0.00  0.00    +0.000 C 
ATOM      2  O   UNL     1       7.414   5.273  19.768  0.00  0.00    +0.000 OA
ATOM      3  N   UNL     1       5.188   5.381  19.452  0.00  0.00    +0.000 N 
ATOM      4  H   UNL     1       5.101   5.024  20.395  0.00  0.00    +0.000 HD
ENDROOT
BRANCH   1   5
ATOM      5  C   UNL     1       6.700   6.124  17.577  0.00  0.00    +0.000 C 
BRANCH   5   6
ATOM      6  N   UNL     1       6.645   5.080  16.584  0.00  0.00    +0.000 N 
ATOM      7  C   UNL     1       5.997   5.253  15.391  0.00  0.00    +0.000 C 
ATOM      8  C   UNL     1       6.158   4.098  14.440  0.00  0.00    +0.000 C 
ATOM      9  O   UNL     1       5.329   6.238  15.106  0.00  0.00    +0.000 OA
ATOM     10  H   UNL     1       7.115   4.213  16.807  0.00  0.00    +0.000 HD
ENDBRANCH   5   6
BRANCH   5  12
ATOM     11  C   UNL     1       7.838   8.221  17.668  0.00  0.00    +0.000 C 
ATOM     12  O   UNL     1       7.922   6.829  17.396  0.00  0.00    +0.000 OA
ENDBRANCH   5  12
ENDBRANCH   1   5
BRANCH   3  13
ATOM     13  C   UNL     1       3.974   5.723  18.740  0.00  0.00    +0.000 C 
BRANCH  13  14
ATOM     14  C   UNL     1       2.861   4.779  19.091  0.00  0.00    +0.000 A 
ATOM     15  C   UNL     1       2.379   4.697  20.403  0.00  0.00    +0.000 A 
ATOM     16  C   UNL     1       1.330   3.831  20.713  0.00  0.00    +0.000 A 
ATOM     17  C   UNL     1       0.762   3.036  19.718  0.00  0.00    +0.000 A 
ATOM     18  C   UNL     1       1.245   3.099  18.414  0.00  0.00    +0.000 A 
ATOM     19  C   UNL     1       2.293   3.964  18.101  0.00  0.00    +0.000 A 
ENDBRANCH  13  14
ENDBRANCH   3  13
TORSDOF 5
ENDMDL
MODEL 6
REMARK VINA RESULT:      -6.7      1.220      1.404
REMARK  Name = 
REMARK  7 active torsions:
REMARK  status: ('A' for Active; 'I' for Inactive)
REMARK    1  A    between atoms: C_1  and  O_2
REMARK    2  A    between atoms: O_2  and  C_3
REMARK    3  A    between atoms: C_3  and  N_4
REMARK    4  A    between atoms: C_3  and  C_8
REMARK    5  A    between atoms: C_5  and  C_6
REMARK    6  A    between atoms: N_10  and  C_11
REMARK    7  A    between atoms: C_11  and  C_12
REMARK                            x       y       z     vdW  Elec       q    Type
REMARK                         _______ _______ _______ _____ _____    ______ ____
ROOT
ATOM      1  C   UNL     1       6.689   4.966  18.191  0.00  0.00    +0.000 C 
ATOM      2  O   UNL     1       7.791   4.414  18.208  0.00  0.00    +0.000 OA
ATOM      3  N   UNL     1       5.776   4.682  19.175  0.00  0.00    +0.000 N 
ATOM      4  H   UNL     1       6.087   4.008  19.862  0.00  0.00    +0.000 HD
ENDROOT
BRANCH   1   5
ATOM      5  C   UNL     1       6.297   6.023  17.105  0.00  0.00    +0.000 C 
BRANCH   5   6
ATOM      6  N   UNL     1       5.755   5.386  15.932  0.00  0.00    +0.000 N 
ATOM      7  C   UNL     1       6.558   4.941  14.916  0.00  0.00    +0.000 C 
ATOM      8  C   UNL     1       5.817   4.194  13.840  0.00  0.00    +0.000 C 
ATOM      9  O   UNL     1       7.764   5.133  14.857  0.00  0.00    +0.000 OA
ATOM     10  H   UNL     1       4.751   5.276  15.896  0.00  0.00    +0.000 HD
ENDBRANCH   5   6
BRANCH   5  12
ATOM     11  C   UNL     1       7.673   7.911  17.602  0.00  0.00    +0.000 C 
ATOM     12  O   UNL     1       7.358   6.872  16.685  0.00  0.00    +0.000 OA
ENDBRANCH   5  12
ENDBRANCH   1   5
BRANCH   3  13
ATOM     13  C   UNL     1       4.474   5.289  19.358  0.00  0.00    +0.000 C 
BRANCH  13  14
ATOM     14  C   UNL     1       3.378   4.289  19.127  0.00  0.00    +0.000 A 
ATOM     15  C   UNL     1       3.394   3.456  18.002  0.00  0.00    +0.000 A 
ATOM     16  C   UNL     1       2.381   2.516  17.809  0.00  0.00    +0.000 A 
ATOM     17  C   UNL     1       1.342   2.408  18.733  0.00  0.00    +0.000 A 
ATOM     18  C   UNL     1       1.309   3.243  19.846  0.00  0.00    +0.000 A 
ATOM     19  C   UNL     1       2.320   4.183  20.042  0.00  0.00    +0.000 A 
ENDBRANCH  13  14
ENDBRANCH   3  13
TORSDOF 5
ENDMDL
MODEL 7
REMARK VINA RESULT:      -6.7      1.550      1.983
REMARK  Name = 
REMARK  7 active torsions:
REMARK  status: ('A' for Active; 'I' for Inactive)
REMARK    1  A    between atoms: C_1  and  O_2
REMARK    2  A    between atoms: O_2  and  C_3
REMARK    3  A    between atoms: C_3  and  N_4
REMARK    4  A    between atoms: C_3  and  C_8
REMARK    5  A    between atoms: C_5  and  C_6
REMARK    6  A    between atoms: N_10  and  C_11
REMARK    7  A    between atoms: C_11  and  C_12
REMARK                            x       y       z     vdW  Elec       q    Type
REMARK                         _______ _______ _______ _____ _____    ______ ____
ROOT
ATOM      1  C   UNL     1       7.220   4.938  18.377  0.00  0.00    +0.000 C 
ATOM      2  O   UNL     1       8.281   4.973  19.003  0.00  0.00    +0.000 OA
ATOM      3  N   UNL     1       6.171   4.202  18.866  0.00  0.00    +0.000 N 
ATOM      4  H   UNL     1       6.359   3.718  19.734  0.00  0.00    +0.000 HD
ENDROOT
BRANCH   1   5
ATOM      5  C   UNL     1       7.001   5.743  17.052  0.00  0.00    +0.000 C 
BRANCH   5   6
ATOM      6  N   UNL     1       7.067   4.878  15.902  0.00  0.00    +0.000 N 
ATOM      7  C   UNL     1       6.259   5.063  14.812  0.00  0.00    +0.000 C 
ATOM      8  C   UNL     1       6.564   4.138  13.666  0.00  0.00    +0.000 C 
ATOM      9  O   UNL     1       5.357   5.888  14.756  0.00  0.00    +0.000 OA
ATOM     10  H   UNL     1       7.744   4.128  15.933  0.00  0.00    +0.000 HD
ENDBRANCH   5   6
BRANCH   5  12
ATOM     11  C   UNL     1       7.579   8.012  17.525  0.00  0.00    +0.000 C 
ATOM     12  O   UNL     1       7.916   6.812  16.843  0.00  0.00    +0.000 OA
ENDBRANCH   5  12
ENDBRANCH   1   5
BRANCH   3  13
ATOM     13  C   UNL     1       4.836   4.110  18.311  0.00  0.00    +0.000 C 
BRANCH  13  14
ATOM     14  C   UNL     1       3.815   3.923  19.396  0.00  0.00    +0.000 A 
ATOM     15  C   UNL     1       3.757   2.731  20.128  0.00  0.00    +0.000 A 
ATOM     16  C   UNL     1       2.818   2.577  21.148  0.00  0.00    +0.000 A 
ATOM     17  C   UNL     1       1.926   3.609  21.438  0.00  0.00    +0.000 A 
ATOM     18  C   UNL     1       1.965   4.793  20.706  0.00  0.00    +0.000 A 
ATOM     19  C   UNL     1       2.903   4.949  19.686  0.00  0.00    +0.000 A 
ENDBRANCH  13  14
ENDBRANCH   3  13
TORSDOF 5
ENDMDL
MODEL 8
REMARK VINA RESULT:      -6.6      1.965      3.568
REMARK  Name = 
REMARK  7 active torsions:
REMARK  status: ('A' for Active; 'I' for Inactive)
REMARK    1  A    between atoms: C_1  and  O_2
REMARK    2  A    between atoms: O_2  and  C_3
REMARK    3  A    between atoms: C_3  and  N_4
REMARK    4  A    between atoms: C_3  and  C_8
REMARK    5  A    between atoms: C_5  and  C_6
REMARK    6  A    between atoms: N_10  and  C_11
REMARK    7  A    between atoms: C_11  and  C_12
REMARK                            x       y       z     vdW  Elec       q    Type
REMARK                         _______ _______ _______ _____ _____    ______ ____
ROOT
ATOM      1  C   UNL     1       5.228   6.327  16.107  0.00  0.00    +0.000 C 
ATOM      2  O   UNL     1       4.864   7.046  15.175  0.00  0.00    +0.000 OA
ATOM      3  N   UNL     1       4.291   5.647  16.842  0.00  0.00    +0.000 N 
ATOM      4  H   UNL     1       3.333   5.800  16.556  0.00  0.00    +0.000 HD
ENDROOT
BRANCH   1   5
ATOM      5  C   UNL     1       6.738   6.121  16.466  0.00  0.00    +0.000 C 
BRANCH   5   6
ATOM      6  N   UNL     1       7.329   7.344  16.947  0.00  0.00    +0.000 N 
ATOM      7  C   UNL     1       7.951   7.414  18.165  0.00  0.00    +0.000 C 
ATOM      8  C   UNL     1       8.613   8.739  18.433  0.00  0.00    +0.000 C 
ATOM      9  O   UNL     1       7.969   6.504  18.983  0.00  0.00    +0.000 OA
ATOM     10  H   UNL     1       7.269   8.150  16.340  0.00  0.00    +0.000 HD
ENDBRANCH   5   6
BRANCH   5  12
ATOM     11  C   UNL     1       6.989   4.541  14.693  0.00  0.00    +0.000 C 
ATOM     12  O   UNL     1       7.547   5.640  15.400  0.00  0.00    +0.000 OA
ENDBRANCH   5  12
ENDBRANCH   1   5
BRANCH   3  13
ATOM     13  C   UNL     1       4.539   4.704  17.913  0.00  0.00    +0.000 C 
BRANCH  13  14
ATOM     14  C   UNL     1       3.299   4.482  18.731  0.00  0.00    +0.000 A 
ATOM     15  C   UNL     1       2.355   3.518  18.355  0.00  0.00    +0.000 A 
ATOM     16  C   UNL     1       1.218   3.307  19.134  0.00  0.00    +0.000 A 
ATOM     17  C   UNL     1       1.010   4.062  20.288  0.00  0.00    +0.000 A 
ATOM     18  C   UNL     1       1.935   5.033  20.662  0.00  0.00    +0.000 A 
ATOM     19  C   UNL     1       3.073   5.247  19.885  0.00  0.00    +0.000 A 
ENDBRANCH  13  14
ENDBRANCH   3  13
TORSDOF 5
ENDMDL
MODEL 9
REMARK VINA RESULT:      -6.5      2.656      3.621
REMARK  Name = 
REMARK  7 active torsions:
REMARK  status: ('A' for Active; 'I' for Inactive)
REMARK    1  A    between atoms: C_1  and  O_2
REMARK    2  A    between atoms: O_2  and  C_3
REMARK    3  A    between atoms: C_3  and  N_4
REMARK    4  A    between atoms: C_3  and  C_8
REMARK    5  A    between atoms: C_5  and  C_6
REMARK    6  A    between atoms: N_10  and  C_11
REMARK    7  A    between atoms: C_11  and  C_12
REMARK                            x       y       z     vdW  Elec       q    Type
REMARK                         _______ _______ _______ _____ _____    ______ ____
ROOT
ATOM      1  C   UNL     1       4.939   4.119  18.783  0.00  0.00    +0.000 C 
ATOM      2  O   UNL     1       5.071   3.205  19.599  0.00  0.00    +0.000 OA
ATOM      3  N   UNL     1       3.711   4.711  18.624  0.00  0.00    +0.000 N 
ATOM      4  H   UNL     1       2.977   4.331  19.207  0.00  0.00    +0.000 HD
ENDROOT
BRANCH   1   5
ATOM      5  C   UNL     1       6.137   4.668  17.939  0.00  0.00    +0.000 C 
BRANCH   5   6
ATOM      6  N   UNL     1       6.197   4.033  16.647  0.00  0.00    +0.000 N 
ATOM      7  C   UNL     1       6.208   4.758  15.486  0.00  0.00    +0.000 C 
ATOM      8  C   UNL     1       6.400   3.923  14.249  0.00  0.00    +0.000 C 
ATOM      9  O   UNL     1       6.062   5.972  15.431  0.00  0.00    +0.000 OA
ATOM     10  H   UNL     1       6.237   3.023  16.636  0.00  0.00    +0.000 HD
ENDBRANCH   5   6
BRANCH   5  12
ATOM     11  C   UNL     1       7.912   5.720  19.141  0.00  0.00    +0.000 C 
ATOM     12  O   UNL     1       7.414   4.528  18.549  0.00  0.00    +0.000 OA
ENDBRANCH   5  12
ENDBRANCH   1   5
BRANCH   3  13
ATOM     13  C   UNL     1       3.391   5.841  17.777  0.00  0.00    +0.000 C 
BRANCH  13  14
ATOM     14  C   UNL     1       2.645   6.893  18.545  0.00  0.00    +0.000 A 
ATOM     15  C   UNL     1       2.329   6.705  19.896  0.00  0.00    +0.000 A 
ATOM     16  C   UNL     1       1.654   7.700  20.604  0.00  0.00    +0.000 A 
ATOM     17  C   UNL     1       1.282   8.883  19.967  0.00  0.00    +0.000 A 
ATOM     18  C   UNL     1       1.578   9.073  18.620  0.00  0.00    +0.000 A 
ATOM     19  C   UNL     1       2.253   8.081  17.909  0.00  0.00    +0.000 A 
ENDBRANCH  13  14
ENDBRANCH   3  13
TORSDOF 5
ENDMDL
