MODEL 1
REMARK VINA RESULT:      -8.8      0.000      0.000
REMARK  Name = 
REMARK  8 active torsions:
REMARK  status: ('A' for Active; 'I' for Inactive)
REMARK    1  A    between atoms: C_1  and  C_2
REMARK    2  A    between atoms: C_2  and  C_3
REMARK    3  A    between atoms: C_2  and  C_4
REMARK    4  A    between atoms: C_2  and  C_5
REMARK    5  A    between atoms: C_8  and  O_9
REMARK    6  A    between atoms: O_9  and  C_10
REMARK    7  A    between atoms: C_10  and  C_11
REMARK    8  A    between atoms: N_13  and  C_20
REMARK                            x       y       z     vdW  Elec       q    Type
REMARK                         _______ _______ _______ _____ _____    ______ ____
ROOT
ATOM      1  C   UNL     1       2.731   5.588  19.748  0.00  0.00    +0.000 C 
ATOM      2  O   UNL     1       1.768   5.124  20.362  0.00  0.00    +0.000 OA
ATOM      3  N   UNL     1       3.867   4.835  19.477  0.00  0.00    +0.000 N 
ATOM      4  C   UNL     1       4.942   5.388  18.743  0.00  0.00    +0.000 A 
ATOM      5  C   UNL     1       6.225   5.357  19.288  0.00  0.00    +0.000 A 
ATOM      6  C   UNL     1       7.266   5.988  18.607  0.00  0.00    +0.000 A 
ATOM      7  C   UNL     1       7.009   6.598  17.386  0.00  0.00    +0.000 A 
ATOM      8  C   UNL     1       5.714   6.563  16.904  0.00  0.00    +0.000 A 
ATOM      9  N   UNL     1       4.682   5.994  17.565  0.00  0.00    +0.000 NA
ENDROOT
BRANCH   3  10
ATOM     10  C   UNL     1       3.876   3.351  19.623  0.00  0.00    +0.000 C 
ATOM     11  C   UNL     1       2.921   2.765  20.674  0.00  0.00    +0.000 C 
ATOM     12  C   UNL     1       1.481   2.493  20.235  0.00  0.00    +0.000 C 
ATOM     13  C   UNL     1       1.300   2.019  18.791  0.00  0.00    +0.000 C 
ATOM     14  C   UNL     1       2.293   2.548  17.759  0.00  0.00    +0.000 C 
ATOM     15  C   UNL     1       3.722   2.618  18.278  0.00  0.00    +0.000 C 
ENDBRANCH   3  10
BRANCH   1  16
ATOM     16  C   UNL     1       2.702   7.061  19.344  0.00  0.00    +0.000 C 
BRANCH  16  17
ATOM     17  O   UNL     1       2.054   7.730  20.431  0.00  0.00    +0.000 OA
BRANCH  17  21
ATOM     18  C   UNL     1      -0.415  10.834  19.153  0.00  0.00    +0.000 A 
ATOM     19  C   UNL     1       0.556  10.251  18.322  0.00  0.00    +0.000 A 
ATOM     20  C   UNL     1       1.378   9.227  18.791  0.00  0.00    +0.000 A 
ATOM     21  C   UNL     1       1.282   8.796  20.107  0.00  0.00    +0.000 A 
ATOM     22  C   UNL     1       0.378   9.398  20.967  0.00  0.00    +0.000 A 
ATOM     23  C   UNL     1      -0.458  10.408  20.493  0.00  0.00    +0.000 A 
BRANCH  18  25
ATOM     24  C   UNL     1      -2.449  12.278  19.675  0.00  0.00    +0.000 C 
ATOM     25  C   UNL     1      -1.392  11.888  18.616  0.00  0.00    +0.000 C 
ATOM     26  C   UNL     1      -2.106  11.319  17.376  0.00  0.00    +0.000 C 
ATOM     27  C   UNL     1      -0.676  13.202  18.214  0.00  0.00    +0.000 C 
ENDBRANCH  18  25
ENDBRANCH  17  21
ENDBRANCH  16  17
ENDBRANCH   1  16
TORSDOF 5
ENDMDL
MODEL 2
REMARK VINA RESULT:      -8.5      0.493      1.182
REMARK  Name = 
REMARK  8 active torsions:
REMARK  status: ('A' for Active; 'I' for Inactive)
REMARK    1  A    between atoms: C_1  and  C_2
REMARK    2  A    between atoms: C_2  and  C_3
REMARK    3  A    between atoms: C_2  and  C_4
REMARK    4  A    between atoms: C_2  and  C_5
REMARK    5  A    between atoms: C_8  and  O_9
REMARK    6  A    between atoms: O_9  and  C_10
REMARK    7  A    between atoms: C_10  and  C_11
REMARK    8  A    between atoms: N_13  and  C_20
REMARK                            x       y       z     vdW  Elec       q    Type
REMARK                         _______ _______ _______ _____ _____    ______ ____
ROOT
ATOM      1  C   UNL     1       2.740   5.634  19.797  0.00  0.00    +0.000 C 
ATOM      2  O   UNL     1       1.786   5.176  20.430  0.00  0.00    +0.000 OA
ATOM      3  N   UNL     1       3.862   4.870  19.498  0.00  0.00    +0.000 N 
ATOM      4  C   UNL     1       4.926   5.416  18.744  0.00  0.00    +0.000 A 
ATOM      5  C   UNL     1       6.221   5.367  19.261  0.00  0.00    +0.000 A 
ATOM      6  C   UNL     1       7.254   5.991  18.562  0.00  0.00    +0.000 A 
ATOM      7  C   UNL     1       6.978   6.612  17.350  0.00  0.00    +0.000 A 
ATOM      8  C   UNL     1       5.672   6.595  16.897  0.00  0.00    +0.000 A 
ATOM      9  N   UNL     1       4.648   6.033  17.576  0.00  0.00    +0.000 NA
ENDROOT
BRANCH   3  10
ATOM     10  C   UNL     1       3.857   3.384  19.634  0.00  0.00    +0.000 C 
ATOM     11  C   UNL     1       2.889   2.799  20.674  0.00  0.00    +0.000 C 
ATOM     12  C   UNL     1       1.450   2.543  20.221  0.00  0.00    +0.000 C 
ATOM     13  C   UNL     1       1.277   2.080  18.773  0.00  0.00    +0.000 C 
ATOM     14  C   UNL     1       2.283   2.607  17.752  0.00  0.00    +0.000 C 
ATOM     15  C   UNL     1       3.708   2.662  18.282  0.00  0.00    +0.000 C 
ENDBRANCH   3  10
BRANCH   1  16
ATOM     16  C   UNL     1       2.719   7.109  19.404  0.00  0.00    +0.000 C 
BRANCH  16  17
ATOM     17  O   UNL     1       2.033   7.767  20.474  0.00  0.00    +0.000 OA
BRANCH  17  21
ATOM     18  C   UNL     1      -0.386  11.070  19.695  0.00  0.00    +0.000 A 
ATOM     19  C   UNL     1      -0.424  10.378  20.917  0.00  0.00    +0.000 A 
ATOM     20  C   UNL     1       0.387   9.265  21.134  0.00  0.00    +0.000 A 
ATOM     21  C   UNL     1       1.215   8.791  20.126  0.00  0.00    +0.000 A 
ATOM     22  C   UNL     1       1.224   9.413  18.889  0.00  0.00    +0.000 A 
ATOM     23  C   UNL     1       0.428  10.540  18.677  0.00  0.00    +0.000 A 
BRANCH  18  25
ATOM     24  C   UNL     1      -2.692  12.051  19.230  0.00  0.00    +0.000 C 
ATOM     25  C   UNL     1      -1.197  12.355  19.483  0.00  0.00    +0.000 C 
ATOM     26  C   UNL     1      -0.624  13.110  18.270  0.00  0.00    +0.000 C 
ATOM     27  C   UNL     1      -1.148  13.291  20.716  0.00  0.00    +0.000 C 
ENDBRANCH  18  25
ENDBRANCH  17  21
ENDBRANCH  16  17
ENDBRANCH   1  16
TORSDOF 5
ENDMDL
MODEL 3
REMARK VINA RESULT:      -8.4      1.736      4.199
REMARK  Name = 
REMARK  8 active torsions:
REMARK  status: ('A' for Active; 'I' for Inactive)
REMARK    1  A    between atoms: C_1  and  C_2
REMARK    2  A    between atoms: C_2  and  C_3
REMARK    3  A    between atoms: C_2  and  C_4
REMARK    4  A    between atoms: C_2  and  C_5
REMARK    5  A    between atoms: C_8  and  O_9
REMARK    6  A    between atoms: O_9  and  C_10
REMARK    7  A    between atoms: C_10  and  C_11
REMARK    8  A    between atoms: N_13  and  C_20
REMARK                            x       y       z     vdW  Elec       q    Type
REMARK                         _______ _______ _______ _____ _____    ______ ____
ROOT
ATOM      1  C   UNL     1       2.944   7.140  18.241  0.00  0.00    +0.000 C 
ATOM      2  O   UNL     1       3.477   7.935  17.464  0.00  0.00    +0.000 OA
ATOM      3  N   UNL     1       3.074   5.764  18.092  0.00  0.00    +0.000 N 
ATOM      4  C   UNL     1       2.475   4.879  19.019  0.00  0.00    +0.000 A 
ATOM      5  C   UNL     1       1.624   3.879  18.549  0.00  0.00    +0.000 A 
ATOM      6  C   UNL     1       0.958   3.068  19.470  0.00  0.00    +0.000 A 
ATOM      7  C   UNL     1       1.188   3.250  20.828  0.00  0.00    +0.000 A 
ATOM      8  C   UNL     1       2.065   4.249  21.208  0.00  0.00    +0.000 A 
ATOM      9  N   UNL     1       2.689   5.072  20.337  0.00  0.00    +0.000 NA
ENDROOT
BRANCH   3  10
ATOM     10  C   UNL     1       4.108   5.167  17.199  0.00  0.00    +0.000 C 
ATOM     11  C   UNL     1       4.962   6.156  16.390  0.00  0.00    +0.000 C 
ATOM     12  C   UNL     1       6.203   6.729  17.077  0.00  0.00    +0.000 C 
ATOM     13  C   UNL     1       6.946   5.780  18.019  0.00  0.00    +0.000 C 
ATOM     14  C   UNL     1       6.103   4.750  18.770  0.00  0.00    +0.000 C 
ATOM     15  C   UNL     1       5.000   4.139  17.919  0.00  0.00    +0.000 C 
ENDBRANCH   3  10
BRANCH   1  16
ATOM     16  C   UNL     1       2.047   7.686  19.349  0.00  0.00    +0.000 C 
BRANCH  16  17
ATOM     17  O   UNL     1       1.427   8.846  18.784  0.00  0.00    +0.000 OA
BRANCH  17  21
ATOM     18  C   UNL     1      -0.675  11.463  21.254  0.00  0.00    +0.000 A 
ATOM     19  C   UNL     1      -0.493  11.703  19.882  0.00  0.00    +0.000 A 
ATOM     20  C   UNL     1       0.234  10.814  19.091  0.00  0.00    +0.000 A 
ATOM     21  C   UNL     1       0.831   9.696  19.657  0.00  0.00    +0.000 A 
ATOM     22  C   UNL     1       0.723   9.469  21.019  0.00  0.00    +0.000 A 
ATOM     23  C   UNL     1      -0.021  10.347  21.808  0.00  0.00    +0.000 A 
BRANCH  18  25
ATOM     24  C   UNL     1      -0.777  13.614  22.616  0.00  0.00    +0.000 C 
ATOM     25  C   UNL     1      -1.558  12.380  22.111  0.00  0.00    +0.000 C 
ATOM     26  C   UNL     1      -2.077  11.581  23.321  0.00  0.00    +0.000 C 
ATOM     27  C   UNL     1      -2.773  12.929  21.324  0.00  0.00    +0.000 C 
ENDBRANCH  18  25
ENDBRANCH  17  21
ENDBRANCH  16  17
ENDBRANCH   1  16
TORSDOF 5
ENDMDL
MODEL 4
REMARK VINA RESULT:      -8.4      1.627      4.281
REMARK  Name = 
REMARK  8 active torsions:
REMARK  status: ('A' for Active; 'I' for Inactive)
REMARK    1  A    between atoms: C_1  and  C_2
REMARK    2  A    between atoms: C_2  and  C_3
REMARK    3  A    between atoms: C_2  and  C_4
REMARK    4  A    between atoms: C_2  and  C_5
REMARK    5  A    between atoms: C_8  and  O_9
REMARK    6  A    between atoms: O_9  and  C_10
REMARK    7  A    between atoms: C_10  and  C_11
REMARK    8  A    between atoms: N_13  and  C_20
REMARK                            x       y       z     vdW  Elec       q    Type
REMARK                         _______ _______ _______ _____ _____    ______ ____
ROOT
ATOM      1  C   UNL     1       3.182   6.910  18.207  0.00  0.00    +0.000 C 
ATOM      2  O   UNL     1       3.820   7.677  17.483  0.00  0.00    +0.000 OA
ATOM      3  N   UNL     1       3.340   5.530  18.143  0.00  0.00    +0.000 N 
ATOM      4  C   UNL     1       2.614   4.680  19.010  0.00  0.00    +0.000 A 
ATOM      5  C   UNL     1       1.848   3.650  18.466  0.00  0.00    +0.000 A 
ATOM      6  C   UNL     1       1.057   2.873  19.314  0.00  0.00    +0.000 A 
ATOM      7  C   UNL     1       1.081   3.119  20.681  0.00  0.00    +0.000 A 
ATOM      8  C   UNL     1       1.886   4.144  21.141  0.00  0.00    +0.000 A 
ATOM      9  N   UNL     1       2.628   4.935  20.335  0.00  0.00    +0.000 NA
ENDROOT
BRANCH   3  10
ATOM     10  C   UNL     1       4.499   4.907  17.441  0.00  0.00    +0.000 C 
ATOM     11  C   UNL     1       5.185   5.765  16.367  0.00  0.00    +0.000 C 
ATOM     12  C   UNL     1       6.272   6.733  16.836  0.00  0.00    +0.000 C 
ATOM     13  C   UNL     1       7.142   6.250  17.999  0.00  0.00    +0.000 C 
ATOM     14  C   UNL     1       6.477   5.340  19.030  0.00  0.00    +0.000 C 
ATOM     15  C   UNL     1       5.537   4.315  18.412  0.00  0.00    +0.000 C 
ENDBRANCH   3  10
BRANCH   1  16
ATOM     16  C   UNL     1       2.126   7.495  19.144  0.00  0.00    +0.000 C 
BRANCH  16  17
ATOM     17  O   UNL     1       1.812   8.777  18.592  0.00  0.00    +0.000 OA
BRANCH  17  21
ATOM     18  C   UNL     1      -0.583  11.180  21.012  0.00  0.00    +0.000 A 
ATOM     19  C   UNL     1       0.124  10.074  21.511  0.00  0.00    +0.000 A 
ATOM     20  C   UNL     1       0.901   9.281  20.667  0.00  0.00    +0.000 A 
ATOM     21  C   UNL     1       0.950   9.544  19.305  0.00  0.00    +0.000 A 
ATOM     22  C   UNL     1       0.210  10.588  18.775  0.00  0.00    +0.000 A 
ATOM     23  C   UNL     1      -0.551  11.395  19.622  0.00  0.00    +0.000 A 
BRANCH  18  25
ATOM     24  C   UNL     1      -0.521  13.363  22.325  0.00  0.00    +0.000 C 
ATOM     25  C   UNL     1      -1.356  12.118  21.949  0.00  0.00    +0.000 C 
ATOM     26  C   UNL     1      -1.722  11.349  23.231  0.00  0.00    +0.000 C 
ATOM     27  C   UNL     1      -2.660  12.650  21.303  0.00  0.00    +0.000 C 
ENDBRANCH  18  25
ENDBRANCH  17  21
ENDBRANCH  16  17
ENDBRANCH   1  16
TORSDOF 5
ENDMDL
MODEL 5
REMARK VINA RESULT:      -8.4      1.937      4.262
REMARK  Name = 
REMARK  8 active torsions:
REMARK  status: ('A' for Active; 'I' for Inactive)
REMARK    1  A    between atoms: C_1  and  C_2
REMARK    2  A    between atoms: C_2  and  C_3
REMARK    3  A    between atoms: C_2  and  C_4
REMARK    4  A    between atoms: C_2  and  C_5
REMARK    5  A    between atoms: C_8  and  O_9
REMARK    6  A    between atoms: O_9  and  C_10
REMARK    7  A    between atoms: C_10  and  C_11
REMARK    8  A    between atoms: N_13  and  C_20
REMARK                            x       y       z     vdW  Elec       q    Type
REMARK                         _______ _______ _______ _____ _____    ______ ____
ROOT
ATOM      1  C   UNL     1       2.163   7.218  19.313  0.00  0.00    +0.000 C 
ATOM      2  O   UNL     1       2.452   8.230  18.672  0.00  0.00    +0.000 OA
ATOM      3  N   UNL     1       2.395   5.939  18.819  0.00  0.00    +0.000 N 
ATOM      4  C   UNL     1       2.080   4.798  19.594  0.00  0.00    +0.000 A 
ATOM      5  C   UNL     1       1.254   3.815  19.050  0.00  0.00    +0.000 A 
ATOM      6  C   UNL     1       0.866   2.738  19.848  0.00  0.00    +0.000 A 
ATOM      7  C   UNL     1       1.340   2.651  21.150  0.00  0.00    +0.000 A 
ATOM      8  C   UNL     1       2.174   3.656  21.605  0.00  0.00    +0.000 A 
ATOM      9  N   UNL     1       2.530   4.729  20.864  0.00  0.00    +0.000 NA
ENDROOT
BRANCH   3  10
ATOM     10  C   UNL     1       3.285   5.702  17.646  0.00  0.00    +0.000 C 
ATOM     11  C   UNL     1       4.537   6.588  17.553  0.00  0.00    +0.000 C 
ATOM     12  C   UNL     1       5.780   6.121  18.312  0.00  0.00    +0.000 C 
ATOM     13  C   UNL     1       6.003   4.608  18.366  0.00  0.00    +0.000 C 
ATOM     14  C   UNL     1       4.756   3.726  18.389  0.00  0.00    +0.000 C 
ATOM     15  C   UNL     1       3.652   4.218  17.465  0.00  0.00    +0.000 C 
ENDBRANCH   3  10
BRANCH   1  16
ATOM     16  C   UNL     1       1.453   7.378  20.656  0.00  0.00    +0.000 C 
BRANCH  16  17
ATOM     17  O   UNL     1       1.869   8.658  21.144  0.00  0.00    +0.000 OA
BRANCH  17  21
ATOM     18  C   UNL     1      -1.004  11.502  22.155  0.00  0.00    +0.000 A 
ATOM     19  C   UNL     1      -0.668  10.434  23.004  0.00  0.00    +0.000 A 
ATOM     20  C   UNL     1       0.285   9.490  22.623  0.00  0.00    +0.000 A 
ATOM     21  C   UNL     1       0.886   9.563  21.373  0.00  0.00    +0.000 A 
ATOM     22  C   UNL     1       0.526  10.568  20.490  0.00  0.00    +0.000 A 
ATOM     23  C   UNL     1      -0.413  11.524  20.878  0.00  0.00    +0.000 A 
BRANCH  18  25
ATOM     24  C   UNL     1      -1.241  13.734  23.361  0.00  0.00    +0.000 C 
ATOM     25  C   UNL     1      -1.974  12.601  22.607  0.00  0.00    +0.000 C 
ATOM     26  C   UNL     1      -3.033  11.980  23.535  0.00  0.00    +0.000 C 
ATOM     27  C   UNL     1      -2.697  13.273  21.414  0.00  0.00    +0.000 C 
ENDBRANCH  18  25
ENDBRANCH  17  21
ENDBRANCH  16  17
ENDBRANCH   1  16
TORSDOF 5
ENDMDL
MODEL 6
REMARK VINA RESULT:      -8.4      0.790      1.240
REMARK  Name = 
REMARK  8 active torsions:
REMARK  status: ('A' for Active; 'I' for Inactive)
REMARK    1  A    between atoms: C_1  and  C_2
REMARK    2  A    between atoms: C_2  and  C_3
REMARK    3  A    between atoms: C_2  and  C_4
REMARK    4  A    between atoms: C_2  and  C_5
REMARK    5  A    between atoms: C_8  and  O_9
REMARK    6  A    between atoms: O_9  and  C_10
REMARK    7  A    between atoms: C_10  and  C_11
REMARK    8  A    between atoms: N_13  and  C_20
REMARK                            x       y       z     vdW  Elec       q    Type
REMARK                         _______ _______ _______ _____ _____    ______ ____
ROOT
ATOM      1  C   UNL     1       2.664   5.819  19.533  0.00  0.00    +0.000 C 
ATOM      2  O   UNL     1       1.671   5.555  20.215  0.00  0.00    +0.000 OA
ATOM      3  N   UNL     1       3.735   4.941  19.418  0.00  0.00    +0.000 N 
ATOM      4  C   UNL     1       4.846   5.260  18.603  0.00  0.00    +0.000 A 
ATOM      5  C   UNL     1       6.126   5.230  19.157  0.00  0.00    +0.000 A 
ATOM      6  C   UNL     1       7.210   5.639  18.379  0.00  0.00    +0.000 A 
ATOM      7  C   UNL     1       6.995   6.028  17.063  0.00  0.00    +0.000 A 
ATOM      8  C   UNL     1       5.698   6.007  16.585  0.00  0.00    +0.000 A 
ATOM      9  N   UNL     1       4.628   5.655  17.331  0.00  0.00    +0.000 NA
ENDROOT
BRANCH   3  10
ATOM     10  C   UNL     1       3.627   3.514  19.838  0.00  0.00    +0.000 C 
ATOM     11  C   UNL     1       2.504   3.181  20.833  0.00  0.00    +0.000 C 
ATOM     12  C   UNL     1       1.121   2.886  20.250  0.00  0.00    +0.000 C 
ATOM     13  C   UNL     1       1.102   2.148  18.910  0.00  0.00    +0.000 C 
ATOM     14  C   UNL     1       2.256   2.428  17.950  0.00  0.00    +0.000 C 
ATOM     15  C   UNL     1       3.605   2.540  18.645  0.00  0.00    +0.000 C 
ENDBRANCH   3  10
BRANCH   1  16
ATOM     16  C   UNL     1       2.750   7.188  18.862  0.00  0.00    +0.000 C 
BRANCH  16  17
ATOM     17  O   UNL     1       2.308   8.116  19.858  0.00  0.00    +0.000 OA
BRANCH  17  21
ATOM     18  C   UNL     1      -1.058  10.236  18.618  0.00  0.00    +0.000 A 
ATOM     19  C   UNL     1      -0.051   9.830  17.726  0.00  0.00    +0.000 A 
ATOM     20  C   UNL     1       1.071   9.140  18.181  0.00  0.00    +0.000 A 
ATOM     21  C   UNL     1       1.236   8.880  19.535  0.00  0.00    +0.000 A 
ATOM     22  C   UNL     1       0.291   9.326  20.444  0.00  0.00    +0.000 A 
ATOM     23  C   UNL     1      -0.842   9.999  19.988  0.00  0.00    +0.000 A 
BRANCH  18  25
ATOM     24  C   UNL     1      -2.146  11.544  16.720  0.00  0.00    +0.000 C 
ATOM     25  C   UNL     1      -2.344  10.905  18.114  0.00  0.00    +0.000 C 
ATOM     26  C   UNL     1      -2.762  11.997  19.115  0.00  0.00    +0.000 C 
ATOM     27  C   UNL     1      -3.511   9.898  17.966  0.00  0.00    +0.000 C 
ENDBRANCH  18  25
ENDBRANCH  17  21
ENDBRANCH  16  17
ENDBRANCH   1  16
TORSDOF 5
ENDMDL
MODEL 7
REMARK VINA RESULT:      -8.2      1.528      1.963
REMARK  Name = 
REMARK  8 active torsions:
REMARK  status: ('A' for Active; 'I' for Inactive)
REMARK    1  A    between atoms: C_1  and  C_2
REMARK    2  A    between atoms: C_2  and  C_3
REMARK    3  A    between atoms: C_2  and  C_4
REMARK    4  A    between atoms: C_2  and  C_5
REMARK    5  A    between atoms: C_8  and  O_9
REMARK    6  A    between atoms: O_9  and  C_10
REMARK    7  A    between atoms: C_10  and  C_11
REMARK    8  A    between atoms: N_13  and  C_20
REMARK                            x       y       z     vdW  Elec       q    Type
REMARK                         _______ _______ _______ _____ _____    ______ ____
ROOT
ATOM      1  C   UNL     1       2.931   6.078  19.167  0.00  0.00    +0.000 C 
ATOM      2  O   UNL     1       2.038   6.141  20.014  0.00  0.00    +0.000 OA
ATOM      3  N   UNL     1       3.794   4.991  19.084  0.00  0.00    +0.000 N 
ATOM      4  C   UNL     1       4.790   4.936  18.081  0.00  0.00    +0.000 A 
ATOM      5  C   UNL     1       6.119   4.734  18.453  0.00  0.00    +0.000 A 
ATOM      6  C   UNL     1       7.111   4.776  17.473  0.00  0.00    +0.000 A 
ATOM      7  C   UNL     1       6.749   4.979  16.147  0.00  0.00    +0.000 A 
ATOM      8  C   UNL     1       5.407   5.147  15.860  0.00  0.00    +0.000 A 
ATOM      9  N   UNL     1       4.434   5.151  16.797  0.00  0.00    +0.000 NA
ENDROOT
BRANCH   3  10
ATOM     10  C   UNL     1       3.505   3.706  19.784  0.00  0.00    +0.000 C 
ATOM     11  C   UNL     1       2.222   3.665  20.628  0.00  0.00    +0.000 C 
ATOM     12  C   UNL     1       0.922   3.308  19.904  0.00  0.00    +0.000 C 
ATOM     13  C   UNL     1       1.045   2.282  18.776  0.00  0.00    +0.000 C 
ATOM     14  C   UNL     1       2.350   2.278  17.982  0.00  0.00    +0.000 C 
ATOM     15  C   UNL     1       3.583   2.486  18.849  0.00  0.00    +0.000 C 
ENDBRANCH   3  10
BRANCH   1  16
ATOM     16  C   UNL     1       3.145   7.270  18.237  0.00  0.00    +0.000 C 
BRANCH  16  17
ATOM     17  O   UNL     1       1.845   7.843  18.065  0.00  0.00    +0.000 OA
BRANCH  17  21
ATOM     18  C   UNL     1       1.284  11.838  19.110  0.00  0.00    +0.000 A 
ATOM     19  C   UNL     1       2.159  11.442  18.085  0.00  0.00    +0.000 A 
ATOM     20  C   UNL     1       2.336  10.094  17.776  0.00  0.00    +0.000 A 
ATOM     21  C   UNL     1       1.683   9.113  18.511  0.00  0.00    +0.000 A 
ATOM     22  C   UNL     1       0.865   9.472  19.569  0.00  0.00    +0.000 A 
ATOM     23  C   UNL     1       0.672  10.821  19.866  0.00  0.00    +0.000 A 
BRANCH  18  25
ATOM     24  C   UNL     1       2.141  14.224  18.856  0.00  0.00    +0.000 C 
ATOM     25  C   UNL     1       1.005  13.321  19.388  0.00  0.00    +0.000 C 
ATOM     26  C   UNL     1       0.868  13.524  20.908  0.00  0.00    +0.000 C 
ATOM     27  C   UNL     1      -0.295  13.812  18.705  0.00  0.00    +0.000 C 
ENDBRANCH  18  25
ENDBRANCH  17  21
ENDBRANCH  16  17
ENDBRANCH   1  16
TORSDOF 5
ENDMDL
MODEL 8
REMARK VINA RESULT:      -8.2      1.292      4.110
REMARK  Name = 
REMARK  8 active torsions:
REMARK  status: ('A' for Active; 'I' for Inactive)
REMARK    1  A    between atoms: C_1  and  C_2
REMARK    2  A    between atoms: C_2  and  C_3
REMARK    3  A    between atoms: C_2  and  C_4
REMARK    4  A    between atoms: C_2  and  C_5
REMARK    5  A    between atoms: C_8  and  O_9
REMARK    6  A    between atoms: O_9  and  C_10
REMARK    7  A    between atoms: C_10  and  C_11
REMARK    8  A    between atoms: N_13  and  C_20
REMARK                            x       y       z     vdW  Elec       q    Type
REMARK                         _______ _______ _______ _____ _____    ______ ____
ROOT
ATOM      1  C   UNL     1       3.819   6.419  17.615  0.00  0.00    +0.000 C 
ATOM      2  O   UNL     1       4.176   7.455  17.050  0.00  0.00    +0.000 OA
ATOM      3  N   UNL     1       4.528   5.229  17.491  0.00  0.00    +0.000 N 
ATOM      4  C   UNL     1       4.109   4.065  18.176  0.00  0.00    +0.000 A 
ATOM      5  C   UNL     1       3.894   2.891  17.454  0.00  0.00    +0.000 A 
ATOM      6  C   UNL     1       3.389   1.771  18.116  0.00  0.00    +0.000 A 
ATOM      7  C   UNL     1       3.147   1.839  19.482  0.00  0.00    +0.000 A 
ATOM      8  C   UNL     1       3.409   3.034  20.127  0.00  0.00    +0.000 A 
ATOM      9  N   UNL     1       3.859   4.143  19.500  0.00  0.00    +0.000 NA
ENDROOT
BRANCH   3  10
ATOM     10  C   UNL     1       5.915   5.196  16.943  0.00  0.00    +0.000 C 
ATOM     11  C   UNL     1       6.456   6.521  16.383  0.00  0.00    +0.000 C 
ATOM     12  C   UNL     1       7.106   7.485  17.376  0.00  0.00    +0.000 C 
ATOM     13  C   UNL     1       7.896   6.839  18.517  0.00  0.00    +0.000 C 
ATOM     14  C   UNL     1       7.397   5.489  19.026  0.00  0.00    +0.000 C 
ATOM     15  C   UNL     1       6.926   4.561  17.916  0.00  0.00    +0.000 C 
ENDBRANCH   3  10
BRANCH   1  16
ATOM     16  C   UNL     1       2.514   6.427  18.407  0.00  0.00    +0.000 C 
BRANCH  16  17
ATOM     17  O   UNL     1       2.627   7.545  19.294  0.00  0.00    +0.000 OA
BRANCH  17  21
ATOM     18  C   UNL     1      -0.237  10.572  19.318  0.00  0.00    +0.000 A 
ATOM     19  C   UNL     1       0.132   9.874  20.480  0.00  0.00    +0.000 A 
ATOM     20  C   UNL     1       1.081   8.853  20.429  0.00  0.00    +0.000 A 
ATOM     21  C   UNL     1       1.644   8.476  19.217  0.00  0.00    +0.000 A 
ATOM     22  C   UNL     1       1.250   9.103  18.047  0.00  0.00    +0.000 A 
ATOM     23  C   UNL     1       0.317  10.138  18.099  0.00  0.00    +0.000 A 
BRANCH  18  25
ATOM     24  C   UNL     1      -0.569  13.041  18.780  0.00  0.00    +0.000 C 
ATOM     25  C   UNL     1      -1.201  11.764  19.380  0.00  0.00    +0.000 C 
ATOM     26  C   UNL     1      -1.572  12.028  20.850  0.00  0.00    +0.000 C 
ATOM     27  C   UNL     1      -2.503  11.508  18.581  0.00  0.00    +0.000 C 
ENDBRANCH  18  25
ENDBRANCH  17  21
ENDBRANCH  16  17
ENDBRANCH   1  16
TORSDOF 5
ENDMDL
MODEL 9
REMARK VINA RESULT:      -8.2      1.258      1.530
REMARK  Name = 
REMARK  8 active torsions:
REMARK  status: ('A' for Active; 'I' for Inactive)
REMARK    1  A    between atoms: C_1  and  C_2
REMARK    2  A    between atoms: C_2  and  C_3
REMARK    3  A    between atoms: C_2  and  C_4
REMARK    4  A    between atoms: C_2  and  C_5
REMARK    5  A    between atoms: C_8  and  O_9
REMARK    6  A    between atoms: O_9  and  C_10
REMARK    7  A    between atoms: C_10  and  C_11
REMARK    8  A    between atoms: N_13  and  C_20
REMARK                            x       y       z     vdW  Elec       q    Type
REMARK                         _______ _______ _______ _____ _____    ______ ____
ROOT
ATOM      1  C   UNL     1       3.402   5.514  19.402  0.00  0.00    +0.000 C 
ATOM      2  O   UNL     1       2.614   5.371  20.338  0.00  0.00    +0.000 OA
ATOM      3  N   UNL     1       4.224   4.481  18.964  0.00  0.00    +0.000 N 
ATOM      4  C   UNL     1       5.096   4.670  17.866  0.00  0.00    +0.000 A 
ATOM      5  C   UNL     1       6.454   4.392  18.022  0.00  0.00    +0.000 A 
ATOM      6  C   UNL     1       7.327   4.669  16.969  0.00  0.00    +0.000 A 
ATOM      7  C   UNL     1       6.820   5.179  15.781  0.00  0.00    +0.000 A 
ATOM      8  C   UNL     1       5.458   5.404  15.701  0.00  0.00    +0.000 A 
ATOM      9  N   UNL     1       4.599   5.181  16.720  0.00  0.00    +0.000 NA
ENDROOT
BRANCH   3  10
ATOM     10  C   UNL     1       3.987   3.066  19.370  0.00  0.00    +0.000 C 
ATOM     11  C   UNL     1       3.017   2.848  20.542  0.00  0.00    +0.000 C 
ATOM     12  C   UNL     1       1.526   2.770  20.207  0.00  0.00    +0.000 C 
ATOM     13  C   UNL     1       1.173   2.099  18.878  0.00  0.00    +0.000 C 
ATOM     14  C   UNL     1       2.173   2.258  17.734  0.00  0.00    +0.000 C 
ATOM     15  C   UNL     1       3.623   2.156  18.183  0.00  0.00    +0.000 C 
ENDBRANCH   3  10
BRANCH   1  16
ATOM     16  C   UNL     1       3.536   6.893  18.760  0.00  0.00    +0.000 C 
BRANCH  16  17
ATOM     17  O   UNL     1       2.197   7.280  18.433  0.00  0.00    +0.000 OA
BRANCH  17  21
ATOM     18  C   UNL     1       0.496  10.701  20.097  0.00  0.00    +0.000 A 
ATOM     19  C   UNL     1       0.872  10.627  18.746  0.00  0.00    +0.000 A 
ATOM     20  C   UNL     1       1.457   9.471  18.229  0.00  0.00    +0.000 A 
ATOM     21  C   UNL     1       1.721   8.387  19.055  0.00  0.00    +0.000 A 
ATOM     22  C   UNL     1       1.421   8.457  20.405  0.00  0.00    +0.000 A 
ATOM     23  C   UNL     1       0.817   9.605  20.919  0.00  0.00    +0.000 A 
BRANCH  18  25
ATOM     24  C   UNL     1      -0.625  11.740  22.137  0.00  0.00    +0.000 C 
ATOM     25  C   UNL     1      -0.241  11.928  20.651  0.00  0.00    +0.000 C 
ATOM     26  C   UNL     1      -1.520  12.155  19.824  0.00  0.00    +0.000 C 
ATOM     27  C   UNL     1       0.623  13.211  20.586  0.00  0.00    +0.000 C 
ENDBRANCH  18  25
ENDBRANCH  17  21
ENDBRANCH  16  17
ENDBRANCH   1  16
TORSDOF 5
ENDMDL
