MODEL 1
REMARK VINA RESULT:      -9.2      0.000      0.000
REMARK  Name = 
REMARK  3 active torsions:
REMARK  status: ('A' for Active; 'I' for Inactive)
REMARK    1  A    between atoms: S_2  and  C_4
REMARK    2  A    between atoms: S_2  and  N_12
REMARK    3  A    between atoms: C_14  and  C_15
REMARK                            x       y       z     vdW  Elec       q    Type
REMARK                         _______ _______ _______ _____ _____    ______ ____
ROOT
ATOM      1  N   UNL     1       4.973   5.590  17.700  0.00  0.00    +0.000 N 
ATOM      2  C   UNL     1       4.489   6.852  17.930  0.00  0.00    +0.000 A 
ATOM      3  C   UNL     1       3.163   6.722  18.278  0.00  0.00    +0.000 A 
ATOM      4  C   UNL     1       2.814   5.340  18.168  0.00  0.00    +0.000 A 
ATOM      5  C   UNL     1       1.613   4.618  18.343  0.00  0.00    +0.000 A 
ATOM      6  C   UNL     1       1.595   3.237  18.124  0.00  0.00    +0.000 A 
ATOM      7  C   UNL     1       2.755   2.565  17.754  0.00  0.00    +0.000 A 
ATOM      8  C   UNL     1       3.963   3.249  17.592  0.00  0.00    +0.000 A 
ATOM      9  C   UNL     1       3.974   4.641  17.796  0.00  0.00    +0.000 A 
ENDROOT
BRANCH   3  10
ATOM     10  C   UNL     1       2.313   7.818  18.616  0.00  0.00    +0.000 C 
ATOM     11  C   UNL     1       1.966   8.769  17.730  0.00  0.00    +0.000 C 
ATOM     12  C   UNL     1       1.057   9.896  18.121  0.00  0.00    +0.000 C 
ATOM     13  C   UNL     1       0.291   9.604  19.419  0.00  0.00    +0.000 C 
ATOM     14  N   UNL     1       1.191   9.107  20.463  0.00  0.00    +0.000 NA
ATOM     15  C   UNL     1       1.834   7.845  20.056  0.00  0.00    +0.000 C 
ATOM     16  H   UNL     1       0.665   8.947  21.320  0.00  0.00    +0.000 HD
ENDBRANCH   3  10
BRANCH   1  18
ATOM     17  O   UNL     1       6.978   4.098  17.997  0.00  0.00    +0.000 OA
ATOM     18  S   UNL     1       6.584   5.279  17.252  0.00  0.00    +0.000 S 
ATOM     19  O   UNL     1       7.286   6.539  17.380  0.00  0.00    +0.000 OA
BRANCH  18  20
ATOM     20  C   UNL     1       6.614   4.849  15.530  0.00  0.00    +0.000 A 
ATOM     21  C   UNL     1       5.710   3.953  14.947  0.00  0.00    +0.000 A 
ATOM     22  C   UNL     1       5.826   3.653  13.584  0.00  0.00    +0.000 A 
ATOM     23  C   UNL     1       6.825   4.254  12.821  0.00  0.00    +0.000 A 
ATOM     24  F   UNL     1       6.930   3.952  11.520  0.00  0.00    +0.000 F 
ATOM     25  C   UNL     1       7.707   5.156  13.403  0.00  0.00    +0.000 A 
ATOM     26  F   UNL     1       8.661   5.739  12.665  0.00  0.00    +0.000 F 
ATOM     27  C   UNL     1       7.610   5.459  14.755  0.00  0.00    +0.000 A 
ENDBRANCH  18  20
ENDBRANCH   1  18
TORSDOF 3
ENDMDL
MODEL 2
REMARK VINA RESULT:      -9.2      0.605      1.000
REMARK  Name = 
REMARK  3 active torsions:
REMARK  status: ('A' for Active; 'I' for Inactive)
REMARK    1  A    between atoms: S_2  and  C_4
REMARK    2  A    between atoms: S_2  and  N_12
REMARK    3  A    between atoms: C_14  and  C_15
REMARK                            x       y       z     vdW  Elec       q    Type
REMARK                         _______ _______ _______ _____ _____    ______ ____
ROOT
ATOM      1  N   UNL     1       4.963   5.605  17.726  0.00  0.00    +0.000 N 
ATOM      2  C   UNL     1       4.475   6.859  17.988  0.00  0.00    +0.000 A 
ATOM      3  C   UNL     1       3.150   6.716  18.337  0.00  0.00    +0.000 A 
ATOM      4  C   UNL     1       2.806   5.336  18.196  0.00  0.00    +0.000 A 
ATOM      5  C   UNL     1       1.609   4.606  18.356  0.00  0.00    +0.000 A 
ATOM      6  C   UNL     1       1.595   3.231  18.105  0.00  0.00    +0.000 A 
ATOM      7  C   UNL     1       2.756   2.571  17.715  0.00  0.00    +0.000 A 
ATOM      8  C   UNL     1       3.961   3.264  17.566  0.00  0.00    +0.000 A 
ATOM      9  C   UNL     1       3.967   4.650  17.803  0.00  0.00    +0.000 A 
ENDROOT
BRANCH   3  10
ATOM     10  C   UNL     1       2.298   7.801  18.704  0.00  0.00    +0.000 C 
ATOM     11  C   UNL     1       1.801   7.948  19.945  0.00  0.00    +0.000 C 
ATOM     12  C   UNL     1       0.922   9.111  20.295  0.00  0.00    +0.000 C 
ATOM     13  C   UNL     1       1.016  10.244  19.263  0.00  0.00    +0.000 C 
ATOM     14  N   UNL     1       0.892   9.727  17.898  0.00  0.00    +0.000 NA
ATOM     15  C   UNL     1       1.976   8.778  17.587  0.00  0.00    +0.000 C 
ATOM     16  H   UNL     1       0.931  10.499  17.234  0.00  0.00    +0.000 HD
ENDBRANCH   3  10
BRANCH   1  18
ATOM     17  O   UNL     1       6.989   4.141  18.016  0.00  0.00    +0.000 OA
ATOM     18  S   UNL     1       6.574   5.311  17.266  0.00  0.00    +0.000 S 
ATOM     19  O   UNL     1       7.261   6.581  17.377  0.00  0.00    +0.000 OA
BRANCH  18  20
ATOM     20  C   UNL     1       6.593   4.867  15.548  0.00  0.00    +0.000 A 
ATOM     21  C   UNL     1       5.674   3.982  14.973  0.00  0.00    +0.000 A 
ATOM     22  C   UNL     1       5.783   3.670  13.612  0.00  0.00    +0.000 A 
ATOM     23  C   UNL     1       6.789   4.250  12.842  0.00  0.00    +0.000 A 
ATOM     24  F   UNL     1       6.886   3.936  11.543  0.00  0.00    +0.000 F 
ATOM     25  C   UNL     1       7.686   5.142  13.416  0.00  0.00    +0.000 A 
ATOM     26  F   UNL     1       8.647   5.705  12.671  0.00  0.00    +0.000 F 
ATOM     27  C   UNL     1       7.597   5.456  14.766  0.00  0.00    +0.000 A 
ENDBRANCH  18  20
ENDBRANCH   1  18
TORSDOF 3
ENDMDL
MODEL 3
REMARK VINA RESULT:      -8.6      3.764      7.261
REMARK  Name = 
REMARK  3 active torsions:
REMARK  status: ('A' for Active; 'I' for Inactive)
REMARK    1  A    between atoms: S_2  and  C_4
REMARK    2  A    between atoms: S_2  and  N_12
REMARK    3  A    between atoms: C_14  and  C_15
REMARK                            x       y       z     vdW  Elec       q    Type
REMARK                         _______ _______ _______ _____ _____    ______ ____
ROOT
ATOM      1  N   UNL     1       4.099   4.387  17.475  0.00  0.00    +0.000 N 
ATOM      2  C   UNL     1       4.197   4.233  16.116  0.00  0.00    +0.000 A 
ATOM      3  C   UNL     1       5.517   4.434  15.778  0.00  0.00    +0.000 A 
ATOM      4  C   UNL     1       6.222   4.807  16.964  0.00  0.00    +0.000 A 
ATOM      5  C   UNL     1       7.557   5.178  17.231  0.00  0.00    +0.000 A 
ATOM      6  C   UNL     1       7.935   5.525  18.532  0.00  0.00    +0.000 A 
ATOM      7  C   UNL     1       7.009   5.489  19.570  0.00  0.00    +0.000 A 
ATOM      8  C   UNL     1       5.685   5.107  19.340  0.00  0.00    +0.000 A 
ATOM      9  C   UNL     1       5.305   4.776  18.027  0.00  0.00    +0.000 A 
ENDROOT
BRANCH   3  10
ATOM     10  C   UNL     1       6.025   4.339  14.448  0.00  0.00    +0.000 C 
ATOM     11  C   UNL     1       7.112   5.016  14.033  0.00  0.00    +0.000 C 
ATOM     12  C   UNL     1       7.624   4.875  12.631  0.00  0.00    +0.000 C 
ATOM     13  C   UNL     1       7.061   3.633  11.927  0.00  0.00    +0.000 C 
ATOM     14  N   UNL     1       5.609   3.541  12.097  0.00  0.00    +0.000 NA
ATOM     15  C   UNL     1       5.245   3.424  13.520  0.00  0.00    +0.000 C 
ATOM     16  H   UNL     1       5.257   2.726  11.599  0.00  0.00    +0.000 HD
ENDBRANCH   3  10
BRANCH   1  18
ATOM     17  O   UNL     1       2.919   3.281  19.404  0.00  0.00    +0.000 OA
ATOM     18  S   UNL     1       2.638   4.213  18.328  0.00  0.00    +0.000 S 
ATOM     19  O   UNL     1       1.620   3.953  17.330  0.00  0.00    +0.000 OA
BRANCH  18  20
ATOM     20  C   UNL     1       2.237   5.772  19.074  0.00  0.00    +0.000 A 
ATOM     21  C   UNL     1       1.805   5.900  20.399  0.00  0.00    +0.000 A 
ATOM     22  C   UNL     1       1.485   7.171  20.895  0.00  0.00    +0.000 A 
ATOM     23  C   UNL     1       1.611   8.291  20.076  0.00  0.00    +0.000 A 
ATOM     24  F   UNL     1       1.294   9.499  20.561  0.00  0.00    +0.000 F 
ATOM     25  C   UNL     1       2.058   8.158  18.767  0.00  0.00    +0.000 A 
ATOM     26  F   UNL     1       2.186   9.237  17.985  0.00  0.00    +0.000 F 
ATOM     27  C   UNL     1       2.372   6.904  18.257  0.00  0.00    +0.000 A 
ENDBRANCH  18  20
ENDBRANCH   1  18
TORSDOF 3
ENDMDL
MODEL 4
REMARK VINA RESULT:      -8.5      3.761      7.257
REMARK  Name = 
REMARK  3 active torsions:
REMARK  status: ('A' for Active; 'I' for Inactive)
REMARK    1  A    between atoms: S_2  and  C_4
REMARK    2  A    between atoms: S_2  and  N_12
REMARK    3  A    between atoms: C_14  and  C_15
REMARK                            x       y       z     vdW  Elec       q    Type
REMARK                         _______ _______ _______ _____ _____    ______ ____
ROOT
ATOM      1  N   UNL     1       4.194   4.336  17.438  0.00  0.00    +0.000 N 
ATOM      2  C   UNL     1       4.348   4.208  16.081  0.00  0.00    +0.000 A 
ATOM      3  C   UNL     1       5.674   4.444  15.797  0.00  0.00    +0.000 A 
ATOM      4  C   UNL     1       6.325   4.812  17.015  0.00  0.00    +0.000 A 
ATOM      5  C   UNL     1       7.640   5.208  17.341  0.00  0.00    +0.000 A 
ATOM      6  C   UNL     1       7.960   5.540  18.661  0.00  0.00    +0.000 A 
ATOM      7  C   UNL     1       6.996   5.465  19.661  0.00  0.00    +0.000 A 
ATOM      8  C   UNL     1       5.691   5.059  19.374  0.00  0.00    +0.000 A 
ATOM      9  C   UNL     1       5.369   4.742  18.042  0.00  0.00    +0.000 A 
ENDROOT
BRANCH   3  10
ATOM     10  C   UNL     1       6.236   4.383  14.486  0.00  0.00    +0.000 C 
ATOM     11  C   UNL     1       5.876   3.452  13.583  0.00  0.00    +0.000 C 
ATOM     12  C   UNL     1       6.478   3.432  12.210  0.00  0.00    +0.000 C 
ATOM     13  C   UNL     1       7.165   4.758  11.855  0.00  0.00    +0.000 C 
ATOM     14  N   UNL     1       8.044   5.204  12.940  0.00  0.00    +0.000 NA
ATOM     15  C   UNL     1       7.283   5.439  14.180  0.00  0.00    +0.000 C 
ATOM     16  H   UNL     1       8.508   6.069  12.670  0.00  0.00    +0.000 HD
ENDBRANCH   3  10
BRANCH   1  18
ATOM     17  O   UNL     1       2.951   3.121  19.257  0.00  0.00    +0.000 OA
ATOM     18  S   UNL     1       2.706   4.116  18.230  0.00  0.00    +0.000 S 
ATOM     19  O   UNL     1       1.721   3.918  17.186  0.00  0.00    +0.000 OA
BRANCH  18  20
ATOM     20  C   UNL     1       2.281   5.629  19.054  0.00  0.00    +0.000 A 
ATOM     21  C   UNL     1       1.822   5.680  20.375  0.00  0.00    +0.000 A 
ATOM     22  C   UNL     1       1.485   6.919  20.935  0.00  0.00    +0.000 A 
ATOM     23  C   UNL     1       1.622   8.084  20.183  0.00  0.00    +0.000 A 
ATOM     24  F   UNL     1       1.288   9.262  20.728  0.00  0.00    +0.000 F 
ATOM     25  C   UNL     1       2.096   8.027  18.878  0.00  0.00    +0.000 A 
ATOM     26  F   UNL     1       2.235   9.149  18.161  0.00  0.00    +0.000 F 
ATOM     27  C   UNL     1       2.427   6.805  18.306  0.00  0.00    +0.000 A 
ENDBRANCH  18  20
ENDBRANCH   1  18
TORSDOF 3
ENDMDL
MODEL 5
REMARK VINA RESULT:      -8.5      1.359      1.462
REMARK  Name = 
REMARK  3 active torsions:
REMARK  status: ('A' for Active; 'I' for Inactive)
REMARK    1  A    between atoms: S_2  and  C_4
REMARK    2  A    between atoms: S_2  and  N_12
REMARK    3  A    between atoms: C_14  and  C_15
REMARK                            x       y       z     vdW  Elec       q    Type
REMARK                         _______ _______ _______ _____ _____    ______ ____
ROOT
ATOM      1  N   UNL     1       4.460   5.599  18.890  0.00  0.00    +0.000 N 
ATOM      2  C   UNL     1       3.969   6.859  18.663  0.00  0.00    +0.000 A 
ATOM      3  C   UNL     1       2.702   6.906  19.200  0.00  0.00    +0.000 A 
ATOM      4  C   UNL     1       2.385   5.601  19.690  0.00  0.00    +0.000 A 
ATOM      5  C   UNL     1       1.239   5.033  20.288  0.00  0.00    +0.000 A 
ATOM      6  C   UNL     1       1.237   3.679  20.636  0.00  0.00    +0.000 A 
ATOM      7  C   UNL     1       2.361   2.890  20.417  0.00  0.00    +0.000 A 
ATOM      8  C   UNL     1       3.517   3.428  19.845  0.00  0.00    +0.000 A 
ATOM      9  C   UNL     1       3.510   4.787  19.480  0.00  0.00    +0.000 A 
ENDROOT
BRANCH   3  10
ATOM     10  C   UNL     1       1.868   8.064  19.183  0.00  0.00    +0.000 C 
ATOM     11  C   UNL     1       1.564   8.725  18.052  0.00  0.00    +0.000 C 
ATOM     12  C   UNL     1       0.669   9.929  18.075  0.00  0.00    +0.000 C 
ATOM     13  C   UNL     1      -0.135  10.033  19.378  0.00  0.00    +0.000 C 
ATOM     14  N   UNL     1       0.727   9.845  20.548  0.00  0.00    +0.000 NA
ATOM     15  C   UNL     1       1.353   8.511  20.540  0.00  0.00    +0.000 C 
ATOM     16  H   UNL     1       0.177   9.945  21.398  0.00  0.00    +0.000 HD
ENDBRANCH   3  10
BRANCH   1  18
ATOM     17  O   UNL     1       6.273   3.868  19.116  0.00  0.00    +0.000 OA
ATOM     18  S   UNL     1       6.010   5.102  18.399  0.00  0.00    +0.000 S 
ATOM     19  O   UNL     1       6.864   6.265  18.530  0.00  0.00    +0.000 OA
BRANCH  18  20
ATOM     20  C   UNL     1       5.950   4.703  16.671  0.00  0.00    +0.000 A 
ATOM     21  C   UNL     1       4.933   3.933  16.096  0.00  0.00    +0.000 A 
ATOM     22  C   UNL     1       4.982   3.646  14.726  0.00  0.00    +0.000 A 
ATOM     23  C   UNL     1       6.029   4.137  13.949  0.00  0.00    +0.000 A 
ATOM     24  F   UNL     1       6.068   3.849  12.641  0.00  0.00    +0.000 F 
ATOM     25  C   UNL     1       7.026   4.916  14.523  0.00  0.00    +0.000 A 
ATOM     26  F   UNL     1       8.026   5.395  13.771  0.00  0.00    +0.000 F 
ATOM     27  C   UNL     1       6.996   5.204  15.882  0.00  0.00    +0.000 A 
ENDBRANCH  18  20
ENDBRANCH   1  18
TORSDOF 3
ENDMDL
MODEL 6
REMARK VINA RESULT:      -8.4      0.606      1.338
REMARK  Name = 
REMARK  3 active torsions:
REMARK  status: ('A' for Active; 'I' for Inactive)
REMARK    1  A    between atoms: S_2  and  C_4
REMARK    2  A    between atoms: S_2  and  N_12
REMARK    3  A    between atoms: C_14  and  C_15
REMARK                            x       y       z     vdW  Elec       q    Type
REMARK                         _______ _______ _______ _____ _____    ______ ____
ROOT
ATOM      1  N   UNL     1       5.068   5.625  17.632  0.00  0.00    +0.000 N 
ATOM      2  C   UNL     1       4.565   6.880  17.861  0.00  0.00    +0.000 A 
ATOM      3  C   UNL     1       3.238   6.733  18.197  0.00  0.00    +0.000 A 
ATOM      4  C   UNL     1       2.908   5.347  18.082  0.00  0.00    +0.000 A 
ATOM      5  C   UNL     1       1.716   4.609  18.246  0.00  0.00    +0.000 A 
ATOM      6  C   UNL     1       1.717   3.229  18.024  0.00  0.00    +0.000 A 
ATOM      7  C   UNL     1       2.889   2.572  17.662  0.00  0.00    +0.000 A 
ATOM      8  C   UNL     1       4.088   3.272  17.511  0.00  0.00    +0.000 A 
ATOM      9  C   UNL     1       4.079   4.663  17.718  0.00  0.00    +0.000 A 
ENDROOT
BRANCH   3  10
ATOM     10  C   UNL     1       2.372   7.817  18.531  0.00  0.00    +0.000 C 
ATOM     11  C   UNL     1       2.035   8.777  17.650  0.00  0.00    +0.000 C 
ATOM     12  C   UNL     1       1.108   9.891  18.034  0.00  0.00    +0.000 C 
ATOM     13  C   UNL     1       0.317   9.576  19.312  0.00  0.00    +0.000 C 
ATOM     14  N   UNL     1       1.199   9.074  20.369  0.00  0.00    +0.000 NA
ATOM     15  C   UNL     1       1.862   7.822  19.961  0.00  0.00    +0.000 C 
ATOM     16  H   UNL     1       0.656   8.898  21.213  0.00  0.00    +0.000 HD
ENDBRANCH   3  10
BRANCH   1  18
ATOM     17  O   UNL     1       7.074   4.131  17.904  0.00  0.00    +0.000 OA
ATOM     18  S   UNL     1       6.686   5.336  17.196  0.00  0.00    +0.000 S 
ATOM     19  O   UNL     1       7.381   6.594  17.379  0.00  0.00    +0.000 OA
BRANCH  18  20
ATOM     20  C   UNL     1       6.742   4.968  15.462  0.00  0.00    +0.000 A 
ATOM     21  C   UNL     1       7.833   5.285  14.644  0.00  0.00    +0.000 A 
ATOM     22  C   UNL     1       7.777   4.979  13.278  0.00  0.00    +0.000 A 
ATOM     23  C   UNL     1       6.649   4.355  12.750  0.00  0.00    +0.000 A 
ATOM     24  F   UNL     1       6.606   4.076  11.440  0.00  0.00    +0.000 F 
ATOM     25  C   UNL     1       5.577   4.027  13.571  0.00  0.00    +0.000 A 
ATOM     26  F   UNL     1       4.498   3.419  13.061  0.00  0.00    +0.000 F 
ATOM     27  C   UNL     1       5.614   4.330  14.926  0.00  0.00    +0.000 A 
ENDBRANCH  18  20
ENDBRANCH   1  18
TORSDOF 3
ENDMDL
MODEL 7
REMARK VINA RESULT:      -8.4      1.831      2.444
REMARK  Name = 
REMARK  3 active torsions:
REMARK  status: ('A' for Active; 'I' for Inactive)
REMARK    1  A    between atoms: S_2  and  C_4
REMARK    2  A    between atoms: S_2  and  N_12
REMARK    3  A    between atoms: C_14  and  C_15
REMARK                            x       y       z     vdW  Elec       q    Type
REMARK                         _______ _______ _______ _____ _____    ______ ____
ROOT
ATOM      1  N   UNL     1       4.267   5.086  19.330  0.00  0.00    +0.000 N 
ATOM      2  C   UNL     1       3.978   6.402  19.074  0.00  0.00    +0.000 A 
ATOM      3  C   UNL     1       2.657   6.602  19.407  0.00  0.00    +0.000 A 
ATOM      4  C   UNL     1       2.107   5.342  19.796  0.00  0.00    +0.000 A 
ATOM      5  C   UNL     1       0.819   4.916  20.186  0.00  0.00    +0.000 A 
ATOM      6  C   UNL     1       0.593   3.568  20.483  0.00  0.00    +0.000 A 
ATOM      7  C   UNL     1       1.632   2.646  20.415  0.00  0.00    +0.000 A 
ATOM      8  C   UNL     1       2.922   3.040  20.050  0.00  0.00    +0.000 A 
ATOM      9  C   UNL     1       3.142   4.394  19.736  0.00  0.00    +0.000 A 
ENDROOT
BRANCH   3  10
ATOM     10  C   UNL     1       1.987   7.858  19.300  0.00  0.00    +0.000 C 
ATOM     11  C   UNL     1       1.357   8.437  20.339  0.00  0.00    +0.000 C 
ATOM     12  C   UNL     1       0.678   9.766  20.190  0.00  0.00    +0.000 C 
ATOM     13  C   UNL     1       1.133  10.515  18.929  0.00  0.00    +0.000 C 
ATOM     14  N   UNL     1       1.105   9.638  17.755  0.00  0.00    +0.000 NA
ATOM     15  C   UNL     1       2.019   8.494  17.922  0.00  0.00    +0.000 C 
ATOM     16  H   UNL     1       1.384  10.164  16.929  0.00  0.00    +0.000 HD
ENDBRANCH   3  10
BRANCH   1  18
ATOM     17  O   UNL     1       5.653   2.987  19.351  0.00  0.00    +0.000 OA
ATOM     18  S   UNL     1       5.802   4.402  19.071  0.00  0.00    +0.000 S 
ATOM     19  O   UNL     1       6.739   5.236  19.796  0.00  0.00    +0.000 OA
BRANCH  18  20
ATOM     20  C   UNL     1       6.202   4.559  17.350  0.00  0.00    +0.000 A 
ATOM     21  C   UNL     1       7.430   5.046  16.889  0.00  0.00    +0.000 A 
ATOM     22  C   UNL     1       7.648   5.160  15.510  0.00  0.00    +0.000 A 
ATOM     23  C   UNL     1       6.651   4.779  14.613  0.00  0.00    +0.000 A 
ATOM     24  F   UNL     1       6.869   4.900  13.297  0.00  0.00    +0.000 F 
ATOM     25  C   UNL     1       5.441   4.279  15.079  0.00  0.00    +0.000 A 
ATOM     26  F   UNL     1       4.488   3.906  14.214  0.00  0.00    +0.000 F 
ATOM     27  C   UNL     1       5.207   4.167  16.443  0.00  0.00    +0.000 A 
ENDBRANCH  18  20
ENDBRANCH   1  18
TORSDOF 3
ENDMDL
MODEL 8
REMARK VINA RESULT:      -8.3      1.729      2.241
REMARK  Name = 
REMARK  3 active torsions:
REMARK  status: ('A' for Active; 'I' for Inactive)
REMARK    1  A    between atoms: S_2  and  C_4
REMARK    2  A    between atoms: S_2  and  N_12
REMARK    3  A    between atoms: C_14  and  C_15
REMARK                            x       y       z     vdW  Elec       q    Type
REMARK                         _______ _______ _______ _____ _____    ______ ____
ROOT
ATOM      1  N   UNL     1       4.253   5.031  19.308  0.00  0.00    +0.000 N 
ATOM      2  C   UNL     1       3.969   6.346  19.042  0.00  0.00    +0.000 A 
ATOM      3  C   UNL     1       2.649   6.553  19.376  0.00  0.00    +0.000 A 
ATOM      4  C   UNL     1       2.095   5.298  19.775  0.00  0.00    +0.000 A 
ATOM      5  C   UNL     1       0.806   4.879  20.171  0.00  0.00    +0.000 A 
ATOM      6  C   UNL     1       0.576   3.534  20.478  0.00  0.00    +0.000 A 
ATOM      7  C   UNL     1       1.612   2.608  20.415  0.00  0.00    +0.000 A 
ATOM      8  C   UNL     1       2.902   2.995  20.045  0.00  0.00    +0.000 A 
ATOM      9  C   UNL     1       3.126   4.346  19.721  0.00  0.00    +0.000 A 
ENDROOT
BRANCH   3  10
ATOM     10  C   UNL     1       1.982   7.810  19.261  0.00  0.00    +0.000 C 
ATOM     11  C   UNL     1       1.896   8.485  18.100  0.00  0.00    +0.000 C 
ATOM     12  C   UNL     1       1.171   9.795  18.017  0.00  0.00    +0.000 C 
ATOM     13  C   UNL     1       0.247  10.027  19.221  0.00  0.00    +0.000 C 
ATOM     14  N   UNL     1       0.941   9.750  20.481  0.00  0.00    +0.000 NA
ATOM     15  C   UNL     1       1.382   8.345  20.549  0.00  0.00    +0.000 C 
ATOM     16  H   UNL     1       0.316   9.936  21.264  0.00  0.00    +0.000 HD
ENDBRANCH   3  10
BRANCH   1  18
ATOM     17  O   UNL     1       5.625   2.922  19.310  0.00  0.00    +0.000 OA
ATOM     18  S   UNL     1       5.785   4.340  19.052  0.00  0.00    +0.000 S 
ATOM     19  O   UNL     1       6.722   5.157  19.797  0.00  0.00    +0.000 OA
BRANCH  18  20
ATOM     20  C   UNL     1       6.201   4.520  17.337  0.00  0.00    +0.000 A 
ATOM     21  C   UNL     1       7.426   5.032  16.893  0.00  0.00    +0.000 A 
ATOM     22  C   UNL     1       7.656   5.162  15.518  0.00  0.00    +0.000 A 
ATOM     23  C   UNL     1       6.676   4.772  14.607  0.00  0.00    +0.000 A 
ATOM     24  F   UNL     1       6.906   4.909  13.294  0.00  0.00    +0.000 F 
ATOM     25  C   UNL     1       5.470   4.247  15.055  0.00  0.00    +0.000 A 
ATOM     26  F   UNL     1       4.533   3.863  14.177  0.00  0.00    +0.000 F 
ATOM     27  C   UNL     1       5.223   4.118  16.416  0.00  0.00    +0.000 A 
ENDBRANCH  18  20
ENDBRANCH   1  18
TORSDOF 3
ENDMDL
MODEL 9
REMARK VINA RESULT:      -8.3      0.891      1.681
REMARK  Name = 
REMARK  3 active torsions:
REMARK  status: ('A' for Active; 'I' for Inactive)
REMARK    1  A    between atoms: S_2  and  C_4
REMARK    2  A    between atoms: S_2  and  N_12
REMARK    3  A    between atoms: C_14  and  C_15
REMARK                            x       y       z     vdW  Elec       q    Type
REMARK                         _______ _______ _______ _____ _____    ______ ____
ROOT
ATOM      1  N   UNL     1       5.117   5.717  17.590  0.00  0.00    +0.000 N 
ATOM      2  C   UNL     1       4.588   6.952  17.864  0.00  0.00    +0.000 A 
ATOM      3  C   UNL     1       3.271   6.762  18.220  0.00  0.00    +0.000 A 
ATOM      4  C   UNL     1       2.973   5.372  18.071  0.00  0.00    +0.000 A 
ATOM      5  C   UNL     1       1.803   4.599  18.234  0.00  0.00    +0.000 A 
ATOM      6  C   UNL     1       1.834   3.226  17.972  0.00  0.00    +0.000 A 
ATOM      7  C   UNL     1       3.015   2.610  17.570  0.00  0.00    +0.000 A 
ATOM      8  C   UNL     1       4.194   3.344  17.418  0.00  0.00    +0.000 A 
ATOM      9  C   UNL     1       4.154   4.729  17.666  0.00  0.00    +0.000 A 
ENDROOT
BRANCH   3  10
ATOM     10  C   UNL     1       2.384   7.813  18.600  0.00  0.00    +0.000 C 
ATOM     11  C   UNL     1       1.859   7.913  19.835  0.00  0.00    +0.000 C 
ATOM     12  C   UNL     1       0.944   9.043  20.200  0.00  0.00    +0.000 C 
ATOM     13  C   UNL     1       1.030  10.207  19.202  0.00  0.00    +0.000 C 
ATOM     14  N   UNL     1       0.946   9.726  17.821  0.00  0.00    +0.000 NA
ATOM     15  C   UNL     1       2.060   8.814  17.505  0.00  0.00    +0.000 C 
ATOM     16  H   UNL     1       0.978  10.518  17.180  0.00  0.00    +0.000 HD
ENDBRANCH   3  10
BRANCH   1  18
ATOM     17  O   UNL     1       7.196   4.326  17.863  0.00  0.00    +0.000 OA
ATOM     18  S   UNL     1       6.733   5.482  17.117  0.00  0.00    +0.000 S 
ATOM     19  O   UNL     1       7.375   6.776  17.226  0.00  0.00    +0.000 OA
BRANCH  18  20
ATOM     20  C   UNL     1       6.756   5.042  15.398  0.00  0.00    +0.000 A 
ATOM     21  C   UNL     1       7.846   5.291  14.557  0.00  0.00    +0.000 A 
ATOM     22  C   UNL     1       7.763   4.933  13.205  0.00  0.00    +0.000 A 
ATOM     23  C   UNL     1       6.610   4.324  12.715  0.00  0.00    +0.000 A 
ATOM     24  F   UNL     1       6.541   3.993  11.418  0.00  0.00    +0.000 F 
ATOM     25  C   UNL     1       5.539   4.063  13.561  0.00  0.00    +0.000 A 
ATOM     26  F   UNL     1       4.435   3.469  13.088  0.00  0.00    +0.000 F 
ATOM     27  C   UNL     1       5.601   4.419  14.902  0.00  0.00    +0.000 A 
ENDBRANCH  18  20
ENDBRANCH   1  18
TORSDOF 3
ENDMDL
